
  xtb     02092201283D
 energy: -335.812363241231 gnorm: 0.000350161800 xtb: 6.4.1 (unknown)
196212  0     0  0            999 V2000
   -1.9227   -3.5082   -8.0107 C   0  0  0  0  0  0  0  0  0  0  0  0
   -1.7261   -3.8114   -9.3348 C   0  0  0  0  0  0  0  0  0  0  0  0
   -0.8592   -3.1252  -10.3147 C   0  0  0  0  0  0  0  0  0  0  0  0
   -0.0969   -2.1971  -10.1315 O   0  0  0  0  0  0  0  0  0  0  0  0
   -1.1182   -3.7870  -11.6095 C   0  0  0  0  0  0  0  0  0  0  0  0
   -0.5932   -3.5107  -12.8614 C   0  0  0  0  0  0  0  0  0  0  0  0
    0.5596   -2.2577  -13.0850 Cl  0  0  0  0  0  0  0  0  0  0  0  0
   -1.0158   -4.2704  -13.9499 C   0  0  0  0  0  0  0  0  0  0  0  0
   -1.9442   -5.2804  -13.7718 C   0  0  0  0  0  0  0  0  0  0  0  0
   -2.4732   -5.5724  -12.5200 C   0  0  0  0  0  0  0  0  0  0  0  0
   -2.0546   -4.8220  -11.4346 C   0  0  0  0  0  0  0  0  0  0  0  0
   -2.4109   -4.8913  -10.0175 C   0  0  0  0  0  0  0  0  0  0  0  0
   -3.1911   -5.8700   -9.4578 C   0  0  0  0  0  0  0  0  0  0  0  0
   -3.4686   -6.0378   -8.0854 C   0  0  0  0  0  0  0  0  0  0  0  0
   -3.7381   -6.2771   -6.9940 N   0  0  0  0  0  0  0  0  0  0  0  0
   -3.8167   -6.9029  -10.1879 C   0  0  0  0  0  0  0  0  0  0  0  0
   -4.3681   -7.7639  -10.7102 N   0  0  0  0  0  0  0  0  0  0  0  0
   -1.2579   -2.6237   -7.1478 C   0  0  0  0  0  0  0  0  0  0  0  0
   -0.1754   -1.7720   -7.2989 C   0  0  0  0  0  0  0  0  0  0  0  0
    0.2965   -1.2534   -6.1003 C   0  0  0  0  0  0  0  0  0  0  0  0
    1.7367   -0.2336   -5.9954 S   0  0  0  0  0  0  0  0  0  0  0  0
    1.1463    1.2184   -6.9392 C   0  0  0  0  0  0  0  0  0  0  0  0
    0.0875    1.9909   -6.1790 C   0  0  0  0  0  0  0  0  0  0  0  0
   -0.3811   -1.7255   -4.9760 C   0  0  0  0  0  0  0  0  0  0  0  0
   -1.7319   -2.6971   -5.4565 S   0  0  0  0  0  0  0  0  0  0  0  0
   -0.0590   -1.4923   -3.6143 C   0  0  0  0  0  0  0  0  0  0  0  0
   -0.1545   -2.3611   -2.5232 C   0  0  0  0  0  0  0  0  0  0  0  0
   -0.4161   -3.7123   -2.5949 N   0  0  0  0  0  0  0  0  0  0  0  0
   -0.1029   -4.4426   -3.7534 C   0  0  0  0  0  0  0  0  0  0  0  0
   -0.9947   -5.3944   -4.2535 C   0  0  0  0  0  0  0  0  0  0  0  0
   -0.7798   -5.9706   -5.4858 C   0  0  0  0  0  0  0  0  0  0  0  0
    0.3193   -5.5969   -6.2551 C   0  0  0  0  0  0  0  0  0  0  0  0
    0.4117   -6.2507   -7.8933 S   0  0  0  0  0  0  0  0  0  0  0  0
    1.6246   -5.1708   -8.7075 C   0  0  0  0  0  0  0  0  0  0  0  0
    1.2653   -4.7326   -5.7161 C   0  0  0  0  0  0  0  0  0  0  0  0
    1.0595   -4.1708   -4.4720 C   0  0  0  0  0  0  0  0  0  0  0  0
   -1.1044   -4.3464   -1.5495 C   0  0  0  0  0  0  0  0  0  0  0  0
   -0.7954   -5.6612   -1.2122 C   0  0  0  0  0  0  0  0  0  0  0  0
   -1.5075   -6.3229   -0.2341 C   0  0  0  0  0  0  0  0  0  0  0  0
   -2.5302   -5.6683    0.4393 C   0  0  0  0  0  0  0  0  0  0  0  0
   -3.5086   -6.4279    1.6980 S   0  0  0  0  0  0  0  0  0  0  0  0
   -3.2313   -8.2020    1.4318 C   0  0  0  0  0  0  0  0  0  0  0  0
   -2.8220   -4.3434    0.1293 C   0  0  0  0  0  0  0  0  0  0  0  0
   -2.1255   -3.6904   -0.8634 C   0  0  0  0  0  0  0  0  0  0  0  0
    0.1470   -1.6775   -1.3168 C   0  0  0  0  0  0  0  0  0  0  0  0
    0.2072   -2.1132    0.3653 S   0  0  0  0  0  0  0  0  0  0  0  0
    0.6454   -0.4642    0.7999 C   0  0  0  0  0  0  0  0  0  0  0  0
    0.8126    0.3391   -0.3177 C   0  0  0  0  0  0  0  0  0  0  0  0
    1.2881    1.6416   -0.2774 N   0  0  0  0  0  0  0  0  0  0  0  0
    2.4158    1.9246    0.5088 C   0  0  0  0  0  0  0  0  0  0  0  0
    2.5224    3.1486    1.1646 C   0  0  0  0  0  0  0  0  0  0  0  0
    3.6081    3.4166    1.9674 C   0  0  0  0  0  0  0  0  0  0  0  0
    4.6148    2.4674    2.1305 C   0  0  0  0  0  0  0  0  0  0  0  0
    5.9224    2.8786    3.2450 S   0  0  0  0  0  0  0  0  0  0  0  0
    7.2122    1.6559    2.8599 C   0  0  0  0  0  0  0  0  0  0  0  0
    4.5227    1.2532    1.4619 C   0  0  0  0  0  0  0  0  0  0  0  0
    3.4304    0.9846    0.6600 C   0  0  0  0  0  0  0  0  0  0  0  0
    0.7365    2.5784   -1.1524 C   0  0  0  0  0  0  0  0  0  0  0  0
   -0.6200    2.5094   -1.4640 C   0  0  0  0  0  0  0  0  0  0  0  0
   -1.1754    3.3587   -2.3997 C   0  0  0  0  0  0  0  0  0  0  0  0
   -0.3826    4.3052   -3.0321 C   0  0  0  0  0  0  0  0  0  0  0  0
   -0.9846    5.4209   -4.2657 S   0  0  0  0  0  0  0  0  0  0  0  0
   -2.5395    4.6484   -4.8044 C   0  0  0  0  0  0  0  0  0  0  0  0
    0.9616    4.4149   -2.6850 C   0  0  0  0  0  0  0  0  0  0  0  0
    1.5186    3.5613   -1.7599 C   0  0  0  0  0  0  0  0  0  0  0  0
    0.5050   -0.3530   -1.5059 C   0  0  0  0  0  0  0  0  0  0  0  0
    0.5234    0.1055   -3.1625 S   0  0  0  0  0  0  0  0  0  0  0  0
    0.6387    0.0786    2.1270 C   0  0  0  0  0  0  0  0  0  0  0  0
    1.2343   -0.3080    3.3140 C   0  0  0  0  0  0  0  0  0  0  0  0
    2.0111   -1.4413    3.5049 N   0  0  0  0  0  0  0  0  0  0  0  0
    1.5182   -2.7080    3.1566 C   0  0  0  0  0  0  0  0  0  0  0  0
    2.4100   -3.6990    2.7474 C   0  0  0  0  0  0  0  0  0  0  0  0
    1.9684   -4.9874    2.5414 C   0  0  0  0  0  0  0  0  0  0  0  0
    0.6294   -5.3039    2.7390 C   0  0  0  0  0  0  0  0  0  0  0  0
    0.1423   -7.0029    2.6223 S   0  0  0  0  0  0  0  0  0  0  0  0
   -0.9192   -7.1470    4.0974 C   0  0  0  0  0  0  0  0  0  0  0  0
   -0.2789   -4.3069    3.0627 C   0  0  0  0  0  0  0  0  0  0  0  0
    0.1641   -3.0160    3.2749 C   0  0  0  0  0  0  0  0  0  0  0  0
    3.0779   -1.3586    4.4178 C   0  0  0  0  0  0  0  0  0  0  0  0
    3.8997   -0.2338    4.4231 C   0  0  0  0  0  0  0  0  0  0  0  0
    4.9471   -0.1260    5.3166 C   0  0  0  0  0  0  0  0  0  0  0  0
    5.1930   -1.1461    6.2255 C   0  0  0  0  0  0  0  0  0  0  0  0
    6.4923   -1.0927    7.4206 S   0  0  0  0  0  0  0  0  0  0  0  0
    7.7176    0.0095    6.6543 C   0  0  0  0  0  0  0  0  0  0  0  0
    4.3659   -2.2664    6.2338 C   0  0  0  0  0  0  0  0  0  0  0  0
    3.3198   -2.3728    5.3444 C   0  0  0  0  0  0  0  0  0  0  0  0
    0.9801    0.6372    4.3401 C   0  0  0  0  0  0  0  0  0  0  0  0
    1.4314    0.7372    6.0013 S   0  0  0  0  0  0  0  0  0  0  0  0
    0.4509    2.1944    6.2097 C   0  0  0  0  0  0  0  0  0  0  0  0
   -0.2195    2.5442    5.0284 C   0  0  0  0  0  0  0  0  0  0  0  0
   -1.0772    3.5962    4.8590 N   0  0  0  0  0  0  0  0  0  0  0  0
   -1.0281    4.3083    3.6387 C   0  0  0  0  0  0  0  0  0  0  0  0
    0.1848    4.8305    3.1942 C   0  0  0  0  0  0  0  0  0  0  0  0
    0.2299    5.5391    2.0143 C   0  0  0  0  0  0  0  0  0  0  0  0
   -0.9185    5.7081    1.2406 C   0  0  0  0  0  0  0  0  0  0  0  0
   -0.7075    6.5877   -0.2708 S   0  0  0  0  0  0  0  0  0  0  0  0
   -2.3418    6.5202   -1.0524 C   0  0  0  0  0  0  0  0  0  0  0  0
   -2.1275    5.1928    1.6913 C   0  0  0  0  0  0  0  0  0  0  0  0
   -2.1819    4.5073    2.8901 C   0  0  0  0  0  0  0  0  0  0  0  0
   -2.0110    3.9680    5.8299 C   0  0  0  0  0  0  0  0  0  0  0  0
   -2.6245    3.0061    6.6366 C   0  0  0  0  0  0  0  0  0  0  0  0
   -3.5518    3.3821    7.5808 C   0  0  0  0  0  0  0  0  0  0  0  0
   -3.8956    4.7242    7.7420 C   0  0  0  0  0  0  0  0  0  0  0  0
   -5.1029    5.0824    8.9727 S   0  0  0  0  0  0  0  0  0  0  0  0
   -5.0660    6.8926    9.1045 C   0  0  0  0  0  0  0  0  0  0  0  0
   -3.2984    5.6817    6.9309 C   0  0  0  0  0  0  0  0  0  0  0  0
   -2.3645    5.3058    5.9860 C   0  0  0  0  0  0  0  0  0  0  0  0
    0.1568    1.6851    3.9697 C   0  0  0  0  0  0  0  0  0  0  0  0
   -0.2900    1.5721    2.3091 S   0  0  0  0  0  0  0  0  0  0  0  0
    0.4459    2.8486    7.4525 C   0  0  0  0  0  0  0  0  0  0  0  0
    1.4560    2.8385    8.3773 C   0  0  0  0  0  0  0  0  0  0  0  0
    1.1728    3.1364    9.8021 C   0  0  0  0  0  0  0  0  0  0  0  0
    0.1466    3.5923   10.2533 O   0  0  0  0  0  0  0  0  0  0  0  0
    2.3941    2.7188   10.5293 C   0  0  0  0  0  0  0  0  0  0  0  0
    2.6456    2.6363   11.8880 C   0  0  0  0  0  0  0  0  0  0  0  0
    1.4616    3.1116   13.0366 Cl  0  0  0  0  0  0  0  0  0  0  0  0
    3.8821    2.1540   12.3155 C   0  0  0  0  0  0  0  0  0  0  0  0
    4.8338    1.7571   11.3935 C   0  0  0  0  0  0  0  0  0  0  0  0
    4.6015    1.8453   10.0253 C   0  0  0  0  0  0  0  0  0  0  0  0
    3.3822    2.3375    9.6001 C   0  0  0  0  0  0  0  0  0  0  0  0
    2.8610    2.5607    8.2522 C   0  0  0  0  0  0  0  0  0  0  0  0
    3.6395    2.7730    7.1390 C   0  0  0  0  0  0  0  0  0  0  0  0
    3.1281    3.2253    5.9095 C   0  0  0  0  0  0  0  0  0  0  0  0
    2.7523    3.6444    4.9076 N   0  0  0  0  0  0  0  0  0  0  0  0
    5.0436    2.7307    7.1481 C   0  0  0  0  0  0  0  0  0  0  0  0
    6.1918    2.7442    7.0983 N   0  0  0  0  0  0  0  0  0  0  0  0
   -2.6884   -4.0843   -7.5056 H   0  0  0  0  0  0  0  0  0  0  0  0
   -0.6140   -4.0611  -14.9285 H   0  0  0  0  0  0  0  0  0  0  0  0
   -2.2658   -5.8567  -14.6258 H   0  0  0  0  0  0  0  0  0  0  0  0
   -3.1953   -6.3643  -12.4151 H   0  0  0  0  0  0  0  0  0  0  0  0
    0.2760   -1.5708   -8.2532 H   0  0  0  0  0  0  0  0  0  0  0  0
    0.7784    0.8606   -7.9001 H   0  0  0  0  0  0  0  0  0  0  0  0
    2.0398    1.8213   -7.0947 H   0  0  0  0  0  0  0  0  0  0  0  0
   -0.7903    1.3683   -6.0092 H   0  0  0  0  0  0  0  0  0  0  0  0
    0.4719    2.3166   -5.2143 H   0  0  0  0  0  0  0  0  0  0  0  0
   -0.2096    2.8670   -6.7523 H   0  0  0  0  0  0  0  0  0  0  0  0
   -1.8869   -5.6384   -3.6984 H   0  0  0  0  0  0  0  0  0  0  0  0
   -1.4964   -6.6703   -5.8860 H   0  0  0  0  0  0  0  0  0  0  0  0
    1.3587   -4.1313   -8.5410 H   0  0  0  0  0  0  0  0  0  0  0  0
    1.5632   -5.4047   -9.7662 H   0  0  0  0  0  0  0  0  0  0  0  0
    2.6254   -5.3854   -8.3444 H   0  0  0  0  0  0  0  0  0  0  0  0
    2.1601   -4.4764   -6.2597 H   0  0  0  0  0  0  0  0  0  0  0  0
    1.7910   -3.4833   -4.0734 H   0  0  0  0  0  0  0  0  0  0  0  0
    0.0044   -6.1703   -1.7285 H   0  0  0  0  0  0  0  0  0  0  0  0
   -1.2451   -7.3401    0.0027 H   0  0  0  0  0  0  0  0  0  0  0  0
   -3.4373   -8.4446    0.3938 H   0  0  0  0  0  0  0  0  0  0  0  0
   -3.9367   -8.7118    2.0807 H   0  0  0  0  0  0  0  0  0  0  0  0
   -2.2150   -8.4699    1.7054 H   0  0  0  0  0  0  0  0  0  0  0  0
   -3.6179   -3.8407    0.6572 H   0  0  0  0  0  0  0  0  0  0  0  0
   -2.3905   -2.6786   -1.1307 H   0  0  0  0  0  0  0  0  0  0  0  0
    1.7365    3.8757    1.0425 H   0  0  0  0  0  0  0  0  0  0  0  0
    3.6818    4.3549    2.4928 H   0  0  0  0  0  0  0  0  0  0  0  0
    7.4432    1.6908    1.7995 H   0  0  0  0  0  0  0  0  0  0  0  0
    8.0788    1.9585    3.4396 H   0  0  0  0  0  0  0  0  0  0  0  0
    6.8961    0.6608    3.1607 H   0  0  0  0  0  0  0  0  0  0  0  0
    5.2907    0.5027    1.5614 H   0  0  0  0  0  0  0  0  0  0  0  0
    3.3669    0.0348    0.1493 H   0  0  0  0  0  0  0  0  0  0  0  0
   -1.2431    1.7799   -0.9672 H   0  0  0  0  0  0  0  0  0  0  0  0
   -2.2263    3.2689   -2.6271 H   0  0  0  0  0  0  0  0  0  0  0  0
   -2.8284    5.1691   -5.7119 H   0  0  0  0  0  0  0  0  0  0  0  0
   -2.3668    3.5980   -5.0169 H   0  0  0  0  0  0  0  0  0  0  0  0
   -3.3112    4.7766   -4.0503 H   0  0  0  0  0  0  0  0  0  0  0  0
    1.5670    5.1675   -3.1656 H   0  0  0  0  0  0  0  0  0  0  0  0
    2.5681    3.6350   -1.5200 H   0  0  0  0  0  0  0  0  0  0  0  0
    3.4550   -3.4545    2.6308 H   0  0  0  0  0  0  0  0  0  0  0  0
    2.6592   -5.7642    2.2518 H   0  0  0  0  0  0  0  0  0  0  0  0
   -1.8978   -6.7174    3.9056 H   0  0  0  0  0  0  0  0  0  0  0  0
   -1.0132   -8.2086    4.3027 H   0  0  0  0  0  0  0  0  0  0  0  0
   -0.4321   -6.6483    4.9291 H   0  0  0  0  0  0  0  0  0  0  0  0
   -1.3270   -4.5366    3.1738 H   0  0  0  0  0  0  0  0  0  0  0  0
   -0.5374   -2.2477    3.5651 H   0  0  0  0  0  0  0  0  0  0  0  0
    3.7083    0.5682    3.7264 H   0  0  0  0  0  0  0  0  0  0  0  0
    5.5563    0.7632    5.3053 H   0  0  0  0  0  0  0  0  0  0  0  0
    7.3800    1.0422    6.7005 H   0  0  0  0  0  0  0  0  0  0  0  0
    7.8915   -0.3092    5.6311 H   0  0  0  0  0  0  0  0  0  0  0  0
    8.6236   -0.1089    7.2403 H   0  0  0  0  0  0  0  0  0  0  0  0
    4.5492   -3.0494    6.9532 H   0  0  0  0  0  0  0  0  0  0  0  0
    2.6808   -3.2424    5.3700 H   0  0  0  0  0  0  0  0  0  0  0  0
    1.0791    4.6768    3.7789 H   0  0  0  0  0  0  0  0  0  0  0  0
    1.1538    5.9848    1.6777 H   0  0  0  0  0  0  0  0  0  0  0  0
   -2.2128    6.9789   -2.0281 H   0  0  0  0  0  0  0  0  0  0  0  0
   -3.0623    7.0852   -0.4679 H   0  0  0  0  0  0  0  0  0  0  0  0
   -2.6453    5.4839   -1.1666 H   0  0  0  0  0  0  0  0  0  0  0  0
   -3.0339    5.3201    1.1222 H   0  0  0  0  0  0  0  0  0  0  0  0
   -3.1232    4.1145    3.2457 H   0  0  0  0  0  0  0  0  0  0  0  0
   -2.3702    1.9640    6.5126 H   0  0  0  0  0  0  0  0  0  0  0  0
   -4.0243    2.6409    8.2064 H   0  0  0  0  0  0  0  0  0  0  0  0
   -4.0530    7.2225    9.3142 H   0  0  0  0  0  0  0  0  0  0  0  0
   -5.4520    7.3460    8.1959 H   0  0  0  0  0  0  0  0  0  0  0  0
   -5.7147    7.1372    9.9399 H   0  0  0  0  0  0  0  0  0  0  0  0
   -3.5473    6.7259    7.0276 H   0  0  0  0  0  0  0  0  0  0  0  0
   -1.8969    6.0553    5.3651 H   0  0  0  0  0  0  0  0  0  0  0  0
   -0.4619    3.3610    7.7542 H   0  0  0  0  0  0  0  0  0  0  0  0
    4.0839    2.0883   13.3728 H   0  0  0  0  0  0  0  0  0  0  0  0
    5.7784    1.3700   11.7437 H   0  0  0  0  0  0  0  0  0  0  0  0
    5.3514    1.5161    9.3246 H   0  0  0  0  0  0  0  0  0  0  0  0
  1  2  2  0  0  0  0
  2  3  1  0  0  0  0
  3  4  2  0  0  0  0
  3  5  1  0  0  0  0
  5  6  2  0  0  0  0
  6  7  1  0  0  0  0
  6  8  1  0  0  0  0
  8  9  2  0  0  0  0
  9 10  1  0  0  0  0
 10 11  2  0  0  0  0
 11 12  1  0  0  0  0
 12 13  2  0  0  0  0
 13 14  1  0  0  0  0
 14 15  3  0  0  0  0
 13 16  1  0  0  0  0
 16 17  3  0  0  0  0
  1 18  1  0  0  0  0
 18 19  2  0  0  0  0
 19 20  1  0  0  0  0
 20 21  1  0  0  0  0
 21 22  1  0  0  0  0
 22 23  1  0  0  0  0
 20 24  2  0  0  0  0
 24 25  1  0  0  0  0
 24 26  1  0  0  0  0
 26 27  2  0  0  0  0
 27 28  1  0  0  0  0
 28 29  1  0  0  0  0
 29 30  2  0  0  0  0
 30 31  1  0  0  0  0
 31 32  2  0  0  0  0
 32 33  1  0  0  0  0
 33 34  1  0  0  0  0
 32 35  1  0  0  0  0
 35 36  2  0  0  0  0
 28 37  1  0  0  0  0
 37 38  2  0  0  0  0
 38 39  1  0  0  0  0
 39 40  2  0  0  0  0
 40 41  1  0  0  0  0
 41 42  1  0  0  0  0
 40 43  1  0  0  0  0
 43 44  2  0  0  0  0
 27 45  1  0  0  0  0
 45 46  1  0  0  0  0
 46 47  1  0  0  0  0
 47 48  2  0  0  0  0
 48 49  1  0  0  0  0
 49 50  1  0  0  0  0
 50 51  2  0  0  0  0
 51 52  1  0  0  0  0
 52 53  2  0  0  0  0
 53 54  1  0  0  0  0
 54 55  1  0  0  0  0
 53 56  1  0  0  0  0
 56 57  2  0  0  0  0
 49 58  1  0  0  0  0
 58 59  2  0  0  0  0
 59 60  1  0  0  0  0
 60 61  2  0  0  0  0
 61 62  1  0  0  0  0
 62 63  1  0  0  0  0
 61 64  1  0  0  0  0
 64 65  2  0  0  0  0
 48 66  1  0  0  0  0
 66 67  1  0  0  0  0
 47 68  1  0  0  0  0
 68 69  2  0  0  0  0
 69 70  1  0  0  0  0
 70 71  1  0  0  0  0
 71 72  2  0  0  0  0
 72 73  1  0  0  0  0
 73 74  2  0  0  0  0
 74 75  1  0  0  0  0
 75 76  1  0  0  0  0
 74 77  1  0  0  0  0
 77 78  2  0  0  0  0
 70 79  1  0  0  0  0
 79 80  2  0  0  0  0
 80 81  1  0  0  0  0
 81 82  2  0  0  0  0
 82 83  1  0  0  0  0
 83 84  1  0  0  0  0
 82 85  1  0  0  0  0
 85 86  2  0  0  0  0
 69 87  1  0  0  0  0
 87 88  1  0  0  0  0
 88 89  1  0  0  0  0
 89 90  2  0  0  0  0
 90 91  1  0  0  0  0
 91 92  1  0  0  0  0
 92 93  2  0  0  0  0
 93 94  1  0  0  0  0
 94 95  2  0  0  0  0
 95 96  1  0  0  0  0
 96 97  1  0  0  0  0
 95 98  1  0  0  0  0
 98 99  2  0  0  0  0
 91100  1  0  0  0  0
100101  2  0  0  0  0
101102  1  0  0  0  0
102103  2  0  0  0  0
103104  1  0  0  0  0
104105  1  0  0  0  0
103106  1  0  0  0  0
106107  2  0  0  0  0
 90108  1  0  0  0  0
108109  1  0  0  0  0
 89110  1  0  0  0  0
110111  2  0  0  0  0
111112  1  0  0  0  0
112113  2  0  0  0  0
112114  1  0  0  0  0
114115  2  0  0  0  0
115116  1  0  0  0  0
115117  1  0  0  0  0
117118  2  0  0  0  0
118119  1  0  0  0  0
119120  2  0  0  0  0
120121  1  0  0  0  0
121122  2  0  0  0  0
122123  1  0  0  0  0
123124  3  0  0  0  0
122125  1  0  0  0  0
125126  3  0  0  0  0
 12  2  1  0  0  0  0
 25 18  1  0  0  0  0
 67 26  1  0  0  0  0
109 68  1  0  0  0  0
121111  1  0  0  0  0
 11  5  1  0  0  0  0
 36 29  1  0  0  0  0
 44 37  1  0  0  0  0
 66 45  2  0  0  0  0
 78 71  1  0  0  0  0
 86 79  1  0  0  0  0
108 87  2  0  0  0  0
120114  1  0  0  0  0
 57 50  1  0  0  0  0
 65 58  1  0  0  0  0
 99 92  1  0  0  0  0
107100  1  0  0  0  0
  1127  1  0  0  0  0
  8128  1  0  0  0  0
  9129  1  0  0  0  0
 10130  1  0  0  0  0
 19131  1  0  0  0  0
 22132  1  0  0  0  0
 22133  1  0  0  0  0
 23134  1  0  0  0  0
 23135  1  0  0  0  0
 23136  1  0  0  0  0
 30137  1  0  0  0  0
 31138  1  0  0  0  0
 34139  1  0  0  0  0
 34140  1  0  0  0  0
 34141  1  0  0  0  0
 35142  1  0  0  0  0
 36143  1  0  0  0  0
 38144  1  0  0  0  0
 39145  1  0  0  0  0
 42146  1  0  0  0  0
 42147  1  0  0  0  0
 42148  1  0  0  0  0
 43149  1  0  0  0  0
 44150  1  0  0  0  0
 51151  1  0  0  0  0
 52152  1  0  0  0  0
 55153  1  0  0  0  0
 55154  1  0  0  0  0
 55155  1  0  0  0  0
 56156  1  0  0  0  0
 57157  1  0  0  0  0
 59158  1  0  0  0  0
 60159  1  0  0  0  0
 63160  1  0  0  0  0
 63161  1  0  0  0  0
 63162  1  0  0  0  0
 64163  1  0  0  0  0
 65164  1  0  0  0  0
 72165  1  0  0  0  0
 73166  1  0  0  0  0
 76167  1  0  0  0  0
 76168  1  0  0  0  0
 76169  1  0  0  0  0
 77170  1  0  0  0  0
 78171  1  0  0  0  0
 80172  1  0  0  0  0
 81173  1  0  0  0  0
 84174  1  0  0  0  0
 84175  1  0  0  0  0
 84176  1  0  0  0  0
 85177  1  0  0  0  0
 86178  1  0  0  0  0
 93179  1  0  0  0  0
 94180  1  0  0  0  0
 97181  1  0  0  0  0
 97182  1  0  0  0  0
 97183  1  0  0  0  0
 98184  1  0  0  0  0
 99185  1  0  0  0  0
101186  1  0  0  0  0
102187  1  0  0  0  0
105188  1  0  0  0  0
105189  1  0  0  0  0
105190  1  0  0  0  0
106191  1  0  0  0  0
107192  1  0  0  0  0
110193  1  0  0  0  0
117194  1  0  0  0  0
118195  1  0  0  0  0
119196  1  0  0  0  0
M  END
