
  xtb     02032223063D
 energy: -339.523477220340 gnorm: 0.000885065644 xtb: 6.4.1 (unknown)
193212  0     0  0            999 V2000
    8.1551    4.2360    8.3701 C   0  0  0  0  0  0  0  0  0  0  0  0
    9.4535    4.6096    8.1488 C   0  0  0  0  0  0  0  0  0  0  0  0
   10.1909    4.5504    6.8634 C   0  0  0  0  0  0  0  0  0  0  0  0
    9.7542    4.3274    5.7549 O   0  0  0  0  0  0  0  0  0  0  0  0
   11.6109    4.7530    7.2140 C   0  0  0  0  0  0  0  0  0  0  0  0
   12.7269    4.7507    6.3923 C   0  0  0  0  0  0  0  0  0  0  0  0
   12.5810    4.5081    4.7001 Cl  0  0  0  0  0  0  0  0  0  0  0  0
   13.9805    4.9559    6.9647 C   0  0  0  0  0  0  0  0  0  0  0  0
   14.0975    5.1516    8.3294 C   0  0  0  0  0  0  0  0  0  0  0  0
   12.9855    5.1603    9.1637 C   0  0  0  0  0  0  0  0  0  0  0  0
   11.7367    4.9639    8.5995 C   0  0  0  0  0  0  0  0  0  0  0  0
   10.4028    4.9298    9.1968 C   0  0  0  0  0  0  0  0  0  0  0  0
   10.1114    5.2327   10.5011 C   0  0  0  0  0  0  0  0  0  0  0  0
   11.0779    5.5567   11.4763 C   0  0  0  0  0  0  0  0  0  0  0  0
   11.8108    5.8187   12.3203 N   0  0  0  0  0  0  0  0  0  0  0  0
    8.8140    5.3072   11.0528 C   0  0  0  0  0  0  0  0  0  0  0  0
    7.7978    5.4158   11.5765 N   0  0  0  0  0  0  0  0  0  0  0  0
    7.1380    3.9600    7.4322 C   0  0  0  0  0  0  0  0  0  0  0  0
    7.0019    4.3210    6.1129 C   0  0  0  0  0  0  0  0  0  0  0  0
    5.8409    3.8189    5.5004 C   0  0  0  0  0  0  0  0  0  0  0  0
    5.4526    3.9556    4.1467 C   0  0  0  0  0  0  0  0  0  0  0  0
    6.3242    4.5765    3.1746 C   0  0  0  0  0  0  0  0  0  0  0  0
    7.6884    4.5029    3.0997 C   0  0  0  0  0  0  0  0  0  0  0  0
    8.2085    5.2207    2.0039 C   0  0  0  0  0  0  0  0  0  0  0  0
    9.8985    5.3078    1.6829 Cl  0  0  0  0  0  0  0  0  0  0  0  0
    7.2663    5.8346    1.2281 C   0  0  0  0  0  0  0  0  0  0  0  0
    7.4643    6.7204    0.0471 C   0  0  0  0  0  0  0  0  0  0  0  0
    7.4392    8.1942    0.4596 C   0  0  0  0  0  0  0  0  0  0  0  0
    5.6857    5.5270    1.8599 S   0  0  0  0  0  0  0  0  0  0  0  0
    4.2325    3.3922    3.8034 C   0  0  0  0  0  0  0  0  0  0  0  0
    3.4369    2.6234    4.6939 C   0  0  0  0  0  0  0  0  0  0  0  0
    3.8259    2.4830    6.0435 C   0  0  0  0  0  0  0  0  0  0  0  0
    3.0492    1.7574    7.0283 C   0  0  0  0  0  0  0  0  0  0  0  0
    2.8324    2.1243    8.3280 C   0  0  0  0  0  0  0  0  0  0  0  0
    2.0778    1.1870    9.0573 C   0  0  0  0  0  0  0  0  0  0  0  0
    1.7195    0.0938    8.3311 C   0  0  0  0  0  0  0  0  0  0  0  0
    0.9845   -1.1157    8.7904 C   0  0  0  0  0  0  0  0  0  0  0  0
    1.9543   -2.2511    9.1275 C   0  0  0  0  0  0  0  0  0  0  0  0
    2.3049    0.2148    6.7037 S   0  0  0  0  0  0  0  0  0  0  0  0
    5.0183    3.0998    6.4085 C   0  0  0  0  0  0  0  0  0  0  0  0
    5.7429    3.0390    7.9883 S   0  0  0  0  0  0  0  0  0  0  0  0
    2.3226    2.0595    4.0381 C   0  0  0  0  0  0  0  0  0  0  0  0
    2.2548    2.3516    2.6993 C   0  0  0  0  0  0  0  0  0  0  0  0
    3.5394    3.4331    2.2106 S   0  0  0  0  0  0  0  0  0  0  0  0
    1.2730    1.8760    1.7888 C   0  0  0  0  0  0  0  0  0  0  0  0
    1.1955    1.9547    0.4016 C   0  0  0  0  0  0  0  0  0  0  0  0
    2.1022    2.5215   -0.4802 N   0  0  0  0  0  0  0  0  0  0  0  0
    3.4758    2.2905   -0.4076 C   0  0  0  0  0  0  0  0  0  0  0  0
    3.9862    1.1461    0.2086 C   0  0  0  0  0  0  0  0  0  0  0  0
    5.3450    0.9843    0.3534 C   0  0  0  0  0  0  0  0  0  0  0  0
    6.2297    1.9476   -0.1279 C   0  0  0  0  0  0  0  0  0  0  0  0
    7.9434    1.6674    0.1783 S   0  0  0  0  0  0  0  0  0  0  0  0
    8.7771    2.8883   -0.8735 C   0  0  0  0  0  0  0  0  0  0  0  0
    5.7281    3.0634   -0.7852 C   0  0  0  0  0  0  0  0  0  0  0  0
    4.3656    3.2322   -0.9222 C   0  0  0  0  0  0  0  0  0  0  0  0
    1.5425    3.1532   -1.6068 C   0  0  0  0  0  0  0  0  0  0  0  0
    0.5045    4.0685   -1.4307 C   0  0  0  0  0  0  0  0  0  0  0  0
   -0.1339    4.6118   -2.5224 C   0  0  0  0  0  0  0  0  0  0  0  0
    0.2534    4.2543   -3.8116 C   0  0  0  0  0  0  0  0  0  0  0  0
   -0.6598    4.9609   -5.1467 S   0  0  0  0  0  0  0  0  0  0  0  0
   -0.3764    3.7842   -6.5013 C   0  0  0  0  0  0  0  0  0  0  0  0
    1.3223    3.3854   -3.9906 C   0  0  0  0  0  0  0  0  0  0  0  0
    1.9603    2.8371   -2.8957 C   0  0  0  0  0  0  0  0  0  0  0  0
    0.0044    1.3470   -0.0694 C   0  0  0  0  0  0  0  0  0  0  0  0
   -0.6629    1.1157   -1.6444 S   0  0  0  0  0  0  0  0  0  0  0  0
   -2.0116    0.2143   -0.9659 C   0  0  0  0  0  0  0  0  0  0  0  0
   -1.9666    0.1549    0.4215 C   0  0  0  0  0  0  0  0  0  0  0  0
   -2.9251   -0.3940    1.2553 N   0  0  0  0  0  0  0  0  0  0  0  0
   -2.4613   -1.0216    2.4251 C   0  0  0  0  0  0  0  0  0  0  0  0
   -1.3687   -1.8807    2.3477 C   0  0  0  0  0  0  0  0  0  0  0  0
   -0.8643   -2.4871    3.4807 C   0  0  0  0  0  0  0  0  0  0  0  0
   -1.4556   -2.2479    4.7130 C   0  0  0  0  0  0  0  0  0  0  0  0
   -0.9144   -2.9865    6.2196 S   0  0  0  0  0  0  0  0  0  0  0  0
    0.6966   -3.7083    5.7954 C   0  0  0  0  0  0  0  0  0  0  0  0
   -2.5559   -1.3960    4.7941 C   0  0  0  0  0  0  0  0  0  0  0  0
   -3.0521   -0.7840    3.6656 C   0  0  0  0  0  0  0  0  0  0  0  0
   -4.2924   -0.1965    1.0419 C   0  0  0  0  0  0  0  0  0  0  0  0
   -4.7618    0.8915    0.3104 C   0  0  0  0  0  0  0  0  0  0  0  0
   -6.1137    1.0706    0.0906 C   0  0  0  0  0  0  0  0  0  0  0  0
   -7.0315    0.1728    0.6178 C   0  0  0  0  0  0  0  0  0  0  0  0
   -8.7790    0.2836    0.4008 S   0  0  0  0  0  0  0  0  0  0  0  0
   -9.0061    1.7988   -0.5716 C   0  0  0  0  0  0  0  0  0  0  0  0
   -6.5689   -0.9064    1.3694 C   0  0  0  0  0  0  0  0  0  0  0  0
   -5.2201   -1.0977    1.5692 C   0  0  0  0  0  0  0  0  0  0  0  0
   -0.7949    0.7875    0.9105 C   0  0  0  0  0  0  0  0  0  0  0  0
   -0.1021    1.0077    2.4792 S   0  0  0  0  0  0  0  0  0  0  0  0
   -2.9241   -0.3712   -1.8897 C   0  0  0  0  0  0  0  0  0  0  0  0
   -3.7159   -1.4781   -1.7576 C   0  0  0  0  0  0  0  0  0  0  0  0
   -4.3887   -1.8406   -2.9493 C   0  0  0  0  0  0  0  0  0  0  0  0
   -5.2345   -2.9482   -3.1692 C   0  0  0  0  0  0  0  0  0  0  0  0
   -5.5866   -3.8517   -2.0922 C   0  0  0  0  0  0  0  0  0  0  0  0
   -5.9355   -3.5328   -0.8124 C   0  0  0  0  0  0  0  0  0  0  0  0
   -6.2011   -4.6730   -0.0245 C   0  0  0  0  0  0  0  0  0  0  0  0
   -6.6611   -4.5616    1.6309 Cl  0  0  0  0  0  0  0  0  0  0  0  0
   -6.0516   -5.8611   -0.6790 C   0  0  0  0  0  0  0  0  0  0  0  0
   -6.2943   -7.2416   -0.1784 C   0  0  0  0  0  0  0  0  0  0  0  0
   -7.6715   -7.7461   -0.6164 C   0  0  0  0  0  0  0  0  0  0  0  0
   -5.5863   -5.5790   -2.3207 S   0  0  0  0  0  0  0  0  0  0  0  0
   -5.6942   -3.1355   -4.4674 C   0  0  0  0  0  0  0  0  0  0  0  0
   -5.3893   -2.2497   -5.5366 C   0  0  0  0  0  0  0  0  0  0  0  0
   -4.5704   -1.1181   -5.3100 C   0  0  0  0  0  0  0  0  0  0  0  0
   -4.2541   -0.1836   -6.3683 C   0  0  0  0  0  0  0  0  0  0  0  0
   -3.0529    0.4119   -6.6467 C   0  0  0  0  0  0  0  0  0  0  0  0
   -3.0986    1.2477   -7.7775 C   0  0  0  0  0  0  0  0  0  0  0  0
   -4.3336    1.3183   -8.3500 C   0  0  0  0  0  0  0  0  0  0  0  0
   -4.7540    2.0312   -9.5877 C   0  0  0  0  0  0  0  0  0  0  0  0
   -4.9432    1.0394  -10.7389 C   0  0  0  0  0  0  0  0  0  0  0  0
   -5.4706    0.3361   -7.4992 S   0  0  0  0  0  0  0  0  0  0  0  0
   -4.0764   -0.9668   -4.0230 C   0  0  0  0  0  0  0  0  0  0  0  0
   -3.0002    0.3016   -3.5065 S   0  0  0  0  0  0  0  0  0  0  0  0
   -5.9376   -2.6787   -6.7573 C   0  0  0  0  0  0  0  0  0  0  0  0
   -6.6773   -3.8335   -6.6615 C   0  0  0  0  0  0  0  0  0  0  0  0
   -6.7062   -4.4395   -5.0037 S   0  0  0  0  0  0  0  0  0  0  0  0
   -7.3634   -4.6030   -7.6235 C   0  0  0  0  0  0  0  0  0  0  0  0
   -7.5550   -4.4347   -8.9692 C   0  0  0  0  0  0  0  0  0  0  0  0
   -7.1213   -3.3125   -9.8463 C   0  0  0  0  0  0  0  0  0  0  0  0
   -6.4763   -2.3240   -9.5623 O   0  0  0  0  0  0  0  0  0  0  0  0
   -7.6489   -3.6389  -11.1771 C   0  0  0  0  0  0  0  0  0  0  0  0
   -7.6405   -3.0748  -12.4110 C   0  0  0  0  0  0  0  0  0  0  0  0
   -8.4932   -4.0641  -13.5378 S   0  0  0  0  0  0  0  0  0  0  0  0
   -8.8614   -5.2458  -12.3365 C   0  0  0  0  0  0  0  0  0  0  0  0
   -8.3480   -4.8853  -11.1282 C   0  0  0  0  0  0  0  0  0  0  0  0
   -8.2934   -5.4017   -9.7752 C   0  0  0  0  0  0  0  0  0  0  0  0
   -8.8422   -6.6008   -9.4000 C   0  0  0  0  0  0  0  0  0  0  0  0
   -9.5183   -7.4123  -10.3357 C   0  0  0  0  0  0  0  0  0  0  0  0
  -10.0774   -8.0842  -11.0795 N   0  0  0  0  0  0  0  0  0  0  0  0
   -8.8208   -7.1926   -8.1216 C   0  0  0  0  0  0  0  0  0  0  0  0
   -8.8437   -7.7586   -7.1219 N   0  0  0  0  0  0  0  0  0  0  0  0
    7.8592    4.0727    9.3999 H   0  0  0  0  0  0  0  0  0  0  0  0
   14.8553    4.9589    6.3342 H   0  0  0  0  0  0  0  0  0  0  0  0
   15.0767    5.3025    8.7575 H   0  0  0  0  0  0  0  0  0  0  0  0
   13.1096    5.3119   10.2228 H   0  0  0  0  0  0  0  0  0  0  0  0
    7.6981    4.9654    5.6147 H   0  0  0  0  0  0  0  0  0  0  0  0
    8.3089    3.9388    3.7709 H   0  0  0  0  0  0  0  0  0  0  0  0
    8.4294    6.4904   -0.4107 H   0  0  0  0  0  0  0  0  0  0  0  0
    6.6738    6.5381   -0.6843 H   0  0  0  0  0  0  0  0  0  0  0  0
    7.5893    8.8298   -0.4092 H   0  0  0  0  0  0  0  0  0  0  0  0
    6.4825    8.4413    0.9138 H   0  0  0  0  0  0  0  0  0  0  0  0
    8.2284    8.3962    1.1796 H   0  0  0  0  0  0  0  0  0  0  0  0
    3.1710    3.0571    8.7414 H   0  0  0  0  0  0  0  0  0  0  0  0
    1.8083    1.3206   10.0898 H   0  0  0  0  0  0  0  0  0  0  0  0
    0.4040   -0.8588    9.6786 H   0  0  0  0  0  0  0  0  0  0  0  0
    0.2935   -1.4499    8.0144 H   0  0  0  0  0  0  0  0  0  0  0  0
    2.6158   -1.9563    9.9390 H   0  0  0  0  0  0  0  0  0  0  0  0
    2.5644   -2.4971    8.2609 H   0  0  0  0  0  0  0  0  0  0  0  0
    1.4022   -3.1365    9.4326 H   0  0  0  0  0  0  0  0  0  0  0  0
    1.5983    1.4293    4.5220 H   0  0  0  0  0  0  0  0  0  0  0  0
    3.3103    0.3944    0.5883 H   0  0  0  0  0  0  0  0  0  0  0  0
    5.7401    0.1096    0.8468 H   0  0  0  0  0  0  0  0  0  0  0  0
    8.5913    3.8914   -0.5032 H   0  0  0  0  0  0  0  0  0  0  0  0
    9.8362    2.6623   -0.7983 H   0  0  0  0  0  0  0  0  0  0  0  0
    8.4446    2.7746   -1.9010 H   0  0  0  0  0  0  0  0  0  0  0  0
    6.3889    3.8208   -1.1747 H   0  0  0  0  0  0  0  0  0  0  0  0
    3.9805    4.1178   -1.4046 H   0  0  0  0  0  0  0  0  0  0  0  0
    0.1936    4.3308   -0.4301 H   0  0  0  0  0  0  0  0  0  0  0  0
   -0.9473    5.3085   -2.3917 H   0  0  0  0  0  0  0  0  0  0  0  0
   -1.1110    4.0328   -7.2609 H   0  0  0  0  0  0  0  0  0  0  0  0
   -0.5422    2.7751   -6.1367 H   0  0  0  0  0  0  0  0  0  0  0  0
    0.6244    3.9009   -6.9074 H   0  0  0  0  0  0  0  0  0  0  0  0
    1.6563    3.1164   -4.9799 H   0  0  0  0  0  0  0  0  0  0  0  0
    2.7743    2.1414   -3.0366 H   0  0  0  0  0  0  0  0  0  0  0  0
   -0.9128   -2.0759    1.3876 H   0  0  0  0  0  0  0  0  0  0  0  0
   -0.0183   -3.1478    3.3853 H   0  0  0  0  0  0  0  0  0  0  0  0
    0.5679   -4.5326    5.0999 H   0  0  0  0  0  0  0  0  0  0  0  0
    1.1048   -4.0804    6.7296 H   0  0  0  0  0  0  0  0  0  0  0  0
    1.3440   -2.9378    5.3866 H   0  0  0  0  0  0  0  0  0  0  0  0
   -3.0080   -1.2128    5.7567 H   0  0  0  0  0  0  0  0  0  0  0  0
   -3.8924   -0.1106    3.7388 H   0  0  0  0  0  0  0  0  0  0  0  0
   -4.0665    1.6152   -0.0869 H   0  0  0  0  0  0  0  0  0  0  0  0
   -6.4343    1.9221   -0.4874 H   0  0  0  0  0  0  0  0  0  0  0  0
   -8.5173    1.6997   -1.5365 H   0  0  0  0  0  0  0  0  0  0  0  0
   -8.6268    2.6544   -0.0205 H   0  0  0  0  0  0  0  0  0  0  0  0
  -10.0783    1.8966   -0.7108 H   0  0  0  0  0  0  0  0  0  0  0  0
   -7.2824   -1.6034    1.7813 H   0  0  0  0  0  0  0  0  0  0  0  0
   -4.8793   -1.9551    2.1296 H   0  0  0  0  0  0  0  0  0  0  0  0
   -3.7669   -2.0567   -0.8546 H   0  0  0  0  0  0  0  0  0  0  0  0
   -6.0452   -2.5274   -0.4516 H   0  0  0  0  0  0  0  0  0  0  0  0
   -5.5244   -7.9116   -0.5667 H   0  0  0  0  0  0  0  0  0  0  0  0
   -6.2335   -7.2362    0.9118 H   0  0  0  0  0  0  0  0  0  0  0  0
   -7.8369   -8.7534   -0.2436 H   0  0  0  0  0  0  0  0  0  0  0  0
   -8.4526   -7.0976   -0.2266 H   0  0  0  0  0  0  0  0  0  0  0  0
   -7.7407   -7.7590   -1.7016 H   0  0  0  0  0  0  0  0  0  0  0  0
   -2.1554    0.2158   -6.0878 H   0  0  0  0  0  0  0  0  0  0  0  0
   -2.2420    1.7733   -8.1612 H   0  0  0  0  0  0  0  0  0  0  0  0
   -3.9940    2.7693   -9.8535 H   0  0  0  0  0  0  0  0  0  0  0  0
   -5.6956    2.5558   -9.4090 H   0  0  0  0  0  0  0  0  0  0  0  0
   -4.0013    0.5468  -10.9704 H   0  0  0  0  0  0  0  0  0  0  0  0
   -5.6687    0.2769  -10.4633 H   0  0  0  0  0  0  0  0  0  0  0  0
   -5.2944    1.5566  -11.6284 H   0  0  0  0  0  0  0  0  0  0  0  0
   -5.7905   -2.1783   -7.6953 H   0  0  0  0  0  0  0  0  0  0  0  0
   -7.8158   -5.4910   -7.1967 H   0  0  0  0  0  0  0  0  0  0  0  0
   -7.1948   -2.1544  -12.7310 H   0  0  0  0  0  0  0  0  0  0  0  0
   -9.4273   -6.1131  -12.6108 H   0  0  0  0  0  0  0  0  0  0  0  0
  1  2  2  0  0  0  0
  2  3  1  0  0  0  0
  3  4  2  0  0  0  0
  3  5  1  0  0  0  0
  5  6  2  0  0  0  0
  6  7  1  0  0  0  0
  6  8  1  0  0  0  0
  8  9  2  0  0  0  0
  9 10  1  0  0  0  0
 10 11  2  0  0  0  0
 11 12  1  0  0  0  0
 12 13  2  0  0  0  0
 13 14  1  0  0  0  0
 14 15  3  0  0  0  0
 13 16  1  0  0  0  0
 16 17  3  0  0  0  0
  1 18  1  0  0  0  0
 18 19  2  0  0  0  0
 19 20  1  0  0  0  0
 20 21  2  0  0  0  0
 21 22  1  0  0  0  0
 22 23  2  0  0  0  0
 23 24  1  0  0  0  0
 24 25  1  0  0  0  0
 24 26  2  0  0  0  0
 26 27  1  0  0  0  0
 27 28  1  0  0  0  0
 26 29  1  0  0  0  0
 21 30  1  0  0  0  0
 30 31  2  0  0  0  0
 31 32  1  0  0  0  0
 32 33  1  0  0  0  0
 33 34  2  0  0  0  0
 34 35  1  0  0  0  0
 35 36  2  0  0  0  0
 36 37  1  0  0  0  0
 37 38  1  0  0  0  0
 36 39  1  0  0  0  0
 32 40  2  0  0  0  0
 40 41  1  0  0  0  0
 31 42  1  0  0  0  0
 42 43  2  0  0  0  0
 43 44  1  0  0  0  0
 43 45  1  0  0  0  0
 45 46  2  0  0  0  0
 46 47  1  0  0  0  0
 47 48  1  0  0  0  0
 48 49  2  0  0  0  0
 49 50  1  0  0  0  0
 50 51  2  0  0  0  0
 51 52  1  0  0  0  0
 52 53  1  0  0  0  0
 51 54  1  0  0  0  0
 54 55  2  0  0  0  0
 47 56  1  0  0  0  0
 56 57  2  0  0  0  0
 57 58  1  0  0  0  0
 58 59  2  0  0  0  0
 59 60  1  0  0  0  0
 60 61  1  0  0  0  0
 59 62  1  0  0  0  0
 62 63  2  0  0  0  0
 46 64  1  0  0  0  0
 64 65  1  0  0  0  0
 65 66  1  0  0  0  0
 66 67  2  0  0  0  0
 67 68  1  0  0  0  0
 68 69  1  0  0  0  0
 69 70  2  0  0  0  0
 70 71  1  0  0  0  0
 71 72  2  0  0  0  0
 72 73  1  0  0  0  0
 73 74  1  0  0  0  0
 72 75  1  0  0  0  0
 75 76  2  0  0  0  0
 68 77  1  0  0  0  0
 77 78  2  0  0  0  0
 78 79  1  0  0  0  0
 79 80  2  0  0  0  0
 80 81  1  0  0  0  0
 81 82  1  0  0  0  0
 80 83  1  0  0  0  0
 83 84  2  0  0  0  0
 67 85  1  0  0  0  0
 85 86  1  0  0  0  0
 66 87  1  0  0  0  0
 87 88  2  0  0  0  0
 88 89  1  0  0  0  0
 89 90  2  0  0  0  0
 90 91  1  0  0  0  0
 91 92  2  0  0  0  0
 92 93  1  0  0  0  0
 93 94  1  0  0  0  0
 93 95  2  0  0  0  0
 95 96  1  0  0  0  0
 96 97  1  0  0  0  0
 95 98  1  0  0  0  0
 90 99  1  0  0  0  0
 99100  2  0  0  0  0
100101  1  0  0  0  0
101102  1  0  0  0  0
102103  2  0  0  0  0
103104  1  0  0  0  0
104105  2  0  0  0  0
105106  1  0  0  0  0
106107  1  0  0  0  0
105108  1  0  0  0  0
101109  2  0  0  0  0
109110  1  0  0  0  0
100111  1  0  0  0  0
111112  2  0  0  0  0
112113  1  0  0  0  0
112114  1  0  0  0  0
114115  2  0  0  0  0
115116  1  0  0  0  0
116117  2  0  0  0  0
116118  1  0  0  0  0
118119  2  0  0  0  0
119120  1  0  0  0  0
120121  1  0  0  0  0
121122  2  0  0  0  0
122123  1  0  0  0  0
123124  2  0  0  0  0
124125  1  0  0  0  0
125126  3  0  0  0  0
124127  1  0  0  0  0
127128  3  0  0  0  0
 12  2  1  0  0  0  0
 41 18  1  0  0  0  0
 86 45  1  0  0  0  0
110 87  1  0  0  0  0
123115  1  0  0  0  0
 11  5  1  0  0  0  0
 40 20  1  0  0  0  0
 55 48  1  0  0  0  0
 63 56  1  0  0  0  0
 85 64  2  0  0  0  0
109 89  1  0  0  0  0
122118  1  0  0  0  0
 29 22  1  0  0  0  0
 44 30  1  0  0  0  0
 76 69  1  0  0  0  0
 84 77  1  0  0  0  0
 98 91  1  0  0  0  0
113 99  1  0  0  0  0
 39 33  1  0  0  0  0
108102  1  0  0  0  0
  1129  1  0  0  0  0
  8130  1  0  0  0  0
  9131  1  0  0  0  0
 10132  1  0  0  0  0
 19133  1  0  0  0  0
 23134  1  0  0  0  0
 27135  1  0  0  0  0
 27136  1  0  0  0  0
 28137  1  0  0  0  0
 28138  1  0  0  0  0
 28139  1  0  0  0  0
 34140  1  0  0  0  0
 35141  1  0  0  0  0
 37142  1  0  0  0  0
 37143  1  0  0  0  0
 38144  1  0  0  0  0
 38145  1  0  0  0  0
 38146  1  0  0  0  0
 42147  1  0  0  0  0
 49148  1  0  0  0  0
 50149  1  0  0  0  0
 53150  1  0  0  0  0
 53151  1  0  0  0  0
 53152  1  0  0  0  0
 54153  1  0  0  0  0
 55154  1  0  0  0  0
 57155  1  0  0  0  0
 58156  1  0  0  0  0
 61157  1  0  0  0  0
 61158  1  0  0  0  0
 61159  1  0  0  0  0
 62160  1  0  0  0  0
 63161  1  0  0  0  0
 70162  1  0  0  0  0
 71163  1  0  0  0  0
 74164  1  0  0  0  0
 74165  1  0  0  0  0
 74166  1  0  0  0  0
 75167  1  0  0  0  0
 76168  1  0  0  0  0
 78169  1  0  0  0  0
 79170  1  0  0  0  0
 82171  1  0  0  0  0
 82172  1  0  0  0  0
 82173  1  0  0  0  0
 83174  1  0  0  0  0
 84175  1  0  0  0  0
 88176  1  0  0  0  0
 92177  1  0  0  0  0
 96178  1  0  0  0  0
 96179  1  0  0  0  0
 97180  1  0  0  0  0
 97181  1  0  0  0  0
 97182  1  0  0  0  0
103183  1  0  0  0  0
104184  1  0  0  0  0
106185  1  0  0  0  0
106186  1  0  0  0  0
107187  1  0  0  0  0
107188  1  0  0  0  0
107189  1  0  0  0  0
111190  1  0  0  0  0
114191  1  0  0  0  0
119192  1  0  0  0  0
121193  1  0  0  0  0
M  END
