
  xtb     02092200383D
 energy: -400.724132235803 gnorm: 0.000686912374 xtb: 6.4.1 (unknown)
232252  0     0  0            999 V2000
   -3.5362   -3.9014    8.3029 C   0  0  0  0  0  0  0  0  0  0  0  0
   -2.6327   -4.6755    8.9736 C   0  0  0  0  0  0  0  0  0  0  0  0
   -2.9248   -5.0287   10.3914 C   0  0  0  0  0  0  0  0  0  0  0  0
   -3.7513   -4.5101   11.1038 O   0  0  0  0  0  0  0  0  0  0  0  0
   -2.0315   -6.1659   10.6978 C   0  0  0  0  0  0  0  0  0  0  0  0
   -1.9627   -6.9671   11.8259 C   0  0  0  0  0  0  0  0  0  0  0  0
   -2.9842   -6.6828   13.1744 Cl  0  0  0  0  0  0  0  0  0  0  0  0
   -1.0446   -8.0159   11.8490 C   0  0  0  0  0  0  0  0  0  0  0  0
   -0.2259   -8.2502   10.7587 C   0  0  0  0  0  0  0  0  0  0  0  0
   -0.2777   -7.4489    9.6238 C   0  0  0  0  0  0  0  0  0  0  0  0
   -1.1799   -6.4004    9.6005 C   0  0  0  0  0  0  0  0  0  0  0  0
   -1.4350   -5.3795    8.5823 C   0  0  0  0  0  0  0  0  0  0  0  0
   -0.5419   -5.0329    7.5993 C   0  0  0  0  0  0  0  0  0  0  0  0
   -0.6329   -3.8739    6.8029 C   0  0  0  0  0  0  0  0  0  0  0  0
   -0.5959   -2.9288    6.1521 N   0  0  0  0  0  0  0  0  0  0  0  0
    0.6372   -5.7419    7.2993 C   0  0  0  0  0  0  0  0  0  0  0  0
    1.6007   -6.2739    6.9707 N   0  0  0  0  0  0  0  0  0  0  0  0
   -3.6952   -3.7342    6.9116 C   0  0  0  0  0  0  0  0  0  0  0  0
   -3.1616   -4.4887    5.8941 C   0  0  0  0  0  0  0  0  0  0  0  0
   -3.5019   -4.0434    4.6072 C   0  0  0  0  0  0  0  0  0  0  0  0
   -2.9638   -4.5043    3.3870 C   0  0  0  0  0  0  0  0  0  0  0  0
   -1.9188   -5.5360    3.4215 C   0  0  0  0  0  0  0  0  0  0  0  0
   -2.1400   -6.7793    4.0114 C   0  0  0  0  0  0  0  0  0  0  0  0
   -1.1031   -7.6723    4.1699 C   0  0  0  0  0  0  0  0  0  0  0  0
    0.1932   -7.3638    3.7548 C   0  0  0  0  0  0  0  0  0  0  0  0
    1.4338   -8.5786    4.0443 S   0  0  0  0  0  0  0  0  0  0  0  0
    2.9726   -7.6040    4.2821 C   0  0  0  0  0  0  0  0  0  0  0  0
    3.9309   -8.4091    5.1359 C   0  0  0  0  0  0  0  0  0  0  0  0
    0.3838   -6.1400    3.1179 C   0  0  0  0  0  0  0  0  0  0  0  0
    1.5977   -5.7874    2.6396 F   0  0  0  0  0  0  0  0  0  0  0  0
   -0.6451   -5.2348    2.9544 C   0  0  0  0  0  0  0  0  0  0  0  0
   -3.3543   -3.8316    2.2486 C   0  0  0  0  0  0  0  0  0  0  0  0
   -4.2864   -2.7612    2.2803 C   0  0  0  0  0  0  0  0  0  0  0  0
   -4.7897   -2.2754    3.4997 C   0  0  0  0  0  0  0  0  0  0  0  0
   -5.6122   -1.0539    3.4649 C   0  0  0  0  0  0  0  0  0  0  0  0
   -6.8456   -1.0397    2.8186 C   0  0  0  0  0  0  0  0  0  0  0  0
   -7.5275    0.1445    2.6476 C   0  0  0  0  0  0  0  0  0  0  0  0
   -6.9950    1.3639    3.0692 C   0  0  0  0  0  0  0  0  0  0  0  0
   -7.9021    2.7977    2.5795 S   0  0  0  0  0  0  0  0  0  0  0  0
   -7.5089    4.1048    3.7949 C   0  0  0  0  0  0  0  0  0  0  0  0
   -7.9318    3.7257    5.1992 C   0  0  0  0  0  0  0  0  0  0  0  0
   -5.7751    1.3260    3.7368 C   0  0  0  0  0  0  0  0  0  0  0  0
   -5.0993    0.1403    3.9531 C   0  0  0  0  0  0  0  0  0  0  0  0
   -5.1805    2.4572    4.1773 F   0  0  0  0  0  0  0  0  0  0  0  0
   -4.3642   -2.9135    4.6467 C   0  0  0  0  0  0  0  0  0  0  0  0
   -4.7315   -2.4566    6.2852 S   0  0  0  0  0  0  0  0  0  0  0  0
   -4.4653   -2.1667    1.0158 C   0  0  0  0  0  0  0  0  0  0  0  0
   -3.6632   -2.6983    0.0383 C   0  0  0  0  0  0  0  0  0  0  0  0
   -2.7454   -4.0758    0.6316 S   0  0  0  0  0  0  0  0  0  0  0  0
   -3.3026   -2.0828   -1.1888 C   0  0  0  0  0  0  0  0  0  0  0  0
   -3.6961   -0.8068   -1.6112 C   0  0  0  0  0  0  0  0  0  0  0  0
   -4.8893   -0.1973   -1.2842 N   0  0  0  0  0  0  0  0  0  0  0  0
   -6.1021   -0.8887   -1.3508 C   0  0  0  0  0  0  0  0  0  0  0  0
   -7.2236   -0.4015   -0.6815 C   0  0  0  0  0  0  0  0  0  0  0  0
   -8.4341   -1.0635   -0.7466 C   0  0  0  0  0  0  0  0  0  0  0  0
   -8.5514   -2.2361   -1.4776 C   0  0  0  0  0  0  0  0  0  0  0  0
  -10.0380   -3.1766   -1.6248 S   0  0  0  0  0  0  0  0  0  0  0  0
  -11.2369   -2.2606   -0.6154 C   0  0  0  0  0  0  0  0  0  0  0  0
   -7.4355   -2.7243   -2.1553 C   0  0  0  0  0  0  0  0  0  0  0  0
   -6.2317   -2.0616   -2.0984 C   0  0  0  0  0  0  0  0  0  0  0  0
   -4.9162    1.1616   -0.8656 C   0  0  0  0  0  0  0  0  0  0  0  0
   -4.3880    1.5139    0.3733 C   0  0  0  0  0  0  0  0  0  0  0  0
   -4.5385    2.7974    0.8499 C   0  0  0  0  0  0  0  0  0  0  0  0
   -5.2382    3.7449    0.1070 C   0  0  0  0  0  0  0  0  0  0  0  0
   -5.5078    5.3022    0.8785 S   0  0  0  0  0  0  0  0  0  0  0  0
   -6.7036    6.1283   -0.2047 C   0  0  0  0  0  0  0  0  0  0  0  0
   -5.7136    3.4126   -1.1550 C   0  0  0  0  0  0  0  0  0  0  0  0
   -5.5529    2.1267   -1.6351 C   0  0  0  0  0  0  0  0  0  0  0  0
   -2.6988   -0.2371   -2.4353 C   0  0  0  0  0  0  0  0  0  0  0  0
   -2.3186    1.3826   -2.9252 S   0  0  0  0  0  0  0  0  0  0  0  0
   -0.7479    0.8593   -3.4803 C   0  0  0  0  0  0  0  0  0  0  0  0
   -0.5952   -0.5202   -3.4440 C   0  0  0  0  0  0  0  0  0  0  0  0
    0.5068   -1.2105   -3.9951 N   0  0  0  0  0  0  0  0  0  0  0  0
    1.7045   -1.3078   -3.2930 C   0  0  0  0  0  0  0  0  0  0  0  0
    2.7990   -2.0299   -3.7799 C   0  0  0  0  0  0  0  0  0  0  0  0
    4.0010   -2.0240   -3.1063 C   0  0  0  0  0  0  0  0  0  0  0  0
    4.1437   -1.3248   -1.9100 C   0  0  0  0  0  0  0  0  0  0  0  0
    5.7508   -1.2804   -1.1645 S   0  0  0  0  0  0  0  0  0  0  0  0
    5.4466   -0.5639    0.4737 C   0  0  0  0  0  0  0  0  0  0  0  0
    3.0331   -0.7019   -1.3665 C   0  0  0  0  0  0  0  0  0  0  0  0
    1.8302   -0.7052   -2.0429 C   0  0  0  0  0  0  0  0  0  0  0  0
    0.3776   -1.5027   -5.3672 C   0  0  0  0  0  0  0  0  0  0  0  0
    1.4010   -1.2604   -6.2853 C   0  0  0  0  0  0  0  0  0  0  0  0
    1.2205   -1.5403   -7.6198 C   0  0  0  0  0  0  0  0  0  0  0  0
    0.0112   -2.0454   -8.0887 C   0  0  0  0  0  0  0  0  0  0  0  0
   -0.0952   -2.3408   -9.8277 S   0  0  0  0  0  0  0  0  0  0  0  0
   -1.7314   -3.0883  -10.0492 C   0  0  0  0  0  0  0  0  0  0  0  0
   -1.0189   -2.2688   -7.1880 C   0  0  0  0  0  0  0  0  0  0  0  0
   -0.8315   -2.0036   -5.8446 C   0  0  0  0  0  0  0  0  0  0  0  0
   -1.6761   -1.1180   -2.7720 C   0  0  0  0  0  0  0  0  0  0  0  0
   -1.8906   -2.6713   -2.0517 S   0  0  0  0  0  0  0  0  0  0  0  0
    0.3996    1.7252   -3.5552 C   0  0  0  0  0  0  0  0  0  0  0  0
    0.9362    2.3989   -2.4649 C   0  0  0  0  0  0  0  0  0  0  0  0
    0.2092    2.7350   -1.3051 N   0  0  0  0  0  0  0  0  0  0  0  0
    0.1510    1.7968   -0.2423 C   0  0  0  0  0  0  0  0  0  0  0  0
   -1.0668    1.2047    0.0959 C   0  0  0  0  0  0  0  0  0  0  0  0
   -1.1194    0.2078    1.0397 C   0  0  0  0  0  0  0  0  0  0  0  0
    0.0333   -0.2051    1.7042 C   0  0  0  0  0  0  0  0  0  0  0  0
   -0.1983   -1.5252    2.8506 S   0  0  0  0  0  0  0  0  0  0  0  0
    1.4087   -1.7104    3.6639 C   0  0  0  0  0  0  0  0  0  0  0  0
    1.2333    0.4367    1.4311 C   0  0  0  0  0  0  0  0  0  0  0  0
    1.2897    1.4287    0.4642 C   0  0  0  0  0  0  0  0  0  0  0  0
   -0.7094    3.7799   -1.3671 C   0  0  0  0  0  0  0  0  0  0  0  0
   -1.0228    4.4169   -2.5695 C   0  0  0  0  0  0  0  0  0  0  0  0
   -1.8953    5.4835   -2.5922 C   0  0  0  0  0  0  0  0  0  0  0  0
   -2.4728    5.9479   -1.4184 C   0  0  0  0  0  0  0  0  0  0  0  0
   -3.5911    7.3178   -1.5393 S   0  0  0  0  0  0  0  0  0  0  0  0
   -3.3618    8.1537    0.0586 C   0  0  0  0  0  0  0  0  0  0  0  0
   -2.1665    5.3257   -0.2169 C   0  0  0  0  0  0  0  0  0  0  0  0
   -1.2918    4.2603   -0.1926 C   0  0  0  0  0  0  0  0  0  0  0  0
    2.3040    2.6801   -2.6765 C   0  0  0  0  0  0  0  0  0  0  0  0
    3.6017    3.0962   -1.6200 S   0  0  0  0  0  0  0  0  0  0  0  0
    4.7705    2.8553   -2.9179 C   0  0  0  0  0  0  0  0  0  0  0  0
    4.1526    2.3950   -4.1077 C   0  0  0  0  0  0  0  0  0  0  0  0
    4.8012    1.9956   -5.2435 N   0  0  0  0  0  0  0  0  0  0  0  0
    4.1175    1.9917   -6.4709 C   0  0  0  0  0  0  0  0  0  0  0  0
    4.2786    0.9334   -7.3608 C   0  0  0  0  0  0  0  0  0  0  0  0
    3.6062    0.9193   -8.5667 C   0  0  0  0  0  0  0  0  0  0  0  0
    2.7476    1.9601   -8.8990 C   0  0  0  0  0  0  0  0  0  0  0  0
    1.8108    2.0409  -10.3862 S   0  0  0  0  0  0  0  0  0  0  0  0
    2.1765    0.4819  -11.2391 C   0  0  0  0  0  0  0  0  0  0  0  0
    2.6051    3.0338   -8.0198 C   0  0  0  0  0  0  0  0  0  0  0  0
    3.2858    3.0558   -6.8246 C   0  0  0  0  0  0  0  0  0  0  0  0
    6.1097    1.4653   -5.2056 C   0  0  0  0  0  0  0  0  0  0  0  0
    6.4697    0.5558   -4.2110 C   0  0  0  0  0  0  0  0  0  0  0  0
    7.7727    0.1310   -4.1054 C   0  0  0  0  0  0  0  0  0  0  0  0
    8.7381    0.5881   -5.0046 C   0  0  0  0  0  0  0  0  0  0  0  0
   10.3953    0.0606   -4.7196 S   0  0  0  0  0  0  0  0  0  0  0  0
   11.3818    1.1561   -5.7778 C   0  0  0  0  0  0  0  0  0  0  0  0
    8.3583    1.4159   -6.0528 C   0  0  0  0  0  0  0  0  0  0  0  0
    7.0518    1.8577   -6.1489 C   0  0  0  0  0  0  0  0  0  0  0  0
    2.7628    2.2933   -3.9329 C   0  0  0  0  0  0  0  0  0  0  0  0
    1.5083    1.5811   -4.8889 S   0  0  0  0  0  0  0  0  0  0  0  0
    6.1374    3.1049   -2.8000 C   0  0  0  0  0  0  0  0  0  0  0  0
    6.9355    3.1755   -1.6803 C   0  0  0  0  0  0  0  0  0  0  0  0
    6.5103    2.8894   -0.3099 C   0  0  0  0  0  0  0  0  0  0  0  0
    5.3708    2.7805    0.1094 O   0  0  0  0  0  0  0  0  0  0  0  0
    7.7521    2.7204    0.4707 C   0  0  0  0  0  0  0  0  0  0  0  0
    7.9285    2.3923    1.8034 C   0  0  0  0  0  0  0  0  0  0  0  0
    6.5824    2.1042    2.8321 Cl  0  0  0  0  0  0  0  0  0  0  0  0
    9.2240    2.2955    2.3072 C   0  0  0  0  0  0  0  0  0  0  0  0
   10.3085    2.5230    1.4795 C   0  0  0  0  0  0  0  0  0  0  0  0
   10.1459    2.8496    0.1373 C   0  0  0  0  0  0  0  0  0  0  0  0
    8.8615    2.9462   -0.3665 C   0  0  0  0  0  0  0  0  0  0  0  0
    8.3734    3.2668   -1.7082 C   0  0  0  0  0  0  0  0  0  0  0  0
    9.1647    3.5840   -2.7845 C   0  0  0  0  0  0  0  0  0  0  0  0
   10.5731    3.5515   -2.7830 C   0  0  0  0  0  0  0  0  0  0  0  0
   11.7173    3.5292   -2.8815 N   0  0  0  0  0  0  0  0  0  0  0  0
    8.6980    4.0042   -4.0447 C   0  0  0  0  0  0  0  0  0  0  0  0
    8.4184    4.3775   -5.0957 N   0  0  0  0  0  0  0  0  0  0  0  0
   -4.2695   -3.4092    8.9341 H   0  0  0  0  0  0  0  0  0  0  0  0
   -0.9832   -8.6430   12.7240 H   0  0  0  0  0  0  0  0  0  0  0  0
    0.4710   -9.0737   10.7902 H   0  0  0  0  0  0  0  0  0  0  0  0
    0.3654   -7.6576    8.7845 H   0  0  0  0  0  0  0  0  0  0  0  0
   -2.5652   -5.3657    6.0652 H   0  0  0  0  0  0  0  0  0  0  0  0
   -3.1328   -7.0440    4.3447 H   0  0  0  0  0  0  0  0  0  0  0  0
   -1.2721   -8.6307    4.6364 H   0  0  0  0  0  0  0  0  0  0  0  0
    2.6896   -6.6831    4.7878 H   0  0  0  0  0  0  0  0  0  0  0  0
    3.3951   -7.3859    3.3022 H   0  0  0  0  0  0  0  0  0  0  0  0
    3.4968   -8.5894    6.1161 H   0  0  0  0  0  0  0  0  0  0  0  0
    4.8587   -7.8553    5.2614 H   0  0  0  0  0  0  0  0  0  0  0  0
    4.1545   -9.3662    4.6695 H   0  0  0  0  0  0  0  0  0  0  0  0
   -0.4389   -4.2854    2.4861 H   0  0  0  0  0  0  0  0  0  0  0  0
   -7.2636   -1.9622    2.4446 H   0  0  0  0  0  0  0  0  0  0  0  0
   -8.4859    0.1555    2.1529 H   0  0  0  0  0  0  0  0  0  0  0  0
   -6.4494    4.3400    3.7273 H   0  0  0  0  0  0  0  0  0  0  0  0
   -8.0816    4.9575    3.4289 H   0  0  0  0  0  0  0  0  0  0  0  0
   -7.7544    4.5630    5.8708 H   0  0  0  0  0  0  0  0  0  0  0  0
   -8.9902    3.4738    5.2253 H   0  0  0  0  0  0  0  0  0  0  0  0
   -7.3637    2.8718    5.5612 H   0  0  0  0  0  0  0  0  0  0  0  0
   -4.1460    0.1686    4.4583 H   0  0  0  0  0  0  0  0  0  0  0  0
   -5.1149   -1.3269    0.8689 H   0  0  0  0  0  0  0  0  0  0  0  0
   -7.1533    0.5049   -0.0996 H   0  0  0  0  0  0  0  0  0  0  0  0
   -9.2765   -0.6485   -0.2177 H   0  0  0  0  0  0  0  0  0  0  0  0
  -12.1635   -2.8222   -0.6831 H   0  0  0  0  0  0  0  0  0  0  0  0
  -10.9030   -2.2246    0.4175 H   0  0  0  0  0  0  0  0  0  0  0  0
  -11.3806   -1.2632   -1.0206 H   0  0  0  0  0  0  0  0  0  0  0  0
   -7.5289   -3.6298   -2.7349 H   0  0  0  0  0  0  0  0  0  0  0  0
   -5.3874   -2.4519   -2.6448 H   0  0  0  0  0  0  0  0  0  0  0  0
   -3.8999    0.7683    0.9810 H   0  0  0  0  0  0  0  0  0  0  0  0
   -4.1457    3.0688    1.8173 H   0  0  0  0  0  0  0  0  0  0  0  0
   -6.2320    6.3844   -1.1493 H   0  0  0  0  0  0  0  0  0  0  0  0
   -7.5686    5.4865   -0.3430 H   0  0  0  0  0  0  0  0  0  0  0  0
   -6.9940    7.0357    0.3159 H   0  0  0  0  0  0  0  0  0  0  0  0
   -6.2185    4.1409   -1.7680 H   0  0  0  0  0  0  0  0  0  0  0  0
   -5.9489    1.8586   -2.6032 H   0  0  0  0  0  0  0  0  0  0  0  0
    2.7062   -2.6141   -4.6813 H   0  0  0  0  0  0  0  0  0  0  0  0
    4.8455   -2.5659   -3.5043 H   0  0  0  0  0  0  0  0  0  0  0  0
    4.7153   -1.1678    1.0031 H   0  0  0  0  0  0  0  0  0  0  0  0
    5.1206    0.4689    0.3846 H   0  0  0  0  0  0  0  0  0  0  0  0
    6.4013   -0.6047    0.9899 H   0  0  0  0  0  0  0  0  0  0  0  0
    3.0867   -0.2002   -0.4171 H   0  0  0  0  0  0  0  0  0  0  0  0
    0.9766   -0.2318   -1.5841 H   0  0  0  0  0  0  0  0  0  0  0  0
    2.3371   -0.8330   -5.9646 H   0  0  0  0  0  0  0  0  0  0  0  0
    2.0225   -1.3578   -8.3169 H   0  0  0  0  0  0  0  0  0  0  0  0
   -1.8041   -3.3268  -11.1058 H   0  0  0  0  0  0  0  0  0  0  0  0
   -2.5054   -2.3761   -9.7780 H   0  0  0  0  0  0  0  0  0  0  0  0
   -1.8035   -3.9973   -9.4590 H   0  0  0  0  0  0  0  0  0  0  0  0
   -1.9728   -2.6527   -7.5122 H   0  0  0  0  0  0  0  0  0  0  0  0
   -1.6420   -2.1946   -5.1577 H   0  0  0  0  0  0  0  0  0  0  0  0
   -1.9721    1.5408   -0.3830 H   0  0  0  0  0  0  0  0  0  0  0  0
   -2.0519   -0.2824    1.2779 H   0  0  0  0  0  0  0  0  0  0  0  0
    1.7238   -0.7560    4.0744 H   0  0  0  0  0  0  0  0  0  0  0  0
    2.1396   -2.1065    2.9643 H   0  0  0  0  0  0  0  0  0  0  0  0
    1.2380   -2.4175    4.4706 H   0  0  0  0  0  0  0  0  0  0  0  0
    2.1341    0.1744    1.9639 H   0  0  0  0  0  0  0  0  0  0  0  0
    2.2264    1.9240    0.2586 H   0  0  0  0  0  0  0  0  0  0  0  0
   -0.5782    4.0876   -3.4960 H   0  0  0  0  0  0  0  0  0  0  0  0
   -2.1317    5.9687   -3.5269 H   0  0  0  0  0  0  0  0  0  0  0  0
   -3.8733    7.6087    0.8467 H   0  0  0  0  0  0  0  0  0  0  0  0
   -2.2994    8.2359    0.2651 H   0  0  0  0  0  0  0  0  0  0  0  0
   -3.7996    9.1406   -0.0535 H   0  0  0  0  0  0  0  0  0  0  0  0
   -2.6022    5.6665    0.7086 H   0  0  0  0  0  0  0  0  0  0  0  0
   -1.0479    3.7985    0.7518 H   0  0  0  0  0  0  0  0  0  0  0  0
    4.9328    0.1141   -7.1009 H   0  0  0  0  0  0  0  0  0  0  0  0
    3.7596    0.0903   -9.2384 H   0  0  0  0  0  0  0  0  0  0  0  0
    3.2387    0.4135  -11.4544 H   0  0  0  0  0  0  0  0  0  0  0  0
    1.8294   -0.3592  -10.6459 H   0  0  0  0  0  0  0  0  0  0  0  0
    1.6170    0.5244  -12.1684 H   0  0  0  0  0  0  0  0  0  0  0  0
    1.9582    3.8526   -8.2939 H   0  0  0  0  0  0  0  0  0  0  0  0
    3.1857    3.9008   -6.1599 H   0  0  0  0  0  0  0  0  0  0  0  0
    5.7289    0.2075   -3.5092 H   0  0  0  0  0  0  0  0  0  0  0  0
    8.0559   -0.5532   -3.3207 H   0  0  0  0  0  0  0  0  0  0  0  0
   11.2450    0.8950   -6.8232 H   0  0  0  0  0  0  0  0  0  0  0  0
   12.4140    0.9883   -5.4872 H   0  0  0  0  0  0  0  0  0  0  0  0
   11.1110    2.1903   -5.5869 H   0  0  0  0  0  0  0  0  0  0  0  0
    9.0737    1.7513   -6.7850 H   0  0  0  0  0  0  0  0  0  0  0  0
    6.7703    2.5356   -6.9399 H   0  0  0  0  0  0  0  0  0  0  0  0
    6.6548    3.1823   -3.7471 H   0  0  0  0  0  0  0  0  0  0  0  0
    9.3704    2.0418    3.3451 H   0  0  0  0  0  0  0  0  0  0  0  0
   11.3056    2.4434    1.8847 H   0  0  0  0  0  0  0  0  0  0  0  0
   11.0099    3.0167   -0.4842 H   0  0  0  0  0  0  0  0  0  0  0  0
  1  2  2  0  0  0  0
  2  3  1  0  0  0  0
  3  4  2  0  0  0  0
  3  5  1  0  0  0  0
  5  6  2  0  0  0  0
  6  7  1  0  0  0  0
  6  8  1  0  0  0  0
  8  9  2  0  0  0  0
  9 10  1  0  0  0  0
 10 11  2  0  0  0  0
 11 12  1  0  0  0  0
 12 13  2  0  0  0  0
 13 14  1  0  0  0  0
 14 15  3  0  0  0  0
 13 16  1  0  0  0  0
 16 17  3  0  0  0  0
  1 18  1  0  0  0  0
 18 19  2  0  0  0  0
 19 20  1  0  0  0  0
 20 21  2  0  0  0  0
 21 22  1  0  0  0  0
 22 23  2  0  0  0  0
 23 24  1  0  0  0  0
 24 25  2  0  0  0  0
 25 26  1  0  0  0  0
 26 27  1  0  0  0  0
 27 28  1  0  0  0  0
 25 29  1  0  0  0  0
 29 30  1  0  0  0  0
 29 31  2  0  0  0  0
 21 32  1  0  0  0  0
 32 33  2  0  0  0  0
 33 34  1  0  0  0  0
 34 35  1  0  0  0  0
 35 36  2  0  0  0  0
 36 37  1  0  0  0  0
 37 38  2  0  0  0  0
 38 39  1  0  0  0  0
 39 40  1  0  0  0  0
 40 41  1  0  0  0  0
 38 42  1  0  0  0  0
 42 43  2  0  0  0  0
 42 44  1  0  0  0  0
 34 45  2  0  0  0  0
 45 46  1  0  0  0  0
 33 47  1  0  0  0  0
 47 48  2  0  0  0  0
 48 49  1  0  0  0  0
 48 50  1  0  0  0  0
 50 51  2  0  0  0  0
 51 52  1  0  0  0  0
 52 53  1  0  0  0  0
 53 54  2  0  0  0  0
 54 55  1  0  0  0  0
 55 56  2  0  0  0  0
 56 57  1  0  0  0  0
 57 58  1  0  0  0  0
 56 59  1  0  0  0  0
 59 60  2  0  0  0  0
 52 61  1  0  0  0  0
 61 62  2  0  0  0  0
 62 63  1  0  0  0  0
 63 64  2  0  0  0  0
 64 65  1  0  0  0  0
 65 66  1  0  0  0  0
 64 67  1  0  0  0  0
 67 68  2  0  0  0  0
 51 69  1  0  0  0  0
 69 70  1  0  0  0  0
 70 71  1  0  0  0  0
 71 72  2  0  0  0  0
 72 73  1  0  0  0  0
 73 74  1  0  0  0  0
 74 75  2  0  0  0  0
 75 76  1  0  0  0  0
 76 77  2  0  0  0  0
 77 78  1  0  0  0  0
 78 79  1  0  0  0  0
 77 80  1  0  0  0  0
 80 81  2  0  0  0  0
 73 82  1  0  0  0  0
 82 83  2  0  0  0  0
 83 84  1  0  0  0  0
 84 85  2  0  0  0  0
 85 86  1  0  0  0  0
 86 87  1  0  0  0  0
 85 88  1  0  0  0  0
 88 89  2  0  0  0  0
 72 90  1  0  0  0  0
 90 91  1  0  0  0  0
 71 92  1  0  0  0  0
 92 93  2  0  0  0  0
 93 94  1  0  0  0  0
 94 95  1  0  0  0  0
 95 96  2  0  0  0  0
 96 97  1  0  0  0  0
 97 98  2  0  0  0  0
 98 99  1  0  0  0  0
 99100  1  0  0  0  0
 98101  1  0  0  0  0
101102  2  0  0  0  0
 94103  1  0  0  0  0
103104  2  0  0  0  0
104105  1  0  0  0  0
105106  2  0  0  0  0
106107  1  0  0  0  0
107108  1  0  0  0  0
106109  1  0  0  0  0
109110  2  0  0  0  0
 93111  1  0  0  0  0
111112  1  0  0  0  0
112113  1  0  0  0  0
113114  2  0  0  0  0
114115  1  0  0  0  0
115116  1  0  0  0  0
116117  2  0  0  0  0
117118  1  0  0  0  0
118119  2  0  0  0  0
119120  1  0  0  0  0
120121  1  0  0  0  0
119122  1  0  0  0  0
122123  2  0  0  0  0
115124  1  0  0  0  0
124125  2  0  0  0  0
125126  1  0  0  0  0
126127  2  0  0  0  0
127128  1  0  0  0  0
128129  1  0  0  0  0
127130  1  0  0  0  0
130131  2  0  0  0  0
114132  1  0  0  0  0
132133  1  0  0  0  0
113134  1  0  0  0  0
134135  2  0  0  0  0
135136  1  0  0  0  0
136137  2  0  0  0  0
136138  1  0  0  0  0
138139  2  0  0  0  0
139140  1  0  0  0  0
139141  1  0  0  0  0
141142  2  0  0  0  0
142143  1  0  0  0  0
143144  2  0  0  0  0
144145  1  0  0  0  0
145146  2  0  0  0  0
146147  1  0  0  0  0
147148  3  0  0  0  0
146149  1  0  0  0  0
149150  3  0  0  0  0
 12  2  1  0  0  0  0
 46 18  1  0  0  0  0
 91 50  1  0  0  0  0
133 92  1  0  0  0  0
145135  1  0  0  0  0
 11  5  1  0  0  0  0
 45 20  1  0  0  0  0
 60 53  1  0  0  0  0
 68 61  1  0  0  0  0
 90 69  2  0  0  0  0
102 95  1  0  0  0  0
110103  1  0  0  0  0
132111  2  0  0  0  0
144138  1  0  0  0  0
 31 22  1  0  0  0  0
 49 32  1  0  0  0  0
 81 74  1  0  0  0  0
 89 82  1  0  0  0  0
123116  1  0  0  0  0
131124  1  0  0  0  0
 43 35  1  0  0  0  0
  1151  1  0  0  0  0
  8152  1  0  0  0  0
  9153  1  0  0  0  0
 10154  1  0  0  0  0
 19155  1  0  0  0  0
 23156  1  0  0  0  0
 24157  1  0  0  0  0
 27158  1  0  0  0  0
 27159  1  0  0  0  0
 28160  1  0  0  0  0
 28161  1  0  0  0  0
 28162  1  0  0  0  0
 31163  1  0  0  0  0
 36164  1  0  0  0  0
 37165  1  0  0  0  0
 40166  1  0  0  0  0
 40167  1  0  0  0  0
 41168  1  0  0  0  0
 41169  1  0  0  0  0
 41170  1  0  0  0  0
 43171  1  0  0  0  0
 47172  1  0  0  0  0
 54173  1  0  0  0  0
 55174  1  0  0  0  0
 58175  1  0  0  0  0
 58176  1  0  0  0  0
 58177  1  0  0  0  0
 59178  1  0  0  0  0
 60179  1  0  0  0  0
 62180  1  0  0  0  0
 63181  1  0  0  0  0
 66182  1  0  0  0  0
 66183  1  0  0  0  0
 66184  1  0  0  0  0
 67185  1  0  0  0  0
 68186  1  0  0  0  0
 75187  1  0  0  0  0
 76188  1  0  0  0  0
 79189  1  0  0  0  0
 79190  1  0  0  0  0
 79191  1  0  0  0  0
 80192  1  0  0  0  0
 81193  1  0  0  0  0
 83194  1  0  0  0  0
 84195  1  0  0  0  0
 87196  1  0  0  0  0
 87197  1  0  0  0  0
 87198  1  0  0  0  0
 88199  1  0  0  0  0
 89200  1  0  0  0  0
 96201  1  0  0  0  0
 97202  1  0  0  0  0
100203  1  0  0  0  0
100204  1  0  0  0  0
100205  1  0  0  0  0
101206  1  0  0  0  0
102207  1  0  0  0  0
104208  1  0  0  0  0
105209  1  0  0  0  0
108210  1  0  0  0  0
108211  1  0  0  0  0
108212  1  0  0  0  0
109213  1  0  0  0  0
110214  1  0  0  0  0
117215  1  0  0  0  0
118216  1  0  0  0  0
121217  1  0  0  0  0
121218  1  0  0  0  0
121219  1  0  0  0  0
122220  1  0  0  0  0
123221  1  0  0  0  0
125222  1  0  0  0  0
126223  1  0  0  0  0
129224  1  0  0  0  0
129225  1  0  0  0  0
129226  1  0  0  0  0
130227  1  0  0  0  0
131228  1  0  0  0  0
134229  1  0  0  0  0
141230  1  0  0  0  0
142231  1  0  0  0  0
143232  1  0  0  0  0
M  END
