232

C         -3.53620       -3.90140        8.30290
C         -2.63270       -4.67550        8.97360
C         -2.92480       -5.02870       10.39140
O         -3.75130       -4.51010       11.10380
C         -2.03150       -6.16590       10.69780
C         -1.96270       -6.96710       11.82590
Cl        -2.98420       -6.68280       13.17440
C         -1.04460       -8.01590       11.84900
C         -0.22590       -8.25020       10.75870
C         -0.27770       -7.44890        9.62380
C         -1.17990       -6.40040        9.60050
C         -1.43500       -5.37950        8.58230
C         -0.54190       -5.03290        7.59930
C         -0.63290       -3.87390        6.80290
N         -0.59590       -2.92880        6.15210
C          0.63720       -5.74190        7.29930
N          1.60070       -6.27390        6.97070
C         -3.69520       -3.73420        6.91160
C         -3.16160       -4.48870        5.89410
C         -3.50190       -4.04340        4.60720
C         -2.96380       -4.50430        3.38700
C         -1.91880       -5.53600        3.42150
C         -2.14000       -6.77930        4.01140
C         -1.10310       -7.67230        4.16990
C          0.19320       -7.36380        3.75480
S          1.43380       -8.57860        4.04430
C          2.97260       -7.60400        4.28210
C          3.93090       -8.40910        5.13590
C          0.38380       -6.14000        3.11790
F          1.59770       -5.78740        2.63960
C         -0.64510       -5.23480        2.95440
C         -3.35430       -3.83160        2.24860
C         -4.28640       -2.76120        2.28030
C         -4.78970       -2.27540        3.49970
C         -5.61220       -1.05390        3.46490
C         -6.84560       -1.03970        2.81860
C         -7.52750        0.14450        2.64760
C         -6.99500        1.36390        3.06920
S         -7.90210        2.79770        2.57950
C         -7.50890        4.10480        3.79490
C         -7.93180        3.72570        5.19920
C         -5.77510        1.32600        3.73680
C         -5.09930        0.14030        3.95310
F         -5.18050        2.45720        4.17730
C         -4.36420       -2.91350        4.64670
S         -4.73150       -2.45660        6.28520
C         -4.46530       -2.16670        1.01580
C         -3.66320       -2.69830        0.03830
S         -2.74540       -4.07580        0.63160
C         -3.30260       -2.08280       -1.18880
C         -3.69610       -0.80680       -1.61120
N         -4.88930       -0.19730       -1.28420
C         -6.10210       -0.88870       -1.35080
C         -7.22360       -0.40150       -0.68150
C         -8.43410       -1.06350       -0.74660
C         -8.55140       -2.23610       -1.47760
S        -10.03800       -3.17660       -1.62480
C        -11.23690       -2.26060       -0.61540
C         -7.43550       -2.72430       -2.15530
C         -6.23170       -2.06160       -2.09840
C         -4.91620        1.16160       -0.86560
C         -4.38800        1.51390        0.37330
C         -4.53850        2.79740        0.84990
C         -5.23820        3.74490        0.10700
S         -5.50780        5.30220        0.87850
C         -6.70360        6.12830       -0.20470
C         -5.71360        3.41260       -1.15500
C         -5.55290        2.12670       -1.63510
C         -2.69880       -0.23710       -2.43530
S         -2.31860        1.38260       -2.92520
C         -0.74790        0.85930       -3.48030
C         -0.59520       -0.52020       -3.44400
N          0.50680       -1.21050       -3.99510
C          1.70450       -1.30780       -3.29300
C          2.79900       -2.02990       -3.77990
C          4.00100       -2.02400       -3.10630
C          4.14370       -1.32480       -1.91000
S          5.75080       -1.28040       -1.16450
C          5.44660       -0.56390        0.47370
C          3.03310       -0.70190       -1.36650
C          1.83020       -0.70520       -2.04290
C          0.37760       -1.50270       -5.36720
C          1.40100       -1.26040       -6.28530
C          1.22050       -1.54030       -7.61980
C          0.01120       -2.04540       -8.08870
S         -0.09520       -2.34080       -9.82770
C         -1.73140       -3.08830      -10.04920
C         -1.01890       -2.26880       -7.18800
C         -0.83150       -2.00360       -5.84460
C         -1.67610       -1.11800       -2.77200
S         -1.89060       -2.67130       -2.05170
C          0.39960        1.72520       -3.55520
C          0.93620        2.39890       -2.46490
N          0.20920        2.73500       -1.30510
C          0.15100        1.79680       -0.24230
C         -1.06680        1.20470        0.09590
C         -1.11940        0.20780        1.03970
C          0.03330       -0.20510        1.70420
S         -0.19830       -1.52520        2.85060
C          1.40870       -1.71040        3.66390
C          1.23330        0.43670        1.43110
C          1.28970        1.42870        0.46420
C         -0.70940        3.77990       -1.36710
C         -1.02280        4.41690       -2.56950
C         -1.89530        5.48350       -2.59220
C         -2.47280        5.94790       -1.41840
S         -3.59110        7.31780       -1.53930
C         -3.36180        8.15370        0.05860
C         -2.16650        5.32570       -0.21690
C         -1.29180        4.26030       -0.19260
C          2.30400        2.68010       -2.67650
S          3.60170        3.09620       -1.62000
C          4.77050        2.85530       -2.91790
C          4.15260        2.39500       -4.10770
N          4.80120        1.99560       -5.24350
C          4.11750        1.99170       -6.47090
C          4.27860        0.93340       -7.36080
C          3.60620        0.91930       -8.56670
C          2.74760        1.96010       -8.89900
S          1.81080        2.04090      -10.38620
C          2.17650        0.48190      -11.23910
C          2.60510        3.03380       -8.01980
C          3.28580        3.05580       -6.82460
C          6.10970        1.46530       -5.20560
C          6.46970        0.55580       -4.21100
C          7.77270        0.13100       -4.10540
C          8.73810        0.58810       -5.00460
S         10.39530        0.06060       -4.71960
C         11.38180        1.15610       -5.77780
C          8.35830        1.41590       -6.05280
C          7.05180        1.85770       -6.14890
C          2.76280        2.29330       -3.93290
S          1.50830        1.58110       -4.88890
C          6.13740        3.10490       -2.80000
C          6.93550        3.17550       -1.68030
C          6.51030        2.88940       -0.30990
O          5.37080        2.78050        0.10940
C          7.75210        2.72040        0.47070
C          7.92850        2.39230        1.80340
Cl         6.58240        2.10420        2.83210
C          9.22400        2.29550        2.30720
C         10.30850        2.52300        1.47950
C         10.14590        2.84960        0.13730
C          8.86150        2.94620       -0.36650
C          8.37340        3.26680       -1.70820
C          9.16470        3.58400       -2.78450
C         10.57310        3.55150       -2.78300
N         11.71730        3.52920       -2.88150
C          8.69800        4.00420       -4.04470
N          8.41840        4.37750       -5.09570
H         -4.26950       -3.40920        8.93410
H         -0.98320       -8.64300       12.72400
H          0.47100       -9.07370       10.79020
H          0.36540       -7.65760        8.78450
H         -2.56520       -5.36570        6.06520
H         -3.13280       -7.04400        4.34470
H         -1.27210       -8.63070        4.63640
H          2.68960       -6.68310        4.78780
H          3.39510       -7.38590        3.30220
H          3.49680       -8.58940        6.11610
H          4.85870       -7.85530        5.26140
H          4.15450       -9.36620        4.66950
H         -0.43890       -4.28540        2.48610
H         -7.26360       -1.96220        2.44460
H         -8.48590        0.15550        2.15290
H         -6.44940        4.34000        3.72730
H         -8.08160        4.95750        3.42890
H         -7.75440        4.56300        5.87080
H         -8.99020        3.47380        5.22530
H         -7.36370        2.87180        5.56120
H         -4.14600        0.16860        4.45830
H         -5.11490       -1.32690        0.86890
H         -7.15330        0.50490       -0.09960
H         -9.27650       -0.64850       -0.21770
H        -12.16350       -2.82220       -0.68310
H        -10.90300       -2.22460        0.41750
H        -11.38060       -1.26320       -1.02060
H         -7.52890       -3.62980       -2.73490
H         -5.38740       -2.45190       -2.64480
H         -3.89990        0.76830        0.98100
H         -4.14570        3.06880        1.81730
H         -6.23200        6.38440       -1.14930
H         -7.56860        5.48650       -0.34300
H         -6.99400        7.03570        0.31590
H         -6.21850        4.14090       -1.76800
H         -5.94890        1.85860       -2.60320
H          2.70620       -2.61410       -4.68130
H          4.84550       -2.56590       -3.50430
H          4.71530       -1.16780        1.00310
H          5.12060        0.46890        0.38460
H          6.40130       -0.60470        0.98990
H          3.08670       -0.20020       -0.41710
H          0.97660       -0.23180       -1.58410
H          2.33710       -0.83300       -5.96460
H          2.02250       -1.35780       -8.31690
H         -1.80410       -3.32680      -11.10580
H         -2.50540       -2.37610       -9.77800
H         -1.80350       -3.99730       -9.45900
H         -1.97280       -2.65270       -7.51220
H         -1.64200       -2.19460       -5.15770
H         -1.97210        1.54080       -0.38300
H         -2.05190       -0.28240        1.27790
H          1.72380       -0.75600        4.07440
H          2.13960       -2.10650        2.96430
H          1.23800       -2.41750        4.47060
H          2.13410        0.17440        1.96390
H          2.22640        1.92400        0.25860
H         -0.57820        4.08760       -3.49600
H         -2.13170        5.96870       -3.52690
H         -3.87330        7.60870        0.84670
H         -2.29940        8.23590        0.26510
H         -3.79960        9.14060       -0.05350
H         -2.60220        5.66650        0.70860
H         -1.04790        3.79850        0.75180
H          4.93280        0.11410       -7.10090
H          3.75960        0.09030       -9.23840
H          3.23870        0.41350      -11.45440
H          1.82940       -0.35920      -10.64590
H          1.61700        0.52440      -12.16840
H          1.95820        3.85260       -8.29390
H          3.18570        3.90080       -6.15990
H          5.72890        0.20750       -3.50920
H          8.05590       -0.55320       -3.32070
H         11.24500        0.89500       -6.82320
H         12.41400        0.98830       -5.48720
H         11.11100        2.19030       -5.58690
H          9.07370        1.75130       -6.78500
H          6.77030        2.53560       -6.93990
H          6.65480        3.18230       -3.74710
H          9.37040        2.04180        3.34510
H         11.30560        2.44340        1.88470
H         11.00990        3.01670       -0.48420
