120

C          7.31650       -1.08400        2.10070
C          7.21870       -2.33980        2.58300
C          8.39850       -3.24240        2.68210
O          9.56280       -2.92580        2.73340
C          7.82490       -4.60550        2.61800
C          8.48410       -5.81480        2.51140
C          7.71480       -6.96380        2.40270
C          6.33080       -6.90270        2.36850
C          5.65280       -5.68510        2.47170
O          4.31870       -5.52980        2.37660
C          3.48530       -6.66190        2.28250
C          6.42090       -4.52620        2.63720
C          6.02470       -3.14310        2.84350
C          4.89020       -2.67530        3.44800
C          4.75610       -1.32620        3.84670
N          4.61930       -0.25700        4.24060
C          3.73190       -3.40340        3.78380
N          2.72870       -3.86640        4.09860
C          6.20200       -0.30470        1.61730
C          5.10230       -0.95890        0.99180
N          5.18300       -2.26520        0.64870
C          4.14620       -2.84410        0.12980
C          2.92200       -2.13490       -0.05950
O          1.86910       -2.81570       -0.50370
C          0.61180       -2.13790       -0.53460
C          0.47280       -1.15590       -1.68770
N          2.84710       -0.85400        0.18580
C          3.92400       -0.23380        0.71030
C          3.86500        1.15570        0.99010
C          4.99670        1.79180        1.44720
C          6.15010        1.07030        1.75630
C          2.55980        1.78400        0.80100
C          1.44540        1.17610        1.39030
N          1.51820        0.19220        2.32650
C          0.37400       -0.21880        2.70930
C          0.17110       -1.29640        3.70790
C         -1.20870       -1.26900        4.35060
S         -1.00170        0.58550        1.92220
C          0.13210        1.55580        1.03400
C         -0.13520        2.57110        0.11640
C          0.98110        3.25900       -0.38410
C          2.29800        2.85740       -0.03200
S          3.45260        3.83570       -0.88350
C          2.09390        4.69540       -1.62720
C          2.36120        5.78300       -2.60040
C          2.59320        5.20620       -3.99960
N          0.93820        4.27560       -1.28870
C         -1.47610        2.80670       -0.36830
C         -2.12200        4.02210       -0.57420
O         -1.51840        5.17870       -0.22900
C         -1.80800        6.34650       -0.98850
C         -1.61070        6.13610       -2.48410
C         -3.42790        3.83170       -1.06190
O         -4.31510        4.83910       -1.31080
C         -5.39970        4.96110       -0.38720
C         -4.98550        5.66400        0.89960
C         -3.74340        2.48020       -1.31090
S         -2.43800        1.44650       -0.80910
C         -4.94320        2.08840       -1.91290
C         -5.39640        0.83480       -2.24970
C         -4.63710       -0.41140       -2.12390
O         -3.53290       -0.56890       -1.62890
C         -5.46350       -1.45920       -2.74780
C         -5.18530       -2.78520       -2.90760
C         -6.13130       -3.61370       -3.55180
C         -5.89770       -4.99040       -3.74350
C         -6.81970       -5.78060       -4.37210
C         -8.01090       -5.20050       -4.82770
F         -8.90590       -5.99370       -5.44500
C         -8.28780       -3.87120       -4.66650
C         -7.34980       -3.04290       -4.02070
C         -7.61040       -1.66390       -3.83690
C         -6.68080       -0.88160       -3.20650
C         -6.67220        0.54060       -2.86790
C         -7.72380        1.40200       -3.05680
C         -8.93980        1.03940       -3.67180
N         -9.95010        0.81350       -4.16880
C         -7.77060        2.74630       -2.63530
N         -7.90480        3.83620       -2.29630
H          8.30800       -0.65430        2.02300
H          9.56160       -5.85080        2.51310
H          8.19600       -7.92730        2.32710
H          5.77250       -7.81860        2.25310
H          3.62920       -7.33550        3.13160
H          2.47050       -6.26900        2.30420
H          3.65180       -7.20430        1.34660
H          4.23470       -3.88070       -0.16000
H          0.47270       -1.61730        0.41700
H         -0.12300       -2.94100       -0.62360
H         -0.54350       -0.76990       -1.69880
H          0.67630       -1.65280       -2.63330
H          1.16690       -0.32920       -1.56170
H          4.97030        2.85470        1.63510
H          6.99130        1.58530        2.19500
H          0.33070       -2.26030        3.21300
H          0.95650       -1.20160        4.46160
H         -1.37360       -0.32290        4.86090
H         -1.98470       -1.39400        3.59790
H         -1.29560       -2.07370        5.07550
H          3.24660        6.33790       -2.28510
H          1.50490        6.45840       -2.61610
H          2.78160        6.00980       -4.70630
H          3.45080        4.53710       -3.99590
H          1.71880        4.64940       -4.32780
H         -1.09390        7.07860       -0.60290
H         -2.82490        6.69750       -0.78700
H         -1.55520        7.09830       -2.98550
H         -2.44210        5.57490       -2.90300
H         -0.68960        5.58220       -2.64860
H         -5.81010        3.97260       -0.15200
H         -6.15730        5.53680       -0.92240
H         -5.83470        5.70250        1.57630
H         -4.17380        5.12440        1.38480
H         -4.65640        6.68010        0.69540
H         -5.57810        2.92440       -2.18330
H         -4.25470       -3.19730       -2.54690
H         -4.97220       -5.41420       -3.38360
H         -6.65640       -6.83540       -4.52690
H         -9.21650       -3.45890       -5.02900
H         -8.54130       -1.26450       -4.20550
