
  xtb     02032219083D
 energy: -208.018177709977 gnorm: 0.000227315404 xtb: 6.4.1 (unknown)
114124  0     0  0            999 V2000
    1.8184   -7.1273    5.0298 C   0  0  0  0  0  0  0  0  0  0  0  0
    2.9629   -6.4172    5.0654 C   0  0  0  0  0  0  0  0  0  0  0  0
    3.1856   -5.1288    4.3420 C   0  0  0  0  0  0  0  0  0  0  0  0
    2.6500   -4.7473    3.3263 O   0  0  0  0  0  0  0  0  0  0  0  0
    4.3175   -4.4927    5.0452 C   0  0  0  0  0  0  0  0  0  0  0  0
    4.8098   -3.2120    4.8974 C   0  0  0  0  0  0  0  0  0  0  0  0
    5.8779   -2.8350    5.6979 C   0  0  0  0  0  0  0  0  0  0  0  0
    6.4149   -3.7059    6.6312 C   0  0  0  0  0  0  0  0  0  0  0  0
    5.9218   -5.0047    6.7912 C   0  0  0  0  0  0  0  0  0  0  0  0
    6.3461   -5.8754    7.7226 O   0  0  0  0  0  0  0  0  0  0  0  0
    7.4586   -5.5589    8.5289 C   0  0  0  0  0  0  0  0  0  0  0  0
    4.8761   -5.4125    5.9493 C   0  0  0  0  0  0  0  0  0  0  0  0
    4.1764   -6.6837    5.8384 C   0  0  0  0  0  0  0  0  0  0  0  0
    4.5975   -7.9149    6.2518 C   0  0  0  0  0  0  0  0  0  0  0  0
    5.8498   -8.2301    6.8259 C   0  0  0  0  0  0  0  0  0  0  0  0
    6.8483   -8.6214    7.2344 N   0  0  0  0  0  0  0  0  0  0  0  0
    3.8535   -9.0981    6.0406 C   0  0  0  0  0  0  0  0  0  0  0  0
    3.2984  -10.0930    5.9011 N   0  0  0  0  0  0  0  0  0  0  0  0
    0.6064   -6.6095    4.4292 C   0  0  0  0  0  0  0  0  0  0  0  0
   -0.2396   -7.3908    3.6703 C   0  0  0  0  0  0  0  0  0  0  0  0
   -1.3469   -6.8440    3.0196 C   0  0  0  0  0  0  0  0  0  0  0  0
   -1.6724   -5.5075    3.1288 C   0  0  0  0  0  0  0  0  0  0  0  0
   -0.8791   -4.6925    3.9856 C   0  0  0  0  0  0  0  0  0  0  0  0
   -1.1537   -3.3805    4.1222 N   0  0  0  0  0  0  0  0  0  0  0  0
   -0.3876   -2.6632    4.8955 C   0  0  0  0  0  0  0  0  0  0  0  0
    0.6743   -3.2350    5.6208 C   0  0  0  0  0  0  0  0  0  0  0  0
    0.9831   -4.4948    5.4884 N   0  0  0  0  0  0  0  0  0  0  0  0
    0.2525   -5.2467    4.6442 C   0  0  0  0  0  0  0  0  0  0  0  0
   -2.6978   -4.8779    2.2942 C   0  0  0  0  0  0  0  0  0  0  0  0
   -2.7479   -5.1852    0.9316 C   0  0  0  0  0  0  0  0  0  0  0  0
   -3.5361   -4.4674    0.0515 C   0  0  0  0  0  0  0  0  0  0  0  0
   -4.2936   -3.4065    0.5337 C   0  0  0  0  0  0  0  0  0  0  0  0
   -4.9704   -2.2920   -0.0912 C   0  0  0  0  0  0  0  0  0  0  0  0
   -5.5401   -1.4897    1.0402 C   0  0  0  0  0  0  0  0  0  0  0  0
   -6.2867   -0.5329    1.0033 O   0  0  0  0  0  0  0  0  0  0  0  0
   -5.1151   -2.0787    2.2003 N   0  0  0  0  0  0  0  0  0  0  0  0
   -5.4317   -1.5842    3.5109 C   0  0  0  0  0  0  0  0  0  0  0  0
   -4.3124   -3.1696    1.9280 C   0  0  0  0  0  0  0  0  0  0  0  0
   -3.5362   -3.8860    2.8095 C   0  0  0  0  0  0  0  0  0  0  0  0
   -4.9385   -1.8898   -1.3971 C   0  0  0  0  0  0  0  0  0  0  0  0
   -4.6054   -2.7748   -2.5580 C   0  0  0  0  0  0  0  0  0  0  0  0
   -4.5865   -3.9865   -2.6203 O   0  0  0  0  0  0  0  0  0  0  0  0
   -4.3741   -1.9547   -3.6325 N   0  0  0  0  0  0  0  0  0  0  0  0
   -4.0124   -2.4340   -4.9379 C   0  0  0  0  0  0  0  0  0  0  0  0
   -4.5166   -0.6302   -3.2733 C   0  0  0  0  0  0  0  0  0  0  0  0
   -4.1741    0.4822   -4.0054 C   0  0  0  0  0  0  0  0  0  0  0  0
   -4.2858    1.7390   -3.3926 C   0  0  0  0  0  0  0  0  0  0  0  0
   -4.8312    1.8290   -2.1060 C   0  0  0  0  0  0  0  0  0  0  0  0
   -5.1801    0.7083   -1.3798 C   0  0  0  0  0  0  0  0  0  0  0  0
   -4.9762   -0.5493   -1.9365 C   0  0  0  0  0  0  0  0  0  0  0  0
   -3.7215    2.9037   -4.0304 C   0  0  0  0  0  0  0  0  0  0  0  0
   -3.2502    3.0481   -5.3138 C   0  0  0  0  0  0  0  0  0  0  0  0
   -2.5526    4.2456   -5.5350 C   0  0  0  0  0  0  0  0  0  0  0  0
   -2.0480    4.5878   -6.8861 C   0  0  0  0  0  0  0  0  0  0  0  0
   -1.9122    3.7779   -7.7662 O   0  0  0  0  0  0  0  0  0  0  0  0
   -1.8369    5.9015   -7.0269 O   0  0  0  0  0  0  0  0  0  0  0  0
   -1.3376    6.3368   -8.2906 C   0  0  0  0  0  0  0  0  0  0  0  0
   -2.4607    6.5321   -9.2983 C   0  0  0  0  0  0  0  0  0  0  0  0
   -2.4734    5.0423   -4.4041 C   0  0  0  0  0  0  0  0  0  0  0  0
   -3.3571    4.3189   -3.0909 S   0  0  0  0  0  0  0  0  0  0  0  0
   -1.7549    6.2402   -4.1339 C   0  0  0  0  0  0  0  0  0  0  0  0
   -0.4961    6.5174   -4.5608 C   0  0  0  0  0  0  0  0  0  0  0  0
    0.4326    5.5277   -5.1639 C   0  0  0  0  0  0  0  0  0  0  0  0
    0.1741    4.4458   -5.6438 O   0  0  0  0  0  0  0  0  0  0  0  0
    1.7802    6.1009   -4.9740 C   0  0  0  0  0  0  0  0  0  0  0  0
    2.9984    5.5168   -5.2570 C   0  0  0  0  0  0  0  0  0  0  0  0
    4.1447    6.2293   -4.9358 C   0  0  0  0  0  0  0  0  0  0  0  0
    4.0680    7.4646   -4.3154 C   0  0  0  0  0  0  0  0  0  0  0  0
    2.8379    8.0597   -4.0142 C   0  0  0  0  0  0  0  0  0  0  0  0
    2.6887    9.2137   -3.3424 O   0  0  0  0  0  0  0  0  0  0  0  0
    3.8198    9.9762   -2.9868 C   0  0  0  0  0  0  0  0  0  0  0  0
    1.6742    7.3769   -4.3951 C   0  0  0  0  0  0  0  0  0  0  0  0
    0.2674    7.7227   -4.2639 C   0  0  0  0  0  0  0  0  0  0  0  0
   -0.2876    8.9570   -4.0672 C   0  0  0  0  0  0  0  0  0  0  0  0
   -1.6842    9.1770   -4.0527 C   0  0  0  0  0  0  0  0  0  0  0  0
   -2.8036    9.4304   -4.0385 N   0  0  0  0  0  0  0  0  0  0  0  0
    0.3931   10.1904   -3.9693 C   0  0  0  0  0  0  0  0  0  0  0  0
    0.8180   11.2561   -3.9311 N   0  0  0  0  0  0  0  0  0  0  0  0
    1.7501   -8.0941    5.5102 H   0  0  0  0  0  0  0  0  0  0  0  0
    4.3667   -2.5375    4.1824 H   0  0  0  0  0  0  0  0  0  0  0  0
    6.2950   -1.8431    5.6081 H   0  0  0  0  0  0  0  0  0  0  0  0
    7.2285   -3.3648    7.2516 H   0  0  0  0  0  0  0  0  0  0  0  0
    7.2399   -4.7228    9.1999 H   0  0  0  0  0  0  0  0  0  0  0  0
    7.6512   -6.4581    9.1109 H   0  0  0  0  0  0  0  0  0  0  0  0
    8.3377   -5.3283    7.9213 H   0  0  0  0  0  0  0  0  0  0  0  0
   -0.0023   -8.4345    3.5244 H   0  0  0  0  0  0  0  0  0  0  0  0
   -1.9555   -7.4842    2.3981 H   0  0  0  0  0  0  0  0  0  0  0  0
   -0.6202   -1.6091    4.9686 H   0  0  0  0  0  0  0  0  0  0  0  0
    1.2694   -2.6571    6.3154 H   0  0  0  0  0  0  0  0  0  0  0  0
   -2.1104   -5.9667    0.5472 H   0  0  0  0  0  0  0  0  0  0  0  0
   -3.5479   -4.7196   -0.9952 H   0  0  0  0  0  0  0  0  0  0  0  0
   -5.9396   -2.3521    4.0975 H   0  0  0  0  0  0  0  0  0  0  0  0
   -6.0927   -0.7271    3.3856 H   0  0  0  0  0  0  0  0  0  0  0  0
   -4.5244   -1.2732    4.0332 H   0  0  0  0  0  0  0  0  0  0  0  0
   -3.5398   -3.6672    3.8636 H   0  0  0  0  0  0  0  0  0  0  0  0
   -3.0059   -2.1054   -5.2060 H   0  0  0  0  0  0  0  0  0  0  0  0
   -4.7208   -2.0750   -5.6866 H   0  0  0  0  0  0  0  0  0  0  0  0
   -4.0404   -3.5226   -4.9037 H   0  0  0  0  0  0  0  0  0  0  0  0
   -3.7681    0.3879   -4.9986 H   0  0  0  0  0  0  0  0  0  0  0  0
   -4.9568    2.8065   -1.6640 H   0  0  0  0  0  0  0  0  0  0  0  0
   -5.5946    0.8096   -0.3915 H   0  0  0  0  0  0  0  0  0  0  0  0
   -3.3849    2.3263   -6.0983 H   0  0  0  0  0  0  0  0  0  0  0  0
   -0.6190    5.5968   -8.6587 H   0  0  0  0  0  0  0  0  0  0  0  0
   -0.8272    7.2806   -8.0827 H   0  0  0  0  0  0  0  0  0  0  0  0
   -3.1984    7.2281   -8.9061 H   0  0  0  0  0  0  0  0  0  0  0  0
   -2.0540    6.9279  -10.2245 H   0  0  0  0  0  0  0  0  0  0  0  0
   -2.9437    5.5801   -9.5031 H   0  0  0  0  0  0  0  0  0  0  0  0
   -2.2276    6.9154   -3.4299 H   0  0  0  0  0  0  0  0  0  0  0  0
    3.0411    4.5396   -5.7103 H   0  0  0  0  0  0  0  0  0  0  0  0
    5.1164    5.8122   -5.1530 H   0  0  0  0  0  0  0  0  0  0  0  0
    4.9828    7.9711   -4.0512 H   0  0  0  0  0  0  0  0  0  0  0  0
    4.4449    9.4470   -2.2610 H   0  0  0  0  0  0  0  0  0  0  0  0
    4.4139   10.2424   -3.8650 H   0  0  0  0  0  0  0  0  0  0  0  0
    3.4188   10.8823   -2.5368 H   0  0  0  0  0  0  0  0  0  0  0  0
  1  2  2  0  0  0  0
  2  3  1  0  0  0  0
  3  4  2  0  0  0  0
  3  5  1  0  0  0  0
  5  6  2  0  0  0  0
  6  7  1  0  0  0  0
  7  8  2  0  0  0  0
  8  9  1  0  0  0  0
  9 10  1  0  0  0  0
 10 11  1  0  0  0  0
  9 12  2  0  0  0  0
 12 13  1  0  0  0  0
 13 14  2  0  0  0  0
 14 15  1  0  0  0  0
 15 16  3  0  0  0  0
 14 17  1  0  0  0  0
 17 18  3  0  0  0  0
  1 19  1  0  0  0  0
 19 20  2  0  0  0  0
 20 21  1  0  0  0  0
 21 22  2  0  0  0  0
 22 23  1  0  0  0  0
 23 24  2  0  0  0  0
 24 25  1  0  0  0  0
 25 26  2  0  0  0  0
 26 27  1  0  0  0  0
 27 28  2  0  0  0  0
 22 29  1  0  0  0  0
 29 30  2  0  0  0  0
 30 31  1  0  0  0  0
 31 32  2  0  0  0  0
 32 33  1  0  0  0  0
 33 34  1  0  0  0  0
 34 35  2  0  0  0  0
 34 36  1  0  0  0  0
 36 37  1  0  0  0  0
 36 38  1  0  0  0  0
 38 39  2  0  0  0  0
 33 40  2  0  0  0  0
 40 41  1  0  0  0  0
 41 42  2  0  0  0  0
 41 43  1  0  0  0  0
 43 44  1  0  0  0  0
 43 45  1  0  0  0  0
 45 46  2  0  0  0  0
 46 47  1  0  0  0  0
 47 48  2  0  0  0  0
 48 49  1  0  0  0  0
 49 50  2  0  0  0  0
 47 51  1  0  0  0  0
 51 52  2  0  0  0  0
 52 53  1  0  0  0  0
 53 54  1  0  0  0  0
 54 55  2  0  0  0  0
 54 56  1  0  0  0  0
 56 57  1  0  0  0  0
 57 58  1  0  0  0  0
 53 59  2  0  0  0  0
 59 60  1  0  0  0  0
 59 61  1  0  0  0  0
 61 62  2  0  0  0  0
 62 63  1  0  0  0  0
 63 64  2  0  0  0  0
 63 65  1  0  0  0  0
 65 66  2  0  0  0  0
 66 67  1  0  0  0  0
 67 68  2  0  0  0  0
 68 69  1  0  0  0  0
 69 70  1  0  0  0  0
 70 71  1  0  0  0  0
 69 72  2  0  0  0  0
 72 73  1  0  0  0  0
 73 74  2  0  0  0  0
 74 75  1  0  0  0  0
 75 76  3  0  0  0  0
 74 77  1  0  0  0  0
 77 78  3  0  0  0  0
 13  2  1  0  0  0  0
 28 19  1  0  0  0  0
 39 29  1  0  0  0  0
 50 40  1  0  0  0  0
 60 51  1  0  0  0  0
 73 62  1  0  0  0  0
 12  5  1  0  0  0  0
 28 23  1  0  0  0  0
 38 32  1  0  0  0  0
 50 45  1  0  0  0  0
 72 65  1  0  0  0  0
  1 79  1  0  0  0  0
  6 80  1  0  0  0  0
  7 81  1  0  0  0  0
  8 82  1  0  0  0  0
 11 83  1  0  0  0  0
 11 84  1  0  0  0  0
 11 85  1  0  0  0  0
 20 86  1  0  0  0  0
 21 87  1  0  0  0  0
 25 88  1  0  0  0  0
 26 89  1  0  0  0  0
 30 90  1  0  0  0  0
 31 91  1  0  0  0  0
 37 92  1  0  0  0  0
 37 93  1  0  0  0  0
 37 94  1  0  0  0  0
 39 95  1  0  0  0  0
 44 96  1  0  0  0  0
 44 97  1  0  0  0  0
 44 98  1  0  0  0  0
 46 99  1  0  0  0  0
 48100  1  0  0  0  0
 49101  1  0  0  0  0
 52102  1  0  0  0  0
 57103  1  0  0  0  0
 57104  1  0  0  0  0
 58105  1  0  0  0  0
 58106  1  0  0  0  0
 58107  1  0  0  0  0
 61108  1  0  0  0  0
 66109  1  0  0  0  0
 67110  1  0  0  0  0
 68111  1  0  0  0  0
 71112  1  0  0  0  0
 71113  1  0  0  0  0
 71114  1  0  0  0  0
M  END
