202

C         -2.05290       -0.47700        7.17860
C         -2.80390        0.26610        8.05400
C         -3.73440       -0.47210        8.92700
O         -3.77240       -1.67300        9.11970
C         -4.66300        0.54810        9.45320
C         -5.76790        0.35870       10.25650
C         -6.49600        1.47910       10.62940
C         -6.11280        2.74280       10.21850
C         -4.98250        2.94570        9.41810
O         -4.55750        4.15330        9.00350
C         -5.15980        5.31830        9.51800
C         -4.25220        1.82080        9.01740
C         -3.02130        1.68020        8.24250
C         -2.07550        2.63880        7.96200
C         -2.18220        4.03620        8.05660
N         -2.12250        5.18500        8.03060
C         -0.75860        2.26810        7.61040
N          0.34150        1.99910        7.41600
C         -1.48010       -0.18390        5.93790
C         -0.68350       -1.05070        5.16250
N         -0.21830       -2.29400        5.50410
C          1.06500       -2.64630        5.04120
C          1.29680       -3.88350        4.45220
C          2.53920       -4.18580        3.92900
C          3.56550       -3.25160        3.98910
S          5.16760       -3.49110        3.30350
C          5.06680       -5.10220        2.48150
C          3.34560       -2.02850        4.62310
C          2.11090       -1.72800        5.14770
C         -0.96830       -3.21810        6.24210
C         -0.34630       -4.03240        7.18760
C         -1.10190       -4.86970        7.97920
C         -2.48730       -4.90240        7.84760
S         -3.40900       -5.90110        8.96970
C         -4.93330       -4.92490        9.14680
C         -3.10120       -4.15220        6.85110
C         -2.34590       -3.32370        6.04940
C         -0.33200       -0.44390        3.93700
S          0.54540       -1.00050        2.55890
C          0.22290        0.51280        1.71220
C         -0.45290        1.43450        2.51110
N         -0.69440        2.76550        2.24070
C         -1.75720        3.35080        2.97780
C         -1.49530        4.32230        3.93910
C         -2.51990        4.86940        4.68200
C         -3.82670        4.44120        4.47790
S         -5.19560        5.05740        5.39720
C         -4.52560        6.54830        6.18760
C         -4.09130        3.46860        3.51570
C         -3.06640        2.92710        2.76820
C          0.24320        3.63000        1.66750
C          1.57750        3.28170        1.46350
C          2.46270        4.19430        0.92940
C          2.05000        5.48230        0.60480
S          3.25090        6.56510       -0.10310
C          2.47100        8.20160        0.01250
C          0.72670        5.84190        0.81820
C         -0.16310        4.92190        1.32760
C         -0.82380        0.83620        3.74710
S         -1.79840        1.33200        5.08530
C          0.60480        0.51770        0.33840
C          0.05470        1.15220       -0.76070
N         -1.00950        2.08130       -0.74600
C         -0.76350        3.36000       -1.25460
C          0.48830        3.73520       -1.73700
C          0.71970        5.01250       -2.20660
C         -0.29560        5.95380       -2.19600
S         -0.07870        7.62630       -2.73680
C          1.44120        7.55060       -3.72960
C         -1.54050        5.60350       -1.68140
C         -1.76920        4.33060       -1.21060
C         -2.28460        1.48750       -0.90970
C         -3.09150        1.78750       -2.00330
C         -4.33390        1.20240       -2.15300
C         -4.78950        0.28550       -1.21590
S         -6.35970       -0.51920       -1.28920
C         -7.11440        0.12920       -2.80710
C         -3.96950       -0.05040       -0.14170
C         -2.73220        0.53800        0.00770
C          0.63240        0.69020       -1.96370
S          0.29360        1.00460       -3.63100
C          1.57150       -0.09340       -4.10200
C          2.14680       -0.76230       -3.01710
N          2.97110       -1.86440       -3.12620
C          3.97750       -2.09200       -2.18430
C          4.35360       -3.39740       -1.86100
C          5.38090       -3.62420       -0.97450
C          6.04580       -2.55770       -0.37150
S          7.39180       -2.96090        0.69550
C          7.65610       -1.43920        1.64380
C          5.65730       -1.25850       -0.67020
C          4.63750       -1.02880       -1.57240
C          2.83640       -2.72180       -4.23230
C          3.95470       -3.24360       -4.87730
C          3.82460       -3.98130       -6.03870
C          2.56520       -4.22530       -6.57100
S          2.27930       -5.08770       -8.07920
C          3.86150       -5.91500       -8.40880
C          1.43870       -3.76040       -5.89190
C          1.56990       -3.02550       -4.73660
C          1.61930       -0.27290       -1.80230
S          1.85860       -0.63250       -0.12760
C          1.89880       -0.27480       -5.47530
C          0.92200       -0.39260       -6.48180
C          1.23680       -0.82820       -7.82860
N          0.12850       -1.05460       -8.53320
S         -1.15110       -0.70150       -7.63830
N         -0.39440       -0.28460       -6.28600
C          2.55980       -1.07610       -8.25070
C          3.54240       -0.87170       -7.25830
N          4.85950       -0.98710       -7.43870
S          5.61310       -0.60370       -6.07490
N          4.32500       -0.28020       -5.17270
C          3.22610       -0.46390       -5.90910
C          2.93730       -1.59650       -9.51570
C          2.28860       -1.41600      -10.70080
C          1.31080       -0.34020      -10.98150
O          1.03630        0.61810      -10.29120
C          0.83510       -0.59260      -12.35850
C         -0.15050        0.07460      -13.05550
C         -0.46270       -0.38010      -14.32850
C          0.17100       -1.48800      -14.86370
C          1.16730       -2.17360      -14.16100
O          1.76580       -3.29790      -14.59340
C          1.51020       -3.78390      -15.89060
C          1.53750       -1.68050      -12.90160
C          2.54010       -2.13000      -11.94310
C          3.56820       -3.00880      -12.17300
C          4.48040       -3.46720      -11.20010
N          5.25960       -3.93410      -10.49450
C          3.97160       -3.54670      -13.41570
N          4.46840       -3.99520      -14.34940
H         -2.00200       -1.52040        7.47200
H         -6.04180       -0.63250       10.58070
H         -7.37150        1.37230       11.25190
H         -6.70730        3.58920       10.52360
H         -6.16550        5.45890        9.11030
H         -5.20090        5.29870       10.61090
H         -4.51620        6.13640        9.19970
H          0.49420       -4.60310        4.38820
H          2.68750       -5.14690        3.46430
H          6.03500       -5.24330        2.01090
H          4.89180       -5.88490        3.21390
H          4.28700       -5.07850        1.72590
H          4.15630       -1.31990        4.69370
H          1.94110       -0.78000        5.63660
H          0.72340       -3.97270        7.32110
H         -0.63050       -5.47920        8.73420
H         -4.66780       -3.87250        9.19200
H         -5.38480       -5.24230       10.08150
H         -5.61320       -5.12900        8.32440
H         -4.16710       -4.20500        6.70050
H         -2.82310       -2.72920        5.28380
H         -0.47780        4.63960        4.11330
H         -2.28220        5.60220        5.43430
H         -4.11430        7.20410        5.42580
H         -5.36900        7.02880        6.67350
H         -3.77380        6.27080        6.92200
H         -5.10880        3.14370        3.36160
H         -3.27240        2.17660        2.01930
H          1.94070        2.30710        1.74720
H          3.49390        3.91680        0.77180
H          3.23000        8.91130       -0.30210
H          1.61100        8.26350       -0.64860
H          2.18800        8.39430        1.04290
H          0.36870        6.82920        0.57800
H         -1.19150        5.21420        1.46930
H          1.31190        3.04040       -1.73280
H          1.70570        5.25650       -2.56680
H          1.34570        6.76640       -4.47450
H          2.30510        7.38340       -3.09230
H          1.52410        8.51800       -4.21530
H         -2.32420        6.34500       -1.64520
H         -2.73380        4.08090       -0.79470
H         -2.73940        2.47940       -2.75360
H         -4.92700        1.46310       -3.01440
H         -7.24220        1.20500       -2.72890
H         -8.08460       -0.35250       -2.87840
H         -6.50690       -0.13660       -3.66730
H         -4.31600       -0.77840        0.57620
H         -2.10540        0.25290        0.83710
H          3.83660       -4.22970       -2.31470
H          5.68440       -4.63310       -0.74030
H          8.10060       -0.67340        1.01460
H          6.71000       -1.11540        2.06580
H          8.34290       -1.70610        2.44050
H          6.15850       -0.41440       -0.22510
H          4.37350       -0.01610       -1.83570
H          4.93960       -3.04040       -4.48220
H          4.71350       -4.33410       -6.53610
H          4.60050       -5.19730       -8.75520
H          3.65540       -6.62850       -9.20080
H          4.18880       -6.43760       -7.51530
H          0.45970       -3.98380       -6.28780
H          0.68890       -2.66830       -4.22400
H          3.84610       -2.18340       -9.49330
H         -0.65720        0.91520      -12.60950
H         -1.22400        0.11910      -14.90920
H         -0.12160       -1.83210      -15.84320
H          1.72530       -3.02750      -16.65040
H          0.47630       -4.12870      -15.99130
H          2.19280       -4.62250      -16.01620
