112

C          9.72620       -5.41850        2.85310
C          9.97840       -6.04470        4.02830
C         11.21400       -6.85890        4.19790
O         12.19150       -6.85000        3.48660
C         10.94700       -7.71480        5.37310
C         11.71670       -8.73870        5.88860
C         11.22130       -9.42900        6.98560
C          9.98150       -9.12760        7.52460
C          9.19020       -8.09630        7.00790
O          7.94820       -7.79220        7.42510
C          7.41950       -8.42670        8.56740
C          9.71040       -7.35670        5.93890
C          9.19670       -6.18270        5.24780
C          8.40480       -5.19900        5.77530
C          7.81870       -5.19920        7.05840
N          7.33330       -5.07460        8.09060
C          8.21470       -3.95850        5.12630
N          8.07790       -2.92100        4.65410
C          8.49110       -4.91640        2.36460
S          6.94250       -5.56250        2.89750
C          6.10400       -4.47120        1.86050
C          4.75900       -4.19720        1.60250
C          4.61620       -3.16600        0.70210
S          6.15670       -2.54070        0.14230
C          6.99840       -3.66680        1.14430
C          8.34030       -3.93900        1.40260
C          3.40770       -2.55880        0.26010
C          3.28040       -1.42230       -0.48410
C          1.93910       -1.01950       -0.68450
C          1.47520        0.10520       -1.39370
C          2.39980        1.04640       -1.99340
C          3.54150        1.56960       -1.45610
C          4.19360        2.43830       -2.35240
F          5.33850        3.06700       -2.03120
C          3.59140        2.58480       -3.56690
C          4.01570        3.43200       -4.71550
C          3.08400        4.63150       -4.89600
S          2.14580        1.63750       -3.61240
C          0.09790        0.26300       -1.47340
C         -0.82550       -0.64400       -0.89600
C         -0.36190       -1.78590       -0.20730
C         -1.26260       -2.78210        0.33350
S         -2.69310       -3.26740       -0.54020
C         -3.10730       -4.45700        0.64410
C         -4.30800       -5.32640        0.50040
C         -4.19930       -6.23040       -0.72830
C         -2.17130       -4.45010        1.63520
C         -1.12560       -3.52080        1.47550
F         -2.24150       -5.26890        2.69980
C          1.01890       -1.92220       -0.09560
S          1.85180       -3.21680        0.72390
C         -2.15870       -0.19590       -1.04570
C         -2.26820        0.99570       -1.70730
S         -0.71230        1.61710       -2.20700
C         -3.45780        1.73900       -1.95830
S         -3.35950        3.35930       -2.61610
C         -5.07590        3.53050       -2.50840
C         -5.97230        4.55760       -2.78180
C         -7.27360        4.19610       -2.48210
S         -7.37230        2.53450       -1.88200
C         -5.66640        2.36110       -2.00230
C         -4.75430        1.35100       -1.69360
C         -8.49930        4.89390       -2.55570
C         -8.77090        6.20990       -2.78970
C         -7.83240        7.34710       -2.94020
O         -6.64260        7.32810       -3.17490
C         -8.64840        8.55990       -2.72450
C         -8.22390        9.87100       -2.64600
C         -9.17510       10.84000       -2.36060
C        -10.49510       10.49840       -2.11910
C        -10.93280        9.17160       -2.18870
O        -12.17270        8.75440       -1.87940
C        -13.18500        9.69530       -1.60110
C         -9.99340        8.19700       -2.55200
C        -10.12340        6.76480       -2.76950
C        -11.26630        6.07940       -3.07850
C        -11.30910        4.70260       -3.39710
N        -11.43060        3.59690       -3.68200
C        -12.55200        6.63470       -3.26790
N        -13.62450        6.96360       -3.51270
H         10.56640       -5.34640        2.16890
H         12.66970       -8.98020        5.44650
H         11.80120      -10.22680        7.42460
H          9.62210       -9.70960        8.35850
H          8.07270       -8.29410        9.43380
H          6.47030       -7.92930        8.75600
H          7.24910       -9.49300        8.38870
H          3.92700       -4.70260        2.05760
H          9.16850       -3.42290        0.95330
H          4.12900       -0.89540       -0.87980
H          3.88720        1.38790       -0.45540
H          4.01430        2.83360       -5.62980
H          5.03470        3.77770       -4.53010
H          3.40640        5.23050       -5.74340
H          2.06520        4.29430       -5.07290
H          3.09300        5.25550       -4.00550
H         -5.20230       -4.70350        0.40990
H         -4.40250       -5.93280        1.40370
H         -3.32680       -6.87510       -0.64900
H         -4.10590       -5.62980       -1.63080
H         -5.08550       -6.85350       -0.81440
H         -0.34170       -3.39560        2.19830
H         -3.00860       -0.71320       -0.64370
H         -5.70640        5.52410       -3.16730
H         -5.02330        0.39020       -1.29760
H         -9.35290        4.26560       -2.32620
H         -7.18610       10.11850       -2.80030
H         -8.88500       11.87840       -2.30280
H        -11.19550       11.27750       -1.86220
H        -12.97850       10.24090       -0.67520
H        -13.31240       10.39860       -2.42810
H        -14.09430        9.10790       -1.48750
