208

C          2.80710       -0.31980        7.18830
C          4.09780       -0.17990        7.63160
C          4.52200       -0.86180        8.87420
O          3.81730       -1.42460        9.68400
C          6.00130       -0.78870        8.86330
C          6.89810       -1.37640        9.72080
C          8.26940       -1.22840        9.46490
O          9.09370       -1.87380       10.31860
C         10.48210       -1.84890       10.07850
C          8.68800       -0.45090        8.38430
C          7.77470        0.16710        7.54320
C          6.42110       -0.01520        7.76420
C          5.24550        0.45750        7.04830
C          5.20370        1.48920        6.13540
C          6.33910        2.05690        5.53480
N          7.22730        2.51990        4.97050
C          4.00830        2.12020        5.75890
N          3.06170        2.69470        5.44700
C          2.26160       -0.21710        5.90110
C          2.81080       -0.26010        4.60500
N          4.11060       -0.52450        4.24460
C          4.54290       -0.11930        2.95100
C          4.99130       -1.07650        2.04370
C          5.48580       -0.68910        0.81730
C          5.55390        0.66070        0.48580
S          6.26810        1.10140       -1.06830
C          7.17660        2.61730       -0.63130
C          5.06830        1.61380        1.37090
C          4.56030        1.22540        2.59450
C          4.97190       -1.37480        4.94570
C          4.50620       -2.37770        5.79300
C          5.38640       -3.16920        6.50570
C          6.75540       -2.98380        6.37480
S          7.96620       -3.87470        7.28960
C          6.99760       -4.74060        8.55520
C          7.22910       -2.03280        5.47030
C          6.35440       -1.23660        4.77220
C          1.79850       -0.06230        3.63710
S          1.79290        0.06020        1.91400
C          0.04290        0.29380        1.89380
C         -0.49720        0.27910        3.17100
N         -1.82310        0.49500        3.52860
C         -2.55280        1.55900        2.98860
C         -3.94980        1.53530        2.99340
C         -4.67160        2.60110        2.50880
C         -4.02290        3.71550        1.97860
S         -5.05520        5.00700        1.35980
C         -3.89700        6.11130        0.50170
C         -2.63570        3.73990        1.95420
C         -1.91130        2.67650        2.46010
C         -2.30090       -0.23340        4.62930
C         -3.14680        0.32780        5.58220
C         -3.61720       -0.42470        6.64110
C         -3.22520       -1.74820        6.78730
S         -3.79900       -2.81870        8.07080
C         -4.55460       -1.68720        9.27130
C         -2.33980       -2.30040        5.86630
C         -1.89030       -1.55700        4.80010
C          0.51440        0.06320        4.14190
S          0.49980       -0.05420        5.85870
C         -0.48850        0.58890        0.59910
C         -1.67870        0.30050       -0.05310
N         -2.77060       -0.39210        0.44190
C         -4.03250       -0.03510       -0.07250
C         -4.96690       -0.99450       -0.44920
C         -6.19970       -0.62070       -0.94780
C         -6.51850        0.72350       -1.08980
S         -8.06510        1.31790       -1.69210
C         -8.86610       -0.16460       -2.36940
C         -5.57820        1.68780       -0.73420
C         -4.35120        1.31310       -0.23820
C         -2.63890       -1.54110        1.22720
C         -3.68090       -1.93090        2.06720
C         -3.60800       -3.09440        2.80460
C         -2.47720       -3.89620        2.72840
S         -2.25770       -5.38620        3.64840
C         -3.81460       -5.57750        4.56100
C         -1.42440       -3.50580        1.90300
C         -1.50180       -2.34750        1.16000
C         -1.65280        0.79420       -1.38810
S         -2.74280        0.67620       -2.72890
C         -1.62720        1.57380       -3.73590
C         -0.43730        1.87610       -3.09070
N          0.68120        2.42900       -3.68250
C          0.94720        2.20950       -5.04420
C          1.39950        3.24990       -5.84890
C          1.52800        3.07970       -7.21410
C          1.19370        1.86540       -7.79810
S          1.16650        1.57080       -9.53730
C          1.36630        3.22250      -10.26320
C          0.83220        0.79430       -6.98180
C          0.71950        0.95910       -5.62070
C          1.57800        3.15730       -2.89280
C          2.95360        3.03360       -3.08440
C          3.82940        3.68310       -2.24410
C          3.35030        4.46130       -1.19390
S          4.53290        5.20070       -0.10340
C          3.59840        5.36880        1.44590
C          1.98360        4.64170       -1.03980
C          1.10490        3.99680       -1.88650
C         -0.47900        1.43330       -1.74580
S          0.65470        1.43760       -0.44880
C         -1.94930        1.83570       -5.11530
C         -2.36730        0.80250       -5.97530
N         -2.60200       -0.49190       -5.71750
N         -2.83040       -1.01290       -6.88560
C         -3.15570       -2.40040       -7.05560
C         -2.10850       -3.08730       -7.92370
N         -2.75870       -0.20900       -7.91160
C         -2.47240        0.98720       -7.38360
C         -2.22160        2.23820       -7.99720
C         -1.89120        3.26430       -7.10580
C         -1.77400        3.07470       -5.72180
Cl        -1.39410        4.43010       -4.73150
Cl        -1.61040        4.84530       -7.71640
C         -2.15200        2.43640       -9.40950
C         -2.63180        1.68700      -10.43440
C         -1.99960        1.82340      -11.77780
O         -1.26770        2.71030      -12.15220
C         -2.41080        0.61060      -12.51610
C         -2.01170        0.18220      -13.75880
C         -2.52940       -1.02410      -14.25320
O         -2.09550       -1.38650      -15.47950
C         -2.57370       -2.58060      -16.05560
C         -3.43180       -1.75660      -13.47860
C         -3.83690       -1.31210      -12.22900
C         -3.32880       -0.12220      -11.73520
C         -3.58330        0.60050      -10.49950
C         -4.64350        0.41180       -9.65220
C         -5.50730       -0.69620       -9.70840
N         -6.19550       -1.61570       -9.66940
C         -4.98850        1.32330       -8.63380
N         -5.32910        2.05560       -7.81790
H          2.10090       -0.62530        7.95550
H          6.57100       -1.95030       10.57360
H         10.72110       -2.27180        9.09810
H         10.92510       -2.46700       10.85750
H         10.88460       -0.83400       10.15090
H          9.73920       -0.32250        8.18250
H          8.13080        0.76170        6.71690
H          4.96320       -2.12160        2.31500
H          5.83950       -1.42550        0.11260
H          6.50250        3.46390       -0.54240
H          7.87840        2.78750       -1.44160
H          7.71210        2.45000        0.29770
H          5.09370        2.66010        1.11400
H          4.18240        1.96900        3.27820
H          3.44650       -2.55470        5.89120
H          4.98450       -3.92580        7.15950
H          6.35420       -4.03060        9.06580
H          7.72260       -5.15170        9.25070
H          6.42360       -5.54430        8.10290
H          8.29340       -1.91420        5.34180
H          6.73750       -0.48040        4.10390
H         -4.46800        0.67390        3.38410
H         -5.75020        2.57790        2.51810
H         -3.23070        6.58700        1.21550
H         -4.51400        6.86300        0.01930
H         -3.34310        5.55340       -0.24770
H         -2.09970        4.58750        1.55790
H         -0.83350        2.73260        2.46380
H         -3.43780        1.36410        5.50170
H         -4.28250        0.04000        7.35090
H         -5.47110       -1.26590        8.86810
H         -4.78180       -2.29270       10.14320
H         -3.84340       -0.90980        9.53380
H         -2.00600       -3.31840        5.99550
H         -1.21020       -1.99940        4.08970
H         -4.72660       -2.04340       -0.35770
H         -6.90020       -1.39100       -1.22770
H         -9.76530        0.18970       -2.86360
H         -8.20820       -0.63630       -3.09300
H         -9.13330       -0.84930       -1.56950
H         -5.82490        2.73180       -0.84790
H         -3.62050        2.06250        0.01920
H         -4.56570       -1.31720        2.13520
H         -4.43610       -3.35700        3.44230
H         -3.70910       -6.50060        5.12260
H         -3.95450       -4.74570        5.24580
H         -4.64320       -5.66310        3.86400
H         -0.54490       -4.12920        1.84430
H         -0.68610       -2.07920        0.50620
H          1.62550        4.20750       -5.40420
H          1.87050        3.90870       -7.81150
H          1.03410        3.13180      -11.29320
H          2.40940        3.52380      -10.22610
H          0.73400        3.93190       -9.73940
H          0.63090       -0.16390       -7.43680
H          0.42730        0.12780       -4.99620
H          3.32930        2.40340       -3.87610
H          4.89240        3.56990       -2.38480
H          4.33840        5.49220        2.23100
H          3.02040        4.46540        1.61630
H          2.95760        6.24520        1.40790
H          1.59390        5.28300       -0.26530
H          0.04140        4.14410       -1.77080
H         -3.20190       -2.83680       -6.05690
H         -4.13820       -2.46700       -7.53340
H         -2.03690       -2.58160       -8.88350
H         -2.39000       -4.12280       -8.09000
H         -1.13490       -3.06200       -7.44010
H         -1.53660        3.27270       -9.72530
H         -1.31660        0.75120      -14.35480
H         -3.65940       -2.55490      -16.18890
H         -2.29840       -3.45320      -15.45560
H         -2.09290       -2.64790      -17.02990
H         -3.83180       -2.68870      -13.84510
H         -4.53270       -1.90420      -11.65600
