223

C         -6.38820        5.53060       -1.95740
C         -7.74200        5.56940       -1.70410
C         -8.53150        4.50030       -1.09860
O         -8.14910        3.39850       -0.73350
C         -9.89940        5.03310       -0.95010
C        -11.01400        4.40790       -0.44790
C        -12.22050        5.12180       -0.40680
O        -13.27820        4.45080        0.10100
C        -14.53320        5.08870        0.16020
C        -12.25760        6.43580       -0.87410
C        -11.12470        7.05610       -1.38290
C         -9.92970        6.35850       -1.42560
C         -8.59880        6.71820       -1.90320
C         -8.25340        7.93070       -2.45090
C         -6.99060        8.27260       -2.97090
N         -5.99970        8.62800       -3.43430
C         -9.14600        9.01320       -2.58280
N         -9.82320        9.93140       -2.71550
C         -5.48530        4.47430       -1.86240
C         -4.10150        4.62200       -2.12300
N         -3.44270        5.80700       -2.35050
C         -2.28470        5.74740       -3.14580
C         -1.10390        6.37470       -2.76300
C          0.05260        6.20520       -3.49890
C          0.04960        5.40200       -4.63190
S          1.47760        5.03410       -5.59540
C          2.83780        5.82010       -4.69060
C         -1.14900        4.82870       -5.05610
C         -2.30250        5.00290       -4.32760
C         -3.65990        6.92770       -1.52830
C         -3.49240        8.21390       -2.03870
C         -3.62700        9.30570       -1.20950
C         -3.93690        9.13570        0.13770
S         -4.04520       10.58790        1.13330
C         -3.83720        9.94090        2.82000
C         -4.14310        7.85650        0.63810
C         -3.99460        6.76200       -0.18750
C         -3.44740        3.38550       -2.07100
S         -1.78120        2.94540       -2.15350
C         -2.17450        1.31070       -1.63500
C         -3.55340        1.09400       -1.58900
N         -4.17270       -0.13840       -1.42210
C         -5.38480       -0.13240       -0.70550
C         -5.44630        0.55020        0.50660
C         -6.64200        0.67180        1.18390
C         -7.79600        0.10880        0.65720
S         -9.36960        0.27760        1.44120
C         -9.25040        1.96330        2.11380
C         -7.72900       -0.61830       -0.52610
C         -6.53720       -0.73420       -1.20690
C         -3.87290       -1.19170       -2.29320
C         -4.17480       -2.50710       -1.93050
C         -3.89350       -3.54780       -2.78640
C         -3.29250       -3.30620       -4.01920
S         -3.00580       -4.68880       -5.08040
C         -1.64030       -4.12340       -6.13560
C         -2.98160       -2.00480       -4.38270
C         -3.27240       -0.95980       -3.52950
C         -4.26540        2.30640       -1.76450
S         -5.90650        2.79330       -1.50710
C         -1.10060        0.46340       -1.26490
C          0.21030        0.86950       -1.01110
N          0.69060        2.18350       -1.01320
C          0.19610        3.12770       -0.11760
C          0.41160        4.49170       -0.33780
C         -0.14340        5.43190        0.49790
C         -0.94500        5.04620        1.56950
S         -1.62570        6.34880        2.55260
C         -2.82140        5.50020        3.62510
C         -1.15220        3.69560        1.80590
C         -0.58200        2.74950        0.97570
C          1.83440        2.42050       -1.79450
C          2.94930        3.07410       -1.28060
C          4.06340        3.28760       -2.06970
C          4.08280        2.83720       -3.38330
S          5.43610        3.08070       -4.49150
C          6.77720        3.67180       -3.41950
C          2.97190        2.17070       -3.89690
C          1.86090        1.96340       -3.11160
C          1.02580       -0.22300       -0.66350
S          2.68850       -0.41230       -0.25260
C          2.45040       -2.13040        0.09950
C          1.13950       -2.51110       -0.11160
N          0.58270       -3.80270        0.02570
C         -0.27980       -4.04210        1.09510
C         -0.58260       -3.04000        2.02180
C         -1.38860       -3.30280        3.10750
C         -1.91350       -4.57410        3.31340
S         -2.93530       -4.79020        4.74120
C         -3.60850       -6.46410        4.54220
C         -1.59190       -5.58490        2.41900
C         -0.78430       -5.32200        1.33050
C          0.49850       -4.53010       -1.17910
C         -0.70340       -5.06570       -1.63250
C         -0.74880       -5.82010       -2.78800
C          0.40350       -6.01800       -3.53580
S          0.45040       -6.96090       -5.03060
C         -1.09180       -7.91910       -4.97580
C          1.59590       -5.43060       -3.12180
C          1.64540       -4.69880       -1.95500
C          0.35120       -1.42830       -0.56360
S         -1.32240       -1.25510       -0.96300
C          3.64740       -2.81140        0.50820
C          3.89900       -3.77600        1.47670
C          2.82280       -4.48770        2.23400
C          2.48160       -5.84010        1.60620
C          5.28010       -3.97020        1.65650
C          6.05470       -3.18430        0.80830
S          5.12030       -2.18240       -0.21630
C          7.42240       -3.39400        1.07500
C          7.54420       -4.31830        2.12180
C          6.17880       -4.75450        2.60580
C          5.93390       -6.27270        2.46830
C          7.15210       -7.16690        2.67210
C          5.93670       -4.21580        4.03560
C          6.77140       -4.85210        5.13820
C          8.86030       -4.53480        2.48320
C          9.75970       -3.78700        1.72670
S          8.92210       -2.80710        0.51580
C         11.15890       -3.68340        1.75500
C         12.08840       -4.17000        2.64010
C         11.86750       -4.84610        3.93410
O         10.83210       -5.25550        4.42540
C         13.19550       -4.92320        4.57540
C         13.49400       -5.42460        5.82560
C         14.82490       -5.39090        6.24340
O         15.27010       -5.83990        7.43730
C         14.33990       -6.38050        8.34840
C         15.80280       -4.85830        5.39080
C         15.49320       -4.36320        4.14040
C         14.16880       -4.39170        3.71740
C         13.52090       -3.95940        2.48720
C         14.17750       -3.49240        1.37660
C         13.59200       -3.14500        0.14150
N         13.21100       -2.86140       -0.90520
C         15.57590       -3.32120        1.30550
N         16.70410       -3.15060        1.17730
H         -5.93750        6.45650       -2.29220
H        -10.98150        3.38820       -0.09960
H        -15.21430        4.35470        0.58730
H        -14.50380        5.97300        0.80420
H        -14.88580        5.37300       -0.83580
H        -13.17800        6.99700       -0.84950
H        -11.19800        8.07170       -1.73570
H         -1.08590        6.97700       -1.86820
H          0.95410        6.69520       -3.16780
H          3.74050        5.52970       -5.21940
H          2.72670        6.90040       -4.71020
H          2.87010        5.43860       -3.67390
H         -1.15650        4.23920       -5.95980
H         -3.22640        4.55130       -4.65780
H         -3.24960        8.34780       -3.08060
H         -3.49250       10.30280       -1.59770
H         -2.99570        9.25440        2.84140
H         -3.63020       10.80510        3.44320
H         -4.75100        9.45900        3.15660
H         -4.40260        7.70040        1.67220
H         -4.12550        5.76670        0.21180
H         -4.54810        0.99870        0.90690
H         -6.67010        1.21130        2.11720
H        -10.26870        2.28710        2.30580
H         -8.68670        1.96560        3.04240
H         -8.78350        2.59430        1.36300
H         -8.62850       -1.06250       -0.92330
H         -6.50290       -1.26080       -2.14880
H         -4.62430       -2.70220       -0.96880
H         -4.13660       -4.56170       -2.50810
H         -2.00480       -3.42800       -6.88610
H         -0.87430       -3.67110       -5.51290
H         -1.24390       -5.01000       -6.62070
H         -2.52960       -1.78820       -5.33760
H         -3.04370        0.04960       -3.83760
H          0.99210        4.80660       -1.19010
H          0.02580        6.48380        0.32480
H         -2.30400        4.84730        4.32220
H         -3.53070        4.94540        3.01760
H         -3.33530        6.28330        4.17420
H         -1.75160        3.35930        2.63710
H         -0.75300        1.70250        1.17810
H          2.94540        3.41380       -0.25550
H          4.91070        3.80110       -1.64440
H          7.65880        3.71210       -4.05160
H          6.55120        4.66540       -3.04270
H          6.93590        2.96680       -2.60910
H          2.99030        1.83030       -4.92030
H          0.99710        1.45460       -3.51290
H         -0.18220       -2.04530        1.89920
H         -1.62060       -2.51820        3.81140
H         -4.11430       -6.54540        3.58460
H         -4.32310       -6.58970        5.34960
H         -2.81650       -7.20180        4.63530
H         -1.95530       -6.59030        2.55980
H         -0.53170       -6.12940        0.66090
H         -1.61380       -4.88340       -1.08180
H         -1.69340       -6.22910       -3.10530
H         -1.94970       -7.26940       -5.12410
H         -1.02270       -8.63120       -5.79230
H         -1.15560       -8.44560       -4.02840
H          2.48520       -5.56580       -3.71820
H          2.57890       -4.26010       -1.63550
H          3.14830       -4.65060        3.26190
H          1.92870       -3.86550        2.26190
H          2.20020       -5.71970        0.56450
H          1.64930       -6.28890        2.14200
H          3.32960       -6.51560        1.65490
H          5.55740       -6.45870        1.45940
H          5.15360       -6.55660        3.17680
H          6.84150       -8.20820        2.60940
H          7.89430       -6.98980        1.89820
H          7.61710       -7.00860        3.63900
H          4.88170       -4.35270        4.27850
H          6.13050       -3.13980        4.01750
H          7.83430       -4.74030        4.94900
H          6.54400       -4.35990        6.08190
H          6.53710       -5.90710        5.24770
H          9.20550       -5.19530        3.25480
H         11.55340       -3.08250        0.94400
H         12.69860       -5.82250        6.43520
H         14.91900       -6.66450        9.22530
H         13.58570       -5.64170        8.63540
H         13.84590       -7.26600        7.93750
H         16.82090       -4.84510        5.74630
H         16.27620       -3.95950        3.52020
