
  xtb     02072223243D
 energy: -366.561164350851 gnorm: 0.000944837907 xtb: 6.4.1 (unknown)
223241  0     0  0            999 V2000
   -6.3882    5.5306   -1.9574 C   0  0  0  0  0  0  0  0  0  0  0  0
   -7.7420    5.5694   -1.7041 C   0  0  0  0  0  0  0  0  0  0  0  0
   -8.5315    4.5003   -1.0986 C   0  0  0  0  0  0  0  0  0  0  0  0
   -8.1491    3.3985   -0.7335 O   0  0  0  0  0  0  0  0  0  0  0  0
   -9.8994    5.0331   -0.9501 C   0  0  0  0  0  0  0  0  0  0  0  0
  -11.0140    4.4079   -0.4479 C   0  0  0  0  0  0  0  0  0  0  0  0
  -12.2205    5.1218   -0.4068 C   0  0  0  0  0  0  0  0  0  0  0  0
  -13.2782    4.4508    0.1010 O   0  0  0  0  0  0  0  0  0  0  0  0
  -14.5332    5.0887    0.1602 C   0  0  0  0  0  0  0  0  0  0  0  0
  -12.2576    6.4358   -0.8741 C   0  0  0  0  0  0  0  0  0  0  0  0
  -11.1247    7.0561   -1.3829 C   0  0  0  0  0  0  0  0  0  0  0  0
   -9.9297    6.3585   -1.4256 C   0  0  0  0  0  0  0  0  0  0  0  0
   -8.5988    6.7182   -1.9032 C   0  0  0  0  0  0  0  0  0  0  0  0
   -8.2534    7.9307   -2.4509 C   0  0  0  0  0  0  0  0  0  0  0  0
   -6.9906    8.2726   -2.9709 C   0  0  0  0  0  0  0  0  0  0  0  0
   -5.9997    8.6280   -3.4343 N   0  0  0  0  0  0  0  0  0  0  0  0
   -9.1460    9.0132   -2.5828 C   0  0  0  0  0  0  0  0  0  0  0  0
   -9.8232    9.9314   -2.7155 N   0  0  0  0  0  0  0  0  0  0  0  0
   -5.4853    4.4743   -1.8624 C   0  0  0  0  0  0  0  0  0  0  0  0
   -4.1015    4.6220   -2.1230 C   0  0  0  0  0  0  0  0  0  0  0  0
   -3.4427    5.8070   -2.3505 N   0  0  0  0  0  0  0  0  0  0  0  0
   -2.2847    5.7474   -3.1458 C   0  0  0  0  0  0  0  0  0  0  0  0
   -1.1039    6.3747   -2.7630 C   0  0  0  0  0  0  0  0  0  0  0  0
    0.0526    6.2052   -3.4989 C   0  0  0  0  0  0  0  0  0  0  0  0
    0.0496    5.4020   -4.6319 C   0  0  0  0  0  0  0  0  0  0  0  0
    1.4776    5.0341   -5.5954 S   0  0  0  0  0  0  0  0  0  0  0  0
    2.8378    5.8201   -4.6906 C   0  0  0  0  0  0  0  0  0  0  0  0
   -1.1490    4.8287   -5.0561 C   0  0  0  0  0  0  0  0  0  0  0  0
   -2.3025    5.0029   -4.3276 C   0  0  0  0  0  0  0  0  0  0  0  0
   -3.6599    6.9277   -1.5283 C   0  0  0  0  0  0  0  0  0  0  0  0
   -3.4924    8.2139   -2.0387 C   0  0  0  0  0  0  0  0  0  0  0  0
   -3.6270    9.3057   -1.2095 C   0  0  0  0  0  0  0  0  0  0  0  0
   -3.9369    9.1357    0.1377 C   0  0  0  0  0  0  0  0  0  0  0  0
   -4.0452   10.5879    1.1333 S   0  0  0  0  0  0  0  0  0  0  0  0
   -3.8372    9.9409    2.8200 C   0  0  0  0  0  0  0  0  0  0  0  0
   -4.1431    7.8565    0.6381 C   0  0  0  0  0  0  0  0  0  0  0  0
   -3.9946    6.7620   -0.1875 C   0  0  0  0  0  0  0  0  0  0  0  0
   -3.4474    3.3855   -2.0710 C   0  0  0  0  0  0  0  0  0  0  0  0
   -1.7812    2.9454   -2.1535 S   0  0  0  0  0  0  0  0  0  0  0  0
   -2.1745    1.3107   -1.6350 C   0  0  0  0  0  0  0  0  0  0  0  0
   -3.5534    1.0940   -1.5890 C   0  0  0  0  0  0  0  0  0  0  0  0
   -4.1727   -0.1384   -1.4221 N   0  0  0  0  0  0  0  0  0  0  0  0
   -5.3848   -0.1324   -0.7055 C   0  0  0  0  0  0  0  0  0  0  0  0
   -5.4463    0.5502    0.5066 C   0  0  0  0  0  0  0  0  0  0  0  0
   -6.6420    0.6718    1.1839 C   0  0  0  0  0  0  0  0  0  0  0  0
   -7.7960    0.1088    0.6572 C   0  0  0  0  0  0  0  0  0  0  0  0
   -9.3696    0.2776    1.4412 S   0  0  0  0  0  0  0  0  0  0  0  0
   -9.2504    1.9633    2.1138 C   0  0  0  0  0  0  0  0  0  0  0  0
   -7.7290   -0.6183   -0.5261 C   0  0  0  0  0  0  0  0  0  0  0  0
   -6.5372   -0.7342   -1.2069 C   0  0  0  0  0  0  0  0  0  0  0  0
   -3.8729   -1.1917   -2.2932 C   0  0  0  0  0  0  0  0  0  0  0  0
   -4.1748   -2.5071   -1.9305 C   0  0  0  0  0  0  0  0  0  0  0  0
   -3.8935   -3.5478   -2.7864 C   0  0  0  0  0  0  0  0  0  0  0  0
   -3.2925   -3.3062   -4.0192 C   0  0  0  0  0  0  0  0  0  0  0  0
   -3.0058   -4.6888   -5.0804 S   0  0  0  0  0  0  0  0  0  0  0  0
   -1.6403   -4.1234   -6.1356 C   0  0  0  0  0  0  0  0  0  0  0  0
   -2.9816   -2.0048   -4.3827 C   0  0  0  0  0  0  0  0  0  0  0  0
   -3.2724   -0.9598   -3.5295 C   0  0  0  0  0  0  0  0  0  0  0  0
   -4.2654    2.3064   -1.7645 C   0  0  0  0  0  0  0  0  0  0  0  0
   -5.9065    2.7933   -1.5071 S   0  0  0  0  0  0  0  0  0  0  0  0
   -1.1006    0.4634   -1.2649 C   0  0  0  0  0  0  0  0  0  0  0  0
    0.2103    0.8695   -1.0111 C   0  0  0  0  0  0  0  0  0  0  0  0
    0.6906    2.1835   -1.0132 N   0  0  0  0  0  0  0  0  0  0  0  0
    0.1961    3.1277   -0.1176 C   0  0  0  0  0  0  0  0  0  0  0  0
    0.4116    4.4917   -0.3378 C   0  0  0  0  0  0  0  0  0  0  0  0
   -0.1434    5.4319    0.4979 C   0  0  0  0  0  0  0  0  0  0  0  0
   -0.9450    5.0462    1.5695 C   0  0  0  0  0  0  0  0  0  0  0  0
   -1.6257    6.3488    2.5526 S   0  0  0  0  0  0  0  0  0  0  0  0
   -2.8214    5.5002    3.6251 C   0  0  0  0  0  0  0  0  0  0  0  0
   -1.1522    3.6956    1.8059 C   0  0  0  0  0  0  0  0  0  0  0  0
   -0.5820    2.7495    0.9757 C   0  0  0  0  0  0  0  0  0  0  0  0
    1.8344    2.4205   -1.7945 C   0  0  0  0  0  0  0  0  0  0  0  0
    2.9493    3.0741   -1.2806 C   0  0  0  0  0  0  0  0  0  0  0  0
    4.0634    3.2876   -2.0697 C   0  0  0  0  0  0  0  0  0  0  0  0
    4.0828    2.8372   -3.3833 C   0  0  0  0  0  0  0  0  0  0  0  0
    5.4361    3.0807   -4.4915 S   0  0  0  0  0  0  0  0  0  0  0  0
    6.7772    3.6718   -3.4195 C   0  0  0  0  0  0  0  0  0  0  0  0
    2.9719    2.1707   -3.8969 C   0  0  0  0  0  0  0  0  0  0  0  0
    1.8609    1.9634   -3.1116 C   0  0  0  0  0  0  0  0  0  0  0  0
    1.0258   -0.2230   -0.6635 C   0  0  0  0  0  0  0  0  0  0  0  0
    2.6885   -0.4123   -0.2526 S   0  0  0  0  0  0  0  0  0  0  0  0
    2.4504   -2.1304    0.0995 C   0  0  0  0  0  0  0  0  0  0  0  0
    1.1395   -2.5111   -0.1116 C   0  0  0  0  0  0  0  0  0  0  0  0
    0.5827   -3.8027    0.0257 N   0  0  0  0  0  0  0  0  0  0  0  0
   -0.2798   -4.0421    1.0951 C   0  0  0  0  0  0  0  0  0  0  0  0
   -0.5826   -3.0400    2.0218 C   0  0  0  0  0  0  0  0  0  0  0  0
   -1.3886   -3.3028    3.1075 C   0  0  0  0  0  0  0  0  0  0  0  0
   -1.9135   -4.5741    3.3134 C   0  0  0  0  0  0  0  0  0  0  0  0
   -2.9353   -4.7902    4.7412 S   0  0  0  0  0  0  0  0  0  0  0  0
   -3.6085   -6.4641    4.5422 C   0  0  0  0  0  0  0  0  0  0  0  0
   -1.5919   -5.5849    2.4190 C   0  0  0  0  0  0  0  0  0  0  0  0
   -0.7843   -5.3220    1.3305 C   0  0  0  0  0  0  0  0  0  0  0  0
    0.4985   -4.5301   -1.1791 C   0  0  0  0  0  0  0  0  0  0  0  0
   -0.7034   -5.0657   -1.6325 C   0  0  0  0  0  0  0  0  0  0  0  0
   -0.7488   -5.8201   -2.7880 C   0  0  0  0  0  0  0  0  0  0  0  0
    0.4035   -6.0180   -3.5358 C   0  0  0  0  0  0  0  0  0  0  0  0
    0.4504   -6.9609   -5.0306 S   0  0  0  0  0  0  0  0  0  0  0  0
   -1.0918   -7.9191   -4.9758 C   0  0  0  0  0  0  0  0  0  0  0  0
    1.5959   -5.4306   -3.1218 C   0  0  0  0  0  0  0  0  0  0  0  0
    1.6454   -4.6988   -1.9550 C   0  0  0  0  0  0  0  0  0  0  0  0
    0.3512   -1.4283   -0.5636 C   0  0  0  0  0  0  0  0  0  0  0  0
   -1.3224   -1.2551   -0.9630 S   0  0  0  0  0  0  0  0  0  0  0  0
    3.6474   -2.8114    0.5082 C   0  0  0  0  0  0  0  0  0  0  0  0
    3.8990   -3.7760    1.4767 C   0  0  0  0  0  0  0  0  0  0  0  0
    2.8228   -4.4877    2.2340 C   0  0  0  0  0  0  0  0  0  0  0  0
    2.4816   -5.8401    1.6062 C   0  0  0  0  0  0  0  0  0  0  0  0
    5.2801   -3.9702    1.6565 C   0  0  0  0  0  0  0  0  0  0  0  0
    6.0547   -3.1843    0.8083 C   0  0  0  0  0  0  0  0  0  0  0  0
    5.1203   -2.1824   -0.2163 S   0  0  0  0  0  0  0  0  0  0  0  0
    7.4224   -3.3940    1.0750 C   0  0  0  0  0  0  0  0  0  0  0  0
    7.5442   -4.3183    2.1218 C   0  0  0  0  0  0  0  0  0  0  0  0
    6.1788   -4.7545    2.6058 C   0  0  0  0  0  0  0  0  0  0  0  0
    5.9339   -6.2727    2.4683 C   0  0  0  0  0  0  0  0  0  0  0  0
    7.1521   -7.1669    2.6721 C   0  0  0  0  0  0  0  0  0  0  0  0
    5.9367   -4.2158    4.0356 C   0  0  0  0  0  0  0  0  0  0  0  0
    6.7714   -4.8521    5.1382 C   0  0  0  0  0  0  0  0  0  0  0  0
    8.8603   -4.5348    2.4832 C   0  0  0  0  0  0  0  0  0  0  0  0
    9.7597   -3.7870    1.7267 C   0  0  0  0  0  0  0  0  0  0  0  0
    8.9221   -2.8071    0.5158 S   0  0  0  0  0  0  0  0  0  0  0  0
   11.1589   -3.6834    1.7550 C   0  0  0  0  0  0  0  0  0  0  0  0
   12.0884   -4.1700    2.6401 C   0  0  0  0  0  0  0  0  0  0  0  0
   11.8675   -4.8461    3.9341 C   0  0  0  0  0  0  0  0  0  0  0  0
   10.8321   -5.2555    4.4254 O   0  0  0  0  0  0  0  0  0  0  0  0
   13.1955   -4.9232    4.5754 C   0  0  0  0  0  0  0  0  0  0  0  0
   13.4940   -5.4246    5.8256 C   0  0  0  0  0  0  0  0  0  0  0  0
   14.8249   -5.3909    6.2434 C   0  0  0  0  0  0  0  0  0  0  0  0
   15.2701   -5.8399    7.4373 O   0  0  0  0  0  0  0  0  0  0  0  0
   14.3399   -6.3805    8.3484 C   0  0  0  0  0  0  0  0  0  0  0  0
   15.8028   -4.8583    5.3908 C   0  0  0  0  0  0  0  0  0  0  0  0
   15.4932   -4.3632    4.1404 C   0  0  0  0  0  0  0  0  0  0  0  0
   14.1688   -4.3917    3.7174 C   0  0  0  0  0  0  0  0  0  0  0  0
   13.5209   -3.9594    2.4872 C   0  0  0  0  0  0  0  0  0  0  0  0
   14.1775   -3.4924    1.3766 C   0  0  0  0  0  0  0  0  0  0  0  0
   13.5920   -3.1450    0.1415 C   0  0  0  0  0  0  0  0  0  0  0  0
   13.2110   -2.8614   -0.9052 N   0  0  0  0  0  0  0  0  0  0  0  0
   15.5759   -3.3212    1.3055 C   0  0  0  0  0  0  0  0  0  0  0  0
   16.7041   -3.1506    1.1773 N   0  0  0  0  0  0  0  0  0  0  0  0
   -5.9375    6.4565   -2.2922 H   0  0  0  0  0  0  0  0  0  0  0  0
  -10.9815    3.3882   -0.0996 H   0  0  0  0  0  0  0  0  0  0  0  0
  -15.2143    4.3547    0.5873 H   0  0  0  0  0  0  0  0  0  0  0  0
  -14.5038    5.9730    0.8042 H   0  0  0  0  0  0  0  0  0  0  0  0
  -14.8858    5.3730   -0.8358 H   0  0  0  0  0  0  0  0  0  0  0  0
  -13.1780    6.9970   -0.8495 H   0  0  0  0  0  0  0  0  0  0  0  0
  -11.1980    8.0717   -1.7357 H   0  0  0  0  0  0  0  0  0  0  0  0
   -1.0859    6.9770   -1.8682 H   0  0  0  0  0  0  0  0  0  0  0  0
    0.9541    6.6952   -3.1678 H   0  0  0  0  0  0  0  0  0  0  0  0
    3.7405    5.5297   -5.2194 H   0  0  0  0  0  0  0  0  0  0  0  0
    2.7267    6.9004   -4.7102 H   0  0  0  0  0  0  0  0  0  0  0  0
    2.8701    5.4386   -3.6739 H   0  0  0  0  0  0  0  0  0  0  0  0
   -1.1565    4.2392   -5.9598 H   0  0  0  0  0  0  0  0  0  0  0  0
   -3.2264    4.5513   -4.6578 H   0  0  0  0  0  0  0  0  0  0  0  0
   -3.2496    8.3478   -3.0806 H   0  0  0  0  0  0  0  0  0  0  0  0
   -3.4925   10.3028   -1.5977 H   0  0  0  0  0  0  0  0  0  0  0  0
   -2.9957    9.2544    2.8414 H   0  0  0  0  0  0  0  0  0  0  0  0
   -3.6302   10.8051    3.4432 H   0  0  0  0  0  0  0  0  0  0  0  0
   -4.7510    9.4590    3.1566 H   0  0  0  0  0  0  0  0  0  0  0  0
   -4.4026    7.7004    1.6722 H   0  0  0  0  0  0  0  0  0  0  0  0
   -4.1255    5.7667    0.2118 H   0  0  0  0  0  0  0  0  0  0  0  0
   -4.5481    0.9987    0.9069 H   0  0  0  0  0  0  0  0  0  0  0  0
   -6.6701    1.2113    2.1172 H   0  0  0  0  0  0  0  0  0  0  0  0
  -10.2687    2.2871    2.3058 H   0  0  0  0  0  0  0  0  0  0  0  0
   -8.6867    1.9656    3.0424 H   0  0  0  0  0  0  0  0  0  0  0  0
   -8.7835    2.5943    1.3630 H   0  0  0  0  0  0  0  0  0  0  0  0
   -8.6285   -1.0625   -0.9233 H   0  0  0  0  0  0  0  0  0  0  0  0
   -6.5029   -1.2608   -2.1488 H   0  0  0  0  0  0  0  0  0  0  0  0
   -4.6243   -2.7022   -0.9688 H   0  0  0  0  0  0  0  0  0  0  0  0
   -4.1366   -4.5617   -2.5081 H   0  0  0  0  0  0  0  0  0  0  0  0
   -2.0048   -3.4280   -6.8861 H   0  0  0  0  0  0  0  0  0  0  0  0
   -0.8743   -3.6711   -5.5129 H   0  0  0  0  0  0  0  0  0  0  0  0
   -1.2439   -5.0100   -6.6207 H   0  0  0  0  0  0  0  0  0  0  0  0
   -2.5296   -1.7882   -5.3376 H   0  0  0  0  0  0  0  0  0  0  0  0
   -3.0437    0.0496   -3.8376 H   0  0  0  0  0  0  0  0  0  0  0  0
    0.9921    4.8066   -1.1901 H   0  0  0  0  0  0  0  0  0  0  0  0
    0.0258    6.4838    0.3248 H   0  0  0  0  0  0  0  0  0  0  0  0
   -2.3040    4.8473    4.3222 H   0  0  0  0  0  0  0  0  0  0  0  0
   -3.5307    4.9454    3.0176 H   0  0  0  0  0  0  0  0  0  0  0  0
   -3.3353    6.2833    4.1742 H   0  0  0  0  0  0  0  0  0  0  0  0
   -1.7516    3.3593    2.6371 H   0  0  0  0  0  0  0  0  0  0  0  0
   -0.7530    1.7025    1.1781 H   0  0  0  0  0  0  0  0  0  0  0  0
    2.9454    3.4138   -0.2555 H   0  0  0  0  0  0  0  0  0  0  0  0
    4.9107    3.8011   -1.6444 H   0  0  0  0  0  0  0  0  0  0  0  0
    7.6588    3.7121   -4.0516 H   0  0  0  0  0  0  0  0  0  0  0  0
    6.5512    4.6654   -3.0427 H   0  0  0  0  0  0  0  0  0  0  0  0
    6.9359    2.9668   -2.6091 H   0  0  0  0  0  0  0  0  0  0  0  0
    2.9903    1.8303   -4.9203 H   0  0  0  0  0  0  0  0  0  0  0  0
    0.9971    1.4546   -3.5129 H   0  0  0  0  0  0  0  0  0  0  0  0
   -0.1822   -2.0453    1.8992 H   0  0  0  0  0  0  0  0  0  0  0  0
   -1.6206   -2.5182    3.8114 H   0  0  0  0  0  0  0  0  0  0  0  0
   -4.1143   -6.5454    3.5846 H   0  0  0  0  0  0  0  0  0  0  0  0
   -4.3231   -6.5897    5.3496 H   0  0  0  0  0  0  0  0  0  0  0  0
   -2.8165   -7.2018    4.6353 H   0  0  0  0  0  0  0  0  0  0  0  0
   -1.9553   -6.5903    2.5598 H   0  0  0  0  0  0  0  0  0  0  0  0
   -0.5317   -6.1294    0.6609 H   0  0  0  0  0  0  0  0  0  0  0  0
   -1.6138   -4.8834   -1.0818 H   0  0  0  0  0  0  0  0  0  0  0  0
   -1.6934   -6.2291   -3.1053 H   0  0  0  0  0  0  0  0  0  0  0  0
   -1.9497   -7.2694   -5.1241 H   0  0  0  0  0  0  0  0  0  0  0  0
   -1.0227   -8.6312   -5.7923 H   0  0  0  0  0  0  0  0  0  0  0  0
   -1.1556   -8.4456   -4.0284 H   0  0  0  0  0  0  0  0  0  0  0  0
    2.4852   -5.5658   -3.7182 H   0  0  0  0  0  0  0  0  0  0  0  0
    2.5789   -4.2601   -1.6355 H   0  0  0  0  0  0  0  0  0  0  0  0
    3.1483   -4.6506    3.2619 H   0  0  0  0  0  0  0  0  0  0  0  0
    1.9287   -3.8655    2.2619 H   0  0  0  0  0  0  0  0  0  0  0  0
    2.2002   -5.7197    0.5645 H   0  0  0  0  0  0  0  0  0  0  0  0
    1.6493   -6.2889    2.1420 H   0  0  0  0  0  0  0  0  0  0  0  0
    3.3296   -6.5156    1.6549 H   0  0  0  0  0  0  0  0  0  0  0  0
    5.5574   -6.4587    1.4594 H   0  0  0  0  0  0  0  0  0  0  0  0
    5.1536   -6.5566    3.1768 H   0  0  0  0  0  0  0  0  0  0  0  0
    6.8415   -8.2082    2.6094 H   0  0  0  0  0  0  0  0  0  0  0  0
    7.8943   -6.9898    1.8982 H   0  0  0  0  0  0  0  0  0  0  0  0
    7.6171   -7.0086    3.6390 H   0  0  0  0  0  0  0  0  0  0  0  0
    4.8817   -4.3527    4.2785 H   0  0  0  0  0  0  0  0  0  0  0  0
    6.1305   -3.1398    4.0175 H   0  0  0  0  0  0  0  0  0  0  0  0
    7.8343   -4.7403    4.9490 H   0  0  0  0  0  0  0  0  0  0  0  0
    6.5440   -4.3599    6.0819 H   0  0  0  0  0  0  0  0  0  0  0  0
    6.5371   -5.9071    5.2477 H   0  0  0  0  0  0  0  0  0  0  0  0
    9.2055   -5.1953    3.2548 H   0  0  0  0  0  0  0  0  0  0  0  0
   11.5534   -3.0825    0.9440 H   0  0  0  0  0  0  0  0  0  0  0  0
   12.6986   -5.8225    6.4352 H   0  0  0  0  0  0  0  0  0  0  0  0
   14.9190   -6.6645    9.2253 H   0  0  0  0  0  0  0  0  0  0  0  0
   13.5857   -5.6417    8.6354 H   0  0  0  0  0  0  0  0  0  0  0  0
   13.8459   -7.2660    7.9375 H   0  0  0  0  0  0  0  0  0  0  0  0
   16.8209   -4.8451    5.7463 H   0  0  0  0  0  0  0  0  0  0  0  0
   16.2762   -3.9595    3.5202 H   0  0  0  0  0  0  0  0  0  0  0  0
  1  2  2  0  0  0  0
  2  3  1  0  0  0  0
  3  4  2  0  0  0  0
  3  5  1  0  0  0  0
  5  6  2  0  0  0  0
  6  7  1  0  0  0  0
  7  8  1  0  0  0  0
  8  9  1  0  0  0  0
  7 10  2  0  0  0  0
 10 11  1  0  0  0  0
 11 12  2  0  0  0  0
 12 13  1  0  0  0  0
 13 14  2  0  0  0  0
 14 15  1  0  0  0  0
 15 16  3  0  0  0  0
 14 17  1  0  0  0  0
 17 18  3  0  0  0  0
  1 19  1  0  0  0  0
 19 20  2  0  0  0  0
 20 21  1  0  0  0  0
 21 22  1  0  0  0  0
 22 23  2  0  0  0  0
 23 24  1  0  0  0  0
 24 25  2  0  0  0  0
 25 26  1  0  0  0  0
 26 27  1  0  0  0  0
 25 28  1  0  0  0  0
 28 29  2  0  0  0  0
 21 30  1  0  0  0  0
 30 31  2  0  0  0  0
 31 32  1  0  0  0  0
 32 33  2  0  0  0  0
 33 34  1  0  0  0  0
 34 35  1  0  0  0  0
 33 36  1  0  0  0  0
 36 37  2  0  0  0  0
 20 38  1  0  0  0  0
 38 39  1  0  0  0  0
 39 40  1  0  0  0  0
 40 41  2  0  0  0  0
 41 42  1  0  0  0  0
 42 43  1  0  0  0  0
 43 44  2  0  0  0  0
 44 45  1  0  0  0  0
 45 46  2  0  0  0  0
 46 47  1  0  0  0  0
 47 48  1  0  0  0  0
 46 49  1  0  0  0  0
 49 50  2  0  0  0  0
 42 51  1  0  0  0  0
 51 52  2  0  0  0  0
 52 53  1  0  0  0  0
 53 54  2  0  0  0  0
 54 55  1  0  0  0  0
 55 56  1  0  0  0  0
 54 57  1  0  0  0  0
 57 58  2  0  0  0  0
 41 59  1  0  0  0  0
 59 60  1  0  0  0  0
 40 61  1  0  0  0  0
 61 62  2  0  0  0  0
 62 63  1  0  0  0  0
 63 64  1  0  0  0  0
 64 65  2  0  0  0  0
 65 66  1  0  0  0  0
 66 67  2  0  0  0  0
 67 68  1  0  0  0  0
 68 69  1  0  0  0  0
 67 70  1  0  0  0  0
 70 71  2  0  0  0  0
 63 72  1  0  0  0  0
 72 73  2  0  0  0  0
 73 74  1  0  0  0  0
 74 75  2  0  0  0  0
 75 76  1  0  0  0  0
 76 77  1  0  0  0  0
 75 78  1  0  0  0  0
 78 79  2  0  0  0  0
 62 80  1  0  0  0  0
 80 81  1  0  0  0  0
 81 82  1  0  0  0  0
 82 83  2  0  0  0  0
 83 84  1  0  0  0  0
 84 85  1  0  0  0  0
 85 86  2  0  0  0  0
 86 87  1  0  0  0  0
 87 88  2  0  0  0  0
 88 89  1  0  0  0  0
 89 90  1  0  0  0  0
 88 91  1  0  0  0  0
 91 92  2  0  0  0  0
 84 93  1  0  0  0  0
 93 94  2  0  0  0  0
 94 95  1  0  0  0  0
 95 96  2  0  0  0  0
 96 97  1  0  0  0  0
 97 98  1  0  0  0  0
 96 99  1  0  0  0  0
 99100  2  0  0  0  0
 83101  1  0  0  0  0
101102  1  0  0  0  0
 82103  1  0  0  0  0
103104  2  0  0  0  0
104105  1  0  0  0  0
105106  1  0  0  0  0
104107  1  0  0  0  0
107108  2  0  0  0  0
108109  1  0  0  0  0
108110  1  0  0  0  0
110111  2  0  0  0  0
111112  1  0  0  0  0
112113  1  0  0  0  0
113114  1  0  0  0  0
112115  1  0  0  0  0
115116  1  0  0  0  0
111117  1  0  0  0  0
117118  2  0  0  0  0
118119  1  0  0  0  0
118120  1  0  0  0  0
120121  2  0  0  0  0
121122  1  0  0  0  0
122123  2  0  0  0  0
122124  1  0  0  0  0
124125  2  0  0  0  0
125126  1  0  0  0  0
126127  1  0  0  0  0
127128  1  0  0  0  0
126129  2  0  0  0  0
129130  1  0  0  0  0
130131  2  0  0  0  0
131132  1  0  0  0  0
132133  2  0  0  0  0
133134  1  0  0  0  0
134135  3  0  0  0  0
133136  1  0  0  0  0
136137  3  0  0  0  0
 13  2  1  0  0  0  0
 60 19  1  0  0  0  0
102 61  1  0  0  0  0
109103  1  0  0  0  0
119110  1  0  0  0  0
132121  1  0  0  0  0
 12  5  1  0  0  0  0
 29 22  1  0  0  0  0
 37 30  1  0  0  0  0
 59 38  2  0  0  0  0
 71 64  1  0  0  0  0
 79 72  1  0  0  0  0
101 80  2  0  0  0  0
112107  1  0  0  0  0
131124  1  0  0  0  0
 50 43  1  0  0  0  0
 58 51  1  0  0  0  0
 92 85  1  0  0  0  0
100 93  1  0  0  0  0
  1138  1  0  0  0  0
  6139  1  0  0  0  0
  9140  1  0  0  0  0
  9141  1  0  0  0  0
  9142  1  0  0  0  0
 10143  1  0  0  0  0
 11144  1  0  0  0  0
 23145  1  0  0  0  0
 24146  1  0  0  0  0
 27147  1  0  0  0  0
 27148  1  0  0  0  0
 27149  1  0  0  0  0
 28150  1  0  0  0  0
 29151  1  0  0  0  0
 31152  1  0  0  0  0
 32153  1  0  0  0  0
 35154  1  0  0  0  0
 35155  1  0  0  0  0
 35156  1  0  0  0  0
 36157  1  0  0  0  0
 37158  1  0  0  0  0
 44159  1  0  0  0  0
 45160  1  0  0  0  0
 48161  1  0  0  0  0
 48162  1  0  0  0  0
 48163  1  0  0  0  0
 49164  1  0  0  0  0
 50165  1  0  0  0  0
 52166  1  0  0  0  0
 53167  1  0  0  0  0
 56168  1  0  0  0  0
 56169  1  0  0  0  0
 56170  1  0  0  0  0
 57171  1  0  0  0  0
 58172  1  0  0  0  0
 65173  1  0  0  0  0
 66174  1  0  0  0  0
 69175  1  0  0  0  0
 69176  1  0  0  0  0
 69177  1  0  0  0  0
 70178  1  0  0  0  0
 71179  1  0  0  0  0
 73180  1  0  0  0  0
 74181  1  0  0  0  0
 77182  1  0  0  0  0
 77183  1  0  0  0  0
 77184  1  0  0  0  0
 78185  1  0  0  0  0
 79186  1  0  0  0  0
 86187  1  0  0  0  0
 87188  1  0  0  0  0
 90189  1  0  0  0  0
 90190  1  0  0  0  0
 90191  1  0  0  0  0
 91192  1  0  0  0  0
 92193  1  0  0  0  0
 94194  1  0  0  0  0
 95195  1  0  0  0  0
 98196  1  0  0  0  0
 98197  1  0  0  0  0
 98198  1  0  0  0  0
 99199  1  0  0  0  0
100200  1  0  0  0  0
105201  1  0  0  0  0
105202  1  0  0  0  0
106203  1  0  0  0  0
106204  1  0  0  0  0
106205  1  0  0  0  0
113206  1  0  0  0  0
113207  1  0  0  0  0
114208  1  0  0  0  0
114209  1  0  0  0  0
114210  1  0  0  0  0
115211  1  0  0  0  0
115212  1  0  0  0  0
116213  1  0  0  0  0
116214  1  0  0  0  0
116215  1  0  0  0  0
117216  1  0  0  0  0
120217  1  0  0  0  0
125218  1  0  0  0  0
128219  1  0  0  0  0
128220  1  0  0  0  0
128221  1  0  0  0  0
129222  1  0  0  0  0
130223  1  0  0  0  0
M  END
