
  xtb     02152209253D
 energy: -358.305485673750 gnorm: 0.000363991909 xtb: 6.4.1 (unknown)
216234  0     0  0            999 V2000
    5.7602    9.6749    4.4451 C   0  0  0  0  0  0  0  0  0  0  0  0
    6.6946   10.6654    4.3729 C   0  0  0  0  0  0  0  0  0  0  0  0
    8.1219   10.6234    3.9717 C   0  0  0  0  0  0  0  0  0  0  0  0
    8.8246    9.6693    3.7094 O   0  0  0  0  0  0  0  0  0  0  0  0
    8.5736   12.0290    3.9512 C   0  0  0  0  0  0  0  0  0  0  0  0
    9.8215   12.4965    3.5937 C   0  0  0  0  0  0  0  0  0  0  0  0
   10.0415   13.8736    3.6364 C   0  0  0  0  0  0  0  0  0  0  0  0
   11.2033   14.4795    3.3132 O   0  0  0  0  0  0  0  0  0  0  0  0
   12.2900   13.6839    2.8945 C   0  0  0  0  0  0  0  0  0  0  0  0
    9.0014   14.7257    4.0382 C   0  0  0  0  0  0  0  0  0  0  0  0
    7.7588   14.2465    4.3967 C   0  0  0  0  0  0  0  0  0  0  0  0
    7.5306   12.8737    4.3557 C   0  0  0  0  0  0  0  0  0  0  0  0
    6.3612   12.0640    4.6565 C   0  0  0  0  0  0  0  0  0  0  0  0
    5.1760   12.5588    5.1376 C   0  0  0  0  0  0  0  0  0  0  0  0
    4.9417   13.9274    5.3941 C   0  0  0  0  0  0  0  0  0  0  0  0
    4.6733   15.0188    5.6286 N   0  0  0  0  0  0  0  0  0  0  0  0
    4.0129   11.8311    5.4676 C   0  0  0  0  0  0  0  0  0  0  0  0
    3.0139   11.3484    5.7706 N   0  0  0  0  0  0  0  0  0  0  0  0
    5.7464    8.2629    4.2029 C   0  0  0  0  0  0  0  0  0  0  0  0
    4.4867    7.6479    4.3199 C   0  0  0  0  0  0  0  0  0  0  0  0
    4.3719    6.2980    4.0670 C   0  0  0  0  0  0  0  0  0  0  0  0
    3.2591    5.4916    4.0972 N   0  0  0  0  0  0  0  0  0  0  0  0
    1.9081    5.9246    4.3462 C   0  0  0  0  0  0  0  0  0  0  0  0
    1.2061    6.3492    3.0580 C   0  0  0  0  0  0  0  0  0  0  0  0
    3.6301    4.2327    3.7014 C   0  0  0  0  0  0  0  0  0  0  0  0
    5.0273    4.2015    3.4570 C   0  0  0  0  0  0  0  0  0  0  0  0
    5.5056    5.5243    3.6935 C   0  0  0  0  0  0  0  0  0  0  0  0
    6.7543    6.1340    3.6041 C   0  0  0  0  0  0  0  0  0  0  0  0
    6.8683    7.4805    3.8555 C   0  0  0  0  0  0  0  0  0  0  0  0
    5.6211    3.0164    3.0280 C   0  0  0  0  0  0  0  0  0  0  0  0
    4.8281    1.9145    2.8191 C   0  0  0  0  0  0  0  0  0  0  0  0
    3.4356    1.9487    3.0372 C   0  0  0  0  0  0  0  0  0  0  0  0
    2.8364    3.1172    3.5039 C   0  0  0  0  0  0  0  0  0  0  0  0
    2.6309    0.7951    2.7091 C   0  0  0  0  0  0  0  0  0  0  0  0
    1.3170    0.5048    3.0228 C   0  0  0  0  0  0  0  0  0  0  0  0
    0.4371    1.1776    3.8990 N   0  0  0  0  0  0  0  0  0  0  0  0
   -0.1284    0.3153    4.8625 C   0  0  0  0  0  0  0  0  0  0  0  0
   -1.5065    0.1969    5.0472 C   0  0  0  0  0  0  0  0  0  0  0  0
   -2.0056   -0.6940    5.9705 C   0  0  0  0  0  0  0  0  0  0  0  0
   -1.1487   -1.4984    6.7203 C   0  0  0  0  0  0  0  0  0  0  0  0
   -1.9151   -2.6152    7.8542 S   0  0  0  0  0  0  0  0  0  0  0  0
   -0.5279   -3.5520    8.5581 C   0  0  0  0  0  0  0  0  0  0  0  0
    0.2221   -1.3891    6.5347 C   0  0  0  0  0  0  0  0  0  0  0  0
    0.7234   -0.4878    5.6152 C   0  0  0  0  0  0  0  0  0  0  0  0
   -0.3118    2.2663    3.4383 C   0  0  0  0  0  0  0  0  0  0  0  0
   -0.4011    2.5828    2.0829 C   0  0  0  0  0  0  0  0  0  0  0  0
   -1.1589    3.6576    1.6695 C   0  0  0  0  0  0  0  0  0  0  0  0
   -1.8433    4.4396    2.5947 C   0  0  0  0  0  0  0  0  0  0  0  0
   -2.7997    5.7881    1.9630 S   0  0  0  0  0  0  0  0  0  0  0  0
   -3.9133    6.1853    3.3416 C   0  0  0  0  0  0  0  0  0  0  0  0
   -1.7301    4.1511    3.9480 C   0  0  0  0  0  0  0  0  0  0  0  0
   -0.9695    3.0783    4.3628 C   0  0  0  0  0  0  0  0  0  0  0  0
    0.8831   -0.6718    2.3789 C   0  0  0  0  0  0  0  0  0  0  0  0
   -0.6706   -1.4032    2.2979 S   0  0  0  0  0  0  0  0  0  0  0  0
   -0.0816   -2.5071    1.0669 C   0  0  0  0  0  0  0  0  0  0  0  0
    1.2981   -2.4097    0.8824 C   0  0  0  0  0  0  0  0  0  0  0  0
    1.9916   -3.3790    0.1790 N   0  0  0  0  0  0  0  0  0  0  0  0
    3.0546   -3.0306   -0.6537 C   0  0  0  0  0  0  0  0  0  0  0  0
    4.1631   -3.8645   -0.8033 C   0  0  0  0  0  0  0  0  0  0  0  0
    5.2073   -3.4852   -1.6153 C   0  0  0  0  0  0  0  0  0  0  0  0
    5.1777   -2.2656   -2.2900 C   0  0  0  0  0  0  0  0  0  0  0  0
    6.5831   -1.8895   -3.2895 S   0  0  0  0  0  0  0  0  0  0  0  0
    6.2347   -0.2263   -3.9278 C   0  0  0  0  0  0  0  0  0  0  0  0
    4.0743   -1.4360   -2.1479 C   0  0  0  0  0  0  0  0  0  0  0  0
    3.0222   -1.8198   -1.3403 C   0  0  0  0  0  0  0  0  0  0  0  0
    1.7147   -4.7102    0.5460 C   0  0  0  0  0  0  0  0  0  0  0  0
    1.4633   -5.0101    1.8846 C   0  0  0  0  0  0  0  0  0  0  0  0
    1.1389   -6.2913    2.2728 C   0  0  0  0  0  0  0  0  0  0  0  0
    1.0664   -7.3016    1.3235 C   0  0  0  0  0  0  0  0  0  0  0  0
    0.6251   -8.9588    1.7643 S   0  0  0  0  0  0  0  0  0  0  0  0
    1.4274   -9.1393    3.3896 C   0  0  0  0  0  0  0  0  0  0  0  0
    1.3219   -7.0130   -0.0128 C   0  0  0  0  0  0  0  0  0  0  0  0
    1.6475   -5.7289   -0.4016 C   0  0  0  0  0  0  0  0  0  0  0  0
    1.8278   -1.3053    1.5886 C   0  0  0  0  0  0  0  0  0  0  0  0
    3.3247   -0.4395    1.6505 S   0  0  0  0  0  0  0  0  0  0  0  0
   -1.0100   -3.1254    0.1957 C   0  0  0  0  0  0  0  0  0  0  0  0
   -2.3919   -3.1407    0.3630 C   0  0  0  0  0  0  0  0  0  0  0  0
   -2.9900   -2.9570    1.6214 N   0  0  0  0  0  0  0  0  0  0  0  0
   -3.6089   -1.7473    1.9304 C   0  0  0  0  0  0  0  0  0  0  0  0
   -3.4258   -0.6431    1.0948 C   0  0  0  0  0  0  0  0  0  0  0  0
   -3.9203    0.5975    1.4353 C   0  0  0  0  0  0  0  0  0  0  0  0
   -4.6375    0.7578    2.6117 C   0  0  0  0  0  0  0  0  0  0  0  0
   -5.2148    2.3377    3.1650 S   0  0  0  0  0  0  0  0  0  0  0  0
   -5.4601    3.2369    1.6024 C   0  0  0  0  0  0  0  0  0  0  0  0
   -4.8917   -0.3511    3.4115 C   0  0  0  0  0  0  0  0  0  0  0  0
   -4.3920   -1.5918    3.0740 C   0  0  0  0  0  0  0  0  0  0  0  0
   -2.6601   -3.9606    2.5476 C   0  0  0  0  0  0  0  0  0  0  0  0
   -2.3257   -3.6980    3.8755 C   0  0  0  0  0  0  0  0  0  0  0  0
   -1.9362   -4.7267    4.7072 C   0  0  0  0  0  0  0  0  0  0  0  0
   -1.8578   -6.0319    4.2351 C   0  0  0  0  0  0  0  0  0  0  0  0
   -1.2884   -7.2858    5.3501 S   0  0  0  0  0  0  0  0  0  0  0  0
   -2.0883   -8.7851    4.7024 C   0  0  0  0  0  0  0  0  0  0  0  0
   -2.1819   -6.3022    2.9137 C   0  0  0  0  0  0  0  0  0  0  0  0
   -2.5870   -5.2764    2.0870 C   0  0  0  0  0  0  0  0  0  0  0  0
   -3.0542   -3.4221   -0.8423 C   0  0  0  0  0  0  0  0  0  0  0  0
   -4.7085   -3.4989   -1.3274 S   0  0  0  0  0  0  0  0  0  0  0  0
   -4.2262   -3.7351   -2.9910 C   0  0  0  0  0  0  0  0  0  0  0  0
   -2.8485   -3.8271   -3.1411 C   0  0  0  0  0  0  0  0  0  0  0  0
   -2.2216   -4.1658   -4.3575 N   0  0  0  0  0  0  0  0  0  0  0  0
   -2.3504   -5.4747   -4.8290 C   0  0  0  0  0  0  0  0  0  0  0  0
   -3.1723   -6.4101   -4.2021 C   0  0  0  0  0  0  0  0  0  0  0  0
   -3.3514   -7.6697   -4.7382 C   0  0  0  0  0  0  0  0  0  0  0  0
   -2.7086   -8.0278   -5.9127 C   0  0  0  0  0  0  0  0  0  0  0  0
   -2.9852   -9.5742   -6.7197 S   0  0  0  0  0  0  0  0  0  0  0  0
   -4.6745   -9.9788   -6.1829 C   0  0  0  0  0  0  0  0  0  0  0  0
   -1.7944   -7.1437   -6.4790 C   0  0  0  0  0  0  0  0  0  0  0  0
   -1.6061   -5.8925   -5.9373 C   0  0  0  0  0  0  0  0  0  0  0  0
   -1.9233   -3.0989   -5.2252 C   0  0  0  0  0  0  0  0  0  0  0  0
   -1.2576   -1.9787   -4.7304 C   0  0  0  0  0  0  0  0  0  0  0  0
   -1.0430   -0.8831   -5.5369 C   0  0  0  0  0  0  0  0  0  0  0  0
   -1.4773   -0.8799   -6.8599 C   0  0  0  0  0  0  0  0  0  0  0  0
   -1.1929    0.5973   -7.7849 S   0  0  0  0  0  0  0  0  0  0  0  0
   -1.8222    0.2069   -9.4410 C   0  0  0  0  0  0  0  0  0  0  0  0
   -2.1214   -1.9998   -7.3650 C   0  0  0  0  0  0  0  0  0  0  0  0
   -2.3496   -3.0920   -6.5503 C   0  0  0  0  0  0  0  0  0  0  0  0
   -2.1926   -3.6547   -1.9143 C   0  0  0  0  0  0  0  0  0  0  0  0
   -0.5317   -3.5859   -1.4300 S   0  0  0  0  0  0  0  0  0  0  0  0
   -5.1754   -3.9067   -4.0501 C   0  0  0  0  0  0  0  0  0  0  0  0
   -5.1330   -3.1206   -5.1572 C   0  0  0  0  0  0  0  0  0  0  0  0
   -4.5458   -1.7515   -5.1304 C   0  0  0  0  0  0  0  0  0  0  0  0
   -3.9434   -1.2283   -4.2207 O   0  0  0  0  0  0  0  0  0  0  0  0
   -4.9904   -1.1199   -6.3888 C   0  0  0  0  0  0  0  0  0  0  0  0
   -4.7555    0.1607   -6.8253 C   0  0  0  0  0  0  0  0  0  0  0  0
   -5.2733    0.5511   -8.0693 C   0  0  0  0  0  0  0  0  0  0  0  0
   -4.9983    1.8179   -8.4444 O   0  0  0  0  0  0  0  0  0  0  0  0
   -5.4806    2.2960   -9.6789 C   0  0  0  0  0  0  0  0  0  0  0  0
   -6.0126   -0.3625   -8.8254 C   0  0  0  0  0  0  0  0  0  0  0  0
   -6.2502   -1.6514   -8.3723 C   0  0  0  0  0  0  0  0  0  0  0  0
   -5.7408   -2.0437   -7.1443 C   0  0  0  0  0  0  0  0  0  0  0  0
   -5.8087   -3.3041   -6.4239 C   0  0  0  0  0  0  0  0  0  0  0  0
   -6.2932   -4.4973   -6.8970 C   0  0  0  0  0  0  0  0  0  0  0  0
   -6.9029   -4.6496   -8.1581 C   0  0  0  0  0  0  0  0  0  0  0  0
   -7.4116   -4.8209   -9.1732 N   0  0  0  0  0  0  0  0  0  0  0  0
   -6.1936   -5.7206   -6.2060 C   0  0  0  0  0  0  0  0  0  0  0  0
   -6.1214   -6.7566   -5.7143 N   0  0  0  0  0  0  0  0  0  0  0  0
    4.7764   10.0301    4.7292 H   0  0  0  0  0  0  0  0  0  0  0  0
   10.5794   11.7904    3.2943 H   0  0  0  0  0  0  0  0  0  0  0  0
   13.1011   14.3800    2.6886 H   0  0  0  0  0  0  0  0  0  0  0  0
   12.6001   12.9867    3.6784 H   0  0  0  0  0  0  0  0  0  0  0  0
   12.0498   13.1269    1.9841 H   0  0  0  0  0  0  0  0  0  0  0  0
    9.2043   15.7848    4.0585 H   0  0  0  0  0  0  0  0  0  0  0  0
    6.9904   14.9392    4.6965 H   0  0  0  0  0  0  0  0  0  0  0  0
    3.6246    8.2397    4.5903 H   0  0  0  0  0  0  0  0  0  0  0  0
    1.3609    5.1017    4.8144 H   0  0  0  0  0  0  0  0  0  0  0  0
    1.9386    6.7589    5.0512 H   0  0  0  0  0  0  0  0  0  0  0  0
    0.1943    6.6790    3.2740 H   0  0  0  0  0  0  0  0  0  0  0  0
    1.1551    5.5150    2.3621 H   0  0  0  0  0  0  0  0  0  0  0  0
    1.7458    7.1658    2.5842 H   0  0  0  0  0  0  0  0  0  0  0  0
    7.6230    5.5542    3.3323 H   0  0  0  0  0  0  0  0  0  0  0  0
    7.8310    7.9538    3.7794 H   0  0  0  0  0  0  0  0  0  0  0  0
    6.6841    2.9719    2.8473 H   0  0  0  0  0  0  0  0  0  0  0  0
    5.2728    0.9940    2.4698 H   0  0  0  0  0  0  0  0  0  0  0  0
    1.7755    3.1652    3.6656 H   0  0  0  0  0  0  0  0  0  0  0  0
   -2.1882    0.7857    4.4524 H   0  0  0  0  0  0  0  0  0  0  0  0
   -3.0720   -0.7876    6.1090 H   0  0  0  0  0  0  0  0  0  0  0  0
    0.1260   -2.8880    9.1160 H   0  0  0  0  0  0  0  0  0  0  0  0
    0.0120   -4.0706    7.7707 H   0  0  0  0  0  0  0  0  0  0  0  0
   -0.9783   -4.2754    9.2309 H   0  0  0  0  0  0  0  0  0  0  0  0
    0.9127   -1.9958    7.0978 H   0  0  0  0  0  0  0  0  0  0  0  0
    1.7913   -0.4062    5.4728 H   0  0  0  0  0  0  0  0  0  0  0  0
    0.1134    1.9753    1.3534 H   0  0  0  0  0  0  0  0  0  0  0  0
   -1.2379    3.8944    0.6190 H   0  0  0  0  0  0  0  0  0  0  0  0
   -4.3675    5.2718    3.7144 H   0  0  0  0  0  0  0  0  0  0  0  0
   -3.3723    6.7067    4.1262 H   0  0  0  0  0  0  0  0  0  0  0  0
   -4.6735    6.8400    2.9268 H   0  0  0  0  0  0  0  0  0  0  0  0
   -2.2279    4.7545    4.6893 H   0  0  0  0  0  0  0  0  0  0  0  0
   -0.8849    2.8564    5.4163 H   0  0  0  0  0  0  0  0  0  0  0  0
    4.2048   -4.8026   -0.2712 H   0  0  0  0  0  0  0  0  0  0  0  0
    6.0681   -4.1261   -1.7296 H   0  0  0  0  0  0  0  0  0  0  0  0
    7.1055    0.0486   -4.5148 H   0  0  0  0  0  0  0  0  0  0  0  0
    6.1116    0.4687   -3.1024 H   0  0  0  0  0  0  0  0  0  0  0  0
    5.3544   -0.2474   -4.5637 H   0  0  0  0  0  0  0  0  0  0  0  0
    4.0139   -0.4919   -2.6643 H   0  0  0  0  0  0  0  0  0  0  0  0
    2.1586   -1.1780   -1.2481 H   0  0  0  0  0  0  0  0  0  0  0  0
    1.5206   -4.2313    2.6308 H   0  0  0  0  0  0  0  0  0  0  0  0
    0.9439   -6.4924    3.3138 H   0  0  0  0  0  0  0  0  0  0  0  0
    0.8849   -8.5937    4.1560 H   0  0  0  0  0  0  0  0  0  0  0  0
    2.4520   -8.7884    3.3170 H   0  0  0  0  0  0  0  0  0  0  0  0
    1.4114  -10.2015    3.6126 H   0  0  0  0  0  0  0  0  0  0  0  0
    1.2582   -7.8021   -0.7461 H   0  0  0  0  0  0  0  0  0  0  0  0
    1.8471   -5.5081   -1.4390 H   0  0  0  0  0  0  0  0  0  0  0  0
   -2.8555   -0.7467    0.1837 H   0  0  0  0  0  0  0  0  0  0  0  0
   -3.7196    1.4367    0.7885 H   0  0  0  0  0  0  0  0  0  0  0  0
   -6.1104    4.0746    1.8346 H   0  0  0  0  0  0  0  0  0  0  0  0
   -5.9428    2.5792    0.8867 H   0  0  0  0  0  0  0  0  0  0  0  0
   -4.5115    3.6039    1.2208 H   0  0  0  0  0  0  0  0  0  0  0  0
   -5.4816   -0.2306    4.3073 H   0  0  0  0  0  0  0  0  0  0  0  0
   -4.6096   -2.4435    3.6993 H   0  0  0  0  0  0  0  0  0  0  0  0
   -2.3508   -2.6888    4.2554 H   0  0  0  0  0  0  0  0  0  0  0  0
   -1.6849   -4.5202    5.7352 H   0  0  0  0  0  0  0  0  0  0  0  0
   -1.9698   -9.5415    5.4720 H   0  0  0  0  0  0  0  0  0  0  0  0
   -3.1417   -8.5803    4.5381 H   0  0  0  0  0  0  0  0  0  0  0  0
   -1.6074   -9.1144    3.7856 H   0  0  0  0  0  0  0  0  0  0  0  0
   -2.1176   -7.3021    2.5154 H   0  0  0  0  0  0  0  0  0  0  0  0
   -2.8425   -5.5007    1.0622 H   0  0  0  0  0  0  0  0  0  0  0  0
   -3.6894   -6.1667   -3.2880 H   0  0  0  0  0  0  0  0  0  0  0  0
   -4.0093   -8.3585   -4.2349 H   0  0  0  0  0  0  0  0  0  0  0  0
   -5.0590  -10.6892   -6.9080 H   0  0  0  0  0  0  0  0  0  0  0  0
   -4.6569  -10.4346   -5.1968 H   0  0  0  0  0  0  0  0  0  0  0  0
   -5.2734   -9.0727   -6.1860 H   0  0  0  0  0  0  0  0  0  0  0  0
   -1.2409   -7.4452   -7.3551 H   0  0  0  0  0  0  0  0  0  0  0  0
   -0.8879   -5.2202   -6.3815 H   0  0  0  0  0  0  0  0  0  0  0  0
   -0.9242   -1.9629   -3.7055 H   0  0  0  0  0  0  0  0  0  0  0  0
   -0.5433   -0.0097   -5.1472 H   0  0  0  0  0  0  0  0  0  0  0  0
   -2.8858   -0.0096   -9.3932 H   0  0  0  0  0  0  0  0  0  0  0  0
   -1.6519    1.0997  -10.0346 H   0  0  0  0  0  0  0  0  0  0  0  0
   -1.2695   -0.6282   -9.8619 H   0  0  0  0  0  0  0  0  0  0  0  0
   -2.4776   -2.0321   -8.3824 H   0  0  0  0  0  0  0  0  0  0  0  0
   -2.8853   -3.9418   -6.9487 H   0  0  0  0  0  0  0  0  0  0  0  0
   -5.9263   -4.6801   -3.9421 H   0  0  0  0  0  0  0  0  0  0  0  0
   -4.1752    0.8568   -6.2416 H   0  0  0  0  0  0  0  0  0  0  0  0
   -6.5739    2.2803   -9.7158 H   0  0  0  0  0  0  0  0  0  0  0  0
   -5.0781    1.7210  -10.5189 H   0  0  0  0  0  0  0  0  0  0  0  0
   -5.1325    3.3250   -9.7486 H   0  0  0  0  0  0  0  0  0  0  0  0
   -6.4190   -0.0737   -9.7819 H   0  0  0  0  0  0  0  0  0  0  0  0
   -6.8339   -2.3248   -8.9792 H   0  0  0  0  0  0  0  0  0  0  0  0
  1  2  2  0  0  0  0
  2  3  1  0  0  0  0
  3  4  2  0  0  0  0
  3  5  1  0  0  0  0
  5  6  2  0  0  0  0
  6  7  1  0  0  0  0
  7  8  1  0  0  0  0
  8  9  1  0  0  0  0
  7 10  2  0  0  0  0
 10 11  1  0  0  0  0
 11 12  2  0  0  0  0
 12 13  1  0  0  0  0
 13 14  2  0  0  0  0
 14 15  1  0  0  0  0
 15 16  3  0  0  0  0
 14 17  1  0  0  0  0
 17 18  3  0  0  0  0
  1 19  1  0  0  0  0
 19 20  2  0  0  0  0
 20 21  1  0  0  0  0
 21 22  1  0  0  0  0
 22 23  1  0  0  0  0
 23 24  1  0  0  0  0
 22 25  1  0  0  0  0
 25 26  2  0  0  0  0
 26 27  1  0  0  0  0
 27 28  1  0  0  0  0
 28 29  2  0  0  0  0
 26 30  1  0  0  0  0
 30 31  2  0  0  0  0
 31 32  1  0  0  0  0
 32 33  2  0  0  0  0
 32 34  1  0  0  0  0
 34 35  2  0  0  0  0
 35 36  1  0  0  0  0
 36 37  1  0  0  0  0
 37 38  2  0  0  0  0
 38 39  1  0  0  0  0
 39 40  2  0  0  0  0
 40 41  1  0  0  0  0
 41 42  1  0  0  0  0
 40 43  1  0  0  0  0
 43 44  2  0  0  0  0
 36 45  1  0  0  0  0
 45 46  2  0  0  0  0
 46 47  1  0  0  0  0
 47 48  2  0  0  0  0
 48 49  1  0  0  0  0
 49 50  1  0  0  0  0
 48 51  1  0  0  0  0
 51 52  2  0  0  0  0
 35 53  1  0  0  0  0
 53 54  1  0  0  0  0
 54 55  1  0  0  0  0
 55 56  2  0  0  0  0
 56 57  1  0  0  0  0
 57 58  1  0  0  0  0
 58 59  2  0  0  0  0
 59 60  1  0  0  0  0
 60 61  2  0  0  0  0
 61 62  1  0  0  0  0
 62 63  1  0  0  0  0
 61 64  1  0  0  0  0
 64 65  2  0  0  0  0
 57 66  1  0  0  0  0
 66 67  2  0  0  0  0
 67 68  1  0  0  0  0
 68 69  2  0  0  0  0
 69 70  1  0  0  0  0
 70 71  1  0  0  0  0
 69 72  1  0  0  0  0
 72 73  2  0  0  0  0
 56 74  1  0  0  0  0
 74 75  1  0  0  0  0
 55 76  1  0  0  0  0
 76 77  2  0  0  0  0
 77 78  1  0  0  0  0
 78 79  1  0  0  0  0
 79 80  2  0  0  0  0
 80 81  1  0  0  0  0
 81 82  2  0  0  0  0
 82 83  1  0  0  0  0
 83 84  1  0  0  0  0
 82 85  1  0  0  0  0
 85 86  2  0  0  0  0
 78 87  1  0  0  0  0
 87 88  2  0  0  0  0
 88 89  1  0  0  0  0
 89 90  2  0  0  0  0
 90 91  1  0  0  0  0
 91 92  1  0  0  0  0
 90 93  1  0  0  0  0
 93 94  2  0  0  0  0
 77 95  1  0  0  0  0
 95 96  1  0  0  0  0
 96 97  1  0  0  0  0
 97 98  2  0  0  0  0
 98 99  1  0  0  0  0
 99100  1  0  0  0  0
100101  2  0  0  0  0
101102  1  0  0  0  0
102103  2  0  0  0  0
103104  1  0  0  0  0
104105  1  0  0  0  0
103106  1  0  0  0  0
106107  2  0  0  0  0
 99108  1  0  0  0  0
108109  2  0  0  0  0
109110  1  0  0  0  0
110111  2  0  0  0  0
111112  1  0  0  0  0
112113  1  0  0  0  0
111114  1  0  0  0  0
114115  2  0  0  0  0
 98116  1  0  0  0  0
116117  1  0  0  0  0
 97118  1  0  0  0  0
118119  2  0  0  0  0
119120  1  0  0  0  0
120121  2  0  0  0  0
120122  1  0  0  0  0
122123  2  0  0  0  0
123124  1  0  0  0  0
124125  1  0  0  0  0
125126  1  0  0  0  0
124127  2  0  0  0  0
127128  1  0  0  0  0
128129  2  0  0  0  0
129130  1  0  0  0  0
130131  2  0  0  0  0
131132  1  0  0  0  0
132133  3  0  0  0  0
131134  1  0  0  0  0
134135  3  0  0  0  0
 13  2  1  0  0  0  0
 29 19  1  0  0  0  0
 75 34  1  0  0  0  0
117 76  1  0  0  0  0
130119  1  0  0  0  0
 12  5  1  0  0  0  0
 27 21  2  0  0  0  0
 44 37  1  0  0  0  0
 52 45  1  0  0  0  0
 74 53  2  0  0  0  0
 86 79  1  0  0  0  0
 94 87  1  0  0  0  0
116 95  2  0  0  0  0
129122  1  0  0  0  0
 33 25  1  0  0  0  0
 65 58  1  0  0  0  0
 73 66  1  0  0  0  0
107100  1  0  0  0  0
115108  1  0  0  0  0
  1136  1  0  0  0  0
  6137  1  0  0  0  0
  9138  1  0  0  0  0
  9139  1  0  0  0  0
  9140  1  0  0  0  0
 10141  1  0  0  0  0
 11142  1  0  0  0  0
 20143  1  0  0  0  0
 23144  1  0  0  0  0
 23145  1  0  0  0  0
 24146  1  0  0  0  0
 24147  1  0  0  0  0
 24148  1  0  0  0  0
 28149  1  0  0  0  0
 29150  1  0  0  0  0
 30151  1  0  0  0  0
 31152  1  0  0  0  0
 33153  1  0  0  0  0
 38154  1  0  0  0  0
 39155  1  0  0  0  0
 42156  1  0  0  0  0
 42157  1  0  0  0  0
 42158  1  0  0  0  0
 43159  1  0  0  0  0
 44160  1  0  0  0  0
 46161  1  0  0  0  0
 47162  1  0  0  0  0
 50163  1  0  0  0  0
 50164  1  0  0  0  0
 50165  1  0  0  0  0
 51166  1  0  0  0  0
 52167  1  0  0  0  0
 59168  1  0  0  0  0
 60169  1  0  0  0  0
 63170  1  0  0  0  0
 63171  1  0  0  0  0
 63172  1  0  0  0  0
 64173  1  0  0  0  0
 65174  1  0  0  0  0
 67175  1  0  0  0  0
 68176  1  0  0  0  0
 71177  1  0  0  0  0
 71178  1  0  0  0  0
 71179  1  0  0  0  0
 72180  1  0  0  0  0
 73181  1  0  0  0  0
 80182  1  0  0  0  0
 81183  1  0  0  0  0
 84184  1  0  0  0  0
 84185  1  0  0  0  0
 84186  1  0  0  0  0
 85187  1  0  0  0  0
 86188  1  0  0  0  0
 88189  1  0  0  0  0
 89190  1  0  0  0  0
 92191  1  0  0  0  0
 92192  1  0  0  0  0
 92193  1  0  0  0  0
 93194  1  0  0  0  0
 94195  1  0  0  0  0
101196  1  0  0  0  0
102197  1  0  0  0  0
105198  1  0  0  0  0
105199  1  0  0  0  0
105200  1  0  0  0  0
106201  1  0  0  0  0
107202  1  0  0  0  0
109203  1  0  0  0  0
110204  1  0  0  0  0
113205  1  0  0  0  0
113206  1  0  0  0  0
113207  1  0  0  0  0
114208  1  0  0  0  0
115209  1  0  0  0  0
118210  1  0  0  0  0
123211  1  0  0  0  0
126212  1  0  0  0  0
126213  1  0  0  0  0
126214  1  0  0  0  0
127215  1  0  0  0  0
128216  1  0  0  0  0
M  END
