216

C          5.76020        9.67490        4.44510
C          6.69460       10.66540        4.37290
C          8.12190       10.62340        3.97170
O          8.82460        9.66930        3.70940
C          8.57360       12.02900        3.95120
C          9.82150       12.49650        3.59370
C         10.04150       13.87360        3.63640
O         11.20330       14.47950        3.31320
C         12.29000       13.68390        2.89450
C          9.00140       14.72570        4.03820
C          7.75880       14.24650        4.39670
C          7.53060       12.87370        4.35570
C          6.36120       12.06400        4.65650
C          5.17600       12.55880        5.13760
C          4.94170       13.92740        5.39410
N          4.67330       15.01880        5.62860
C          4.01290       11.83110        5.46760
N          3.01390       11.34840        5.77060
C          5.74640        8.26290        4.20290
C          4.48670        7.64790        4.31990
C          4.37190        6.29800        4.06700
N          3.25910        5.49160        4.09720
C          1.90810        5.92460        4.34620
C          1.20610        6.34920        3.05800
C          3.63010        4.23270        3.70140
C          5.02730        4.20150        3.45700
C          5.50560        5.52430        3.69350
C          6.75430        6.13400        3.60410
C          6.86830        7.48050        3.85550
C          5.62110        3.01640        3.02800
C          4.82810        1.91450        2.81910
C          3.43560        1.94870        3.03720
C          2.83640        3.11720        3.50390
C          2.63090        0.79510        2.70910
C          1.31700        0.50480        3.02280
N          0.43710        1.17760        3.89900
C         -0.12840        0.31530        4.86250
C         -1.50650        0.19690        5.04720
C         -2.00560       -0.69400        5.97050
C         -1.14870       -1.49840        6.72030
S         -1.91510       -2.61520        7.85420
C         -0.52790       -3.55200        8.55810
C          0.22210       -1.38910        6.53470
C          0.72340       -0.48780        5.61520
C         -0.31180        2.26630        3.43830
C         -0.40110        2.58280        2.08290
C         -1.15890        3.65760        1.66950
C         -1.84330        4.43960        2.59470
S         -2.79970        5.78810        1.96300
C         -3.91330        6.18530        3.34160
C         -1.73010        4.15110        3.94800
C         -0.96950        3.07830        4.36280
C          0.88310       -0.67180        2.37890
S         -0.67060       -1.40320        2.29790
C         -0.08160       -2.50710        1.06690
C          1.29810       -2.40970        0.88240
N          1.99160       -3.37900        0.17900
C          3.05460       -3.03060       -0.65370
C          4.16310       -3.86450       -0.80330
C          5.20730       -3.48520       -1.61530
C          5.17770       -2.26560       -2.29000
S          6.58310       -1.88950       -3.28950
C          6.23470       -0.22630       -3.92780
C          4.07430       -1.43600       -2.14790
C          3.02220       -1.81980       -1.34030
C          1.71470       -4.71020        0.54600
C          1.46330       -5.01010        1.88460
C          1.13890       -6.29130        2.27280
C          1.06640       -7.30160        1.32350
S          0.62510       -8.95880        1.76430
C          1.42740       -9.13930        3.38960
C          1.32190       -7.01300       -0.01280
C          1.64750       -5.72890       -0.40160
C          1.82780       -1.30530        1.58860
S          3.32470       -0.43950        1.65050
C         -1.01000       -3.12540        0.19570
C         -2.39190       -3.14070        0.36300
N         -2.99000       -2.95700        1.62140
C         -3.60890       -1.74730        1.93040
C         -3.42580       -0.64310        1.09480
C         -3.92030        0.59750        1.43530
C         -4.63750        0.75780        2.61170
S         -5.21480        2.33770        3.16500
C         -5.46010        3.23690        1.60240
C         -4.89170       -0.35110        3.41150
C         -4.39200       -1.59180        3.07400
C         -2.66010       -3.96060        2.54760
C         -2.32570       -3.69800        3.87550
C         -1.93620       -4.72670        4.70720
C         -1.85780       -6.03190        4.23510
S         -1.28840       -7.28580        5.35010
C         -2.08830       -8.78510        4.70240
C         -2.18190       -6.30220        2.91370
C         -2.58700       -5.27640        2.08700
C         -3.05420       -3.42210       -0.84230
S         -4.70850       -3.49890       -1.32740
C         -4.22620       -3.73510       -2.99100
C         -2.84850       -3.82710       -3.14110
N         -2.22160       -4.16580       -4.35750
C         -2.35040       -5.47470       -4.82900
C         -3.17230       -6.41010       -4.20210
C         -3.35140       -7.66970       -4.73820
C         -2.70860       -8.02780       -5.91270
S         -2.98520       -9.57420       -6.71970
C         -4.67450       -9.97880       -6.18290
C         -1.79440       -7.14370       -6.47900
C         -1.60610       -5.89250       -5.93730
C         -1.92330       -3.09890       -5.22520
C         -1.25760       -1.97870       -4.73040
C         -1.04300       -0.88310       -5.53690
C         -1.47730       -0.87990       -6.85990
S         -1.19290        0.59730       -7.78490
C         -1.82220        0.20690       -9.44100
C         -2.12140       -1.99980       -7.36500
C         -2.34960       -3.09200       -6.55030
C         -2.19260       -3.65470       -1.91430
S         -0.53170       -3.58590       -1.43000
C         -5.17540       -3.90670       -4.05010
C         -5.13300       -3.12060       -5.15720
C         -4.54580       -1.75150       -5.13040
O         -3.94340       -1.22830       -4.22070
C         -4.99040       -1.11990       -6.38880
C         -4.75550        0.16070       -6.82530
C         -5.27330        0.55110       -8.06930
O         -4.99830        1.81790       -8.44440
C         -5.48060        2.29600       -9.67890
C         -6.01260       -0.36250       -8.82540
C         -6.25020       -1.65140       -8.37230
C         -5.74080       -2.04370       -7.14430
C         -5.80870       -3.30410       -6.42390
C         -6.29320       -4.49730       -6.89700
C         -6.90290       -4.64960       -8.15810
N         -7.41160       -4.82090       -9.17320
C         -6.19360       -5.72060       -6.20600
N         -6.12140       -6.75660       -5.71430
H          4.77640       10.03010        4.72920
H         10.57940       11.79040        3.29430
H         13.10110       14.38000        2.68860
H         12.60010       12.98670        3.67840
H         12.04980       13.12690        1.98410
H          9.20430       15.78480        4.05850
H          6.99040       14.93920        4.69650
H          3.62460        8.23970        4.59030
H          1.36090        5.10170        4.81440
H          1.93860        6.75890        5.05120
H          0.19430        6.67900        3.27400
H          1.15510        5.51500        2.36210
H          1.74580        7.16580        2.58420
H          7.62300        5.55420        3.33230
H          7.83100        7.95380        3.77940
H          6.68410        2.97190        2.84730
H          5.27280        0.99400        2.46980
H          1.77550        3.16520        3.66560
H         -2.18820        0.78570        4.45240
H         -3.07200       -0.78760        6.10900
H          0.12600       -2.88800        9.11600
H          0.01200       -4.07060        7.77070
H         -0.97830       -4.27540        9.23090
H          0.91270       -1.99580        7.09780
H          1.79130       -0.40620        5.47280
H          0.11340        1.97530        1.35340
H         -1.23790        3.89440        0.61900
H         -4.36750        5.27180        3.71440
H         -3.37230        6.70670        4.12620
H         -4.67350        6.84000        2.92680
H         -2.22790        4.75450        4.68930
H         -0.88490        2.85640        5.41630
H          4.20480       -4.80260       -0.27120
H          6.06810       -4.12610       -1.72960
H          7.10550        0.04860       -4.51480
H          6.11160        0.46870       -3.10240
H          5.35440       -0.24740       -4.56370
H          4.01390       -0.49190       -2.66430
H          2.15860       -1.17800       -1.24810
H          1.52060       -4.23130        2.63080
H          0.94390       -6.49240        3.31380
H          0.88490       -8.59370        4.15600
H          2.45200       -8.78840        3.31700
H          1.41140      -10.20150        3.61260
H          1.25820       -7.80210       -0.74610
H          1.84710       -5.50810       -1.43900
H         -2.85550       -0.74670        0.18370
H         -3.71960        1.43670        0.78850
H         -6.11040        4.07460        1.83460
H         -5.94280        2.57920        0.88670
H         -4.51150        3.60390        1.22080
H         -5.48160       -0.23060        4.30730
H         -4.60960       -2.44350        3.69930
H         -2.35080       -2.68880        4.25540
H         -1.68490       -4.52020        5.73520
H         -1.96980       -9.54150        5.47200
H         -3.14170       -8.58030        4.53810
H         -1.60740       -9.11440        3.78560
H         -2.11760       -7.30210        2.51540
H         -2.84250       -5.50070        1.06220
H         -3.68940       -6.16670       -3.28800
H         -4.00930       -8.35850       -4.23490
H         -5.05900      -10.68920       -6.90800
H         -4.65690      -10.43460       -5.19680
H         -5.27340       -9.07270       -6.18600
H         -1.24090       -7.44520       -7.35510
H         -0.88790       -5.22020       -6.38150
H         -0.92420       -1.96290       -3.70550
H         -0.54330       -0.00970       -5.14720
H         -2.88580       -0.00960       -9.39320
H         -1.65190        1.09970      -10.03460
H         -1.26950       -0.62820       -9.86190
H         -2.47760       -2.03210       -8.38240
H         -2.88530       -3.94180       -6.94870
H         -5.92630       -4.68010       -3.94210
H         -4.17520        0.85680       -6.24160
H         -6.57390        2.28030       -9.71580
H         -5.07810        1.72100      -10.51890
H         -5.13250        3.32500       -9.74860
H         -6.41900       -0.07370       -9.78190
H         -6.83390       -2.32480       -8.97920
