
  xtb     02042202023D
 energy: -306.658235606791 gnorm: 0.000761210981 xtb: 6.4.1 (unknown)
173190  0     0  0            999 V2000
   -2.4467   -6.1937   -7.7390 C   0  0  0  0  0  0  0  0  0  0  0  0
   -2.1160   -6.0524   -9.0607 C   0  0  0  0  0  0  0  0  0  0  0  0
   -1.9806   -4.7537   -9.7706 C   0  0  0  0  0  0  0  0  0  0  0  0
   -2.0598   -3.6430   -9.2948 O   0  0  0  0  0  0  0  0  0  0  0  0
   -1.8948   -5.1099  -11.2019 C   0  0  0  0  0  0  0  0  0  0  0  0
   -1.7742   -4.2630  -12.3065 C   0  0  0  0  0  0  0  0  0  0  0  0
   -1.6770   -2.9433  -12.0733 O   0  0  0  0  0  0  0  0  0  0  0  0
   -1.5460   -2.0595  -13.1605 C   0  0  0  0  0  0  0  0  0  0  0  0
   -1.7538   -4.8608  -13.5730 C   0  0  0  0  0  0  0  0  0  0  0  0
   -1.8591   -6.2329  -13.7132 C   0  0  0  0  0  0  0  0  0  0  0  0
   -1.9778   -7.0764  -12.6170 C   0  0  0  0  0  0  0  0  0  0  0  0
   -1.9923   -6.5025  -11.3578 C   0  0  0  0  0  0  0  0  0  0  0  0
   -2.0845   -7.1104  -10.0328 C   0  0  0  0  0  0  0  0  0  0  0  0
   -2.0054   -8.4526   -9.7455 C   0  0  0  0  0  0  0  0  0  0  0  0
   -1.9547   -9.4744  -10.7123 C   0  0  0  0  0  0  0  0  0  0  0  0
   -1.9220  -10.3528  -11.4521 N   0  0  0  0  0  0  0  0  0  0  0  0
   -1.8918   -8.9623   -8.4381 C   0  0  0  0  0  0  0  0  0  0  0  0
   -1.7373   -9.4410   -7.4041 N   0  0  0  0  0  0  0  0  0  0  0  0
   -2.2125   -5.2540   -6.7121 C   0  0  0  0  0  0  0  0  0  0  0  0
   -1.1307   -4.3456   -6.6863 C   0  0  0  0  0  0  0  0  0  0  0  0
   -0.8830   -3.4829   -5.5545 C   0  0  0  0  0  0  0  0  0  0  0  0
    0.2072   -2.7365   -5.7316 N   0  0  0  0  0  0  0  0  0  0  0  0
    0.8574   -3.0896   -7.1615 S   0  0  0  0  0  4  0  0  0  0  0  0
   -0.1796   -4.2226   -7.6105 N   0  0  0  0  0  0  0  0  0  0  0  0
   -1.6484   -3.5144   -4.3608 C   0  0  0  0  0  0  0  0  0  0  0  0
   -2.7834   -4.3530   -4.4294 C   0  0  0  0  0  0  0  0  0  0  0  0
   -3.7564   -4.4450   -3.5190 N   0  0  0  0  0  0  0  0  0  0  0  0
   -4.8385   -5.5259   -4.0110 S   0  0  0  0  0  0  0  0  0  0  0  0
   -4.1489   -5.9291   -5.4048 N   0  0  0  0  0  0  0  0  0  0  0  0
   -3.0299   -5.2223   -5.5595 C   0  0  0  0  0  0  0  0  0  0  0  0
   -1.2327   -2.7594   -3.2370 C   0  0  0  0  0  0  0  0  0  0  0  0
   -1.5247   -2.8760   -1.8663 C   0  0  0  0  0  0  0  0  0  0  0  0
   -2.2088   -3.8647   -1.1973 N   0  0  0  0  0  0  0  0  0  0  0  0
   -2.2674   -5.2003   -1.5648 C   0  0  0  0  0  0  0  0  0  0  0  0
   -3.3149   -5.9994   -1.0888 C   0  0  0  0  0  0  0  0  0  0  0  0
   -3.4414   -7.3009   -1.5064 C   0  0  0  0  0  0  0  0  0  0  0  0
   -2.5242   -7.8567   -2.4036 C   0  0  0  0  0  0  0  0  0  0  0  0
   -2.8338   -9.5051   -2.9187 S   0  0  0  0  0  0  0  0  0  0  0  0
   -1.6019   -9.8207   -4.2094 C   0  0  0  0  0  0  0  0  0  0  0  0
   -1.4364   -7.0925   -2.8147 C   0  0  0  0  0  0  0  0  0  0  0  0
   -1.3023   -5.7884   -2.3857 C   0  0  0  0  0  0  0  0  0  0  0  0
   -2.8235   -3.4542    0.0112 C   0  0  0  0  0  0  0  0  0  0  0  0
   -3.7534   -2.4166   -0.0094 C   0  0  0  0  0  0  0  0  0  0  0  0
   -4.2270   -1.8913    1.1731 C   0  0  0  0  0  0  0  0  0  0  0  0
   -3.7715   -2.3909    2.3904 C   0  0  0  0  0  0  0  0  0  0  0  0
   -4.3037   -1.5780    3.8624 S   0  0  0  0  0  0  0  0  0  0  0  0
   -2.8901   -1.8438    4.9733 C   0  0  0  0  0  0  0  0  0  0  0  0
   -2.9161   -3.4861    2.4104 C   0  0  0  0  0  0  0  0  0  0  0  0
   -2.4455   -4.0168    1.2260 C   0  0  0  0  0  0  0  0  0  0  0  0
   -0.9315   -1.8073   -1.1479 C   0  0  0  0  0  0  0  0  0  0  0  0
   -0.9157   -1.3559    0.5215 S   0  0  0  0  0  0  0  0  0  0  0  0
    0.1225    0.0145    0.1747 C   0  0  0  0  0  0  0  0  0  0  0  0
    0.4228    0.1271   -1.1812 C   0  0  0  0  0  0  0  0  0  0  0  0
    1.1519    1.1245   -1.7995 N   0  0  0  0  0  0  0  0  0  0  0  0
    1.8424    0.7781   -2.9774 C   0  0  0  0  0  0  0  0  0  0  0  0
    2.6224   -0.3737   -3.0088 C   0  0  0  0  0  0  0  0  0  0  0  0
    3.2346   -0.7796   -4.1784 C   0  0  0  0  0  0  0  0  0  0  0  0
    3.0741   -0.0331   -5.3368 C   0  0  0  0  0  0  0  0  0  0  0  0
    3.7568   -0.4825   -6.8994 S   0  0  0  0  0  0  0  0  0  0  0  0
    4.3995   -2.1576   -6.6225 C   0  0  0  0  0  0  0  0  0  0  0  0
    2.3354    1.1487   -5.2959 C   0  0  0  0  0  0  0  0  0  0  0  0
    1.7257    1.5529   -4.1301 C   0  0  0  0  0  0  0  0  0  0  0  0
    1.1417    2.4525   -1.3640 C   0  0  0  0  0  0  0  0  0  0  0  0
    2.2767    3.2453   -1.5306 C   0  0  0  0  0  0  0  0  0  0  0  0
    2.3258    4.5260   -1.0180 C   0  0  0  0  0  0  0  0  0  0  0  0
    1.2362    5.0414   -0.3282 C   0  0  0  0  0  0  0  0  0  0  0  0
    1.2270    6.6252    0.4480 S   0  0  0  0  0  0  0  0  0  0  0  0
    2.5426    7.5293   -0.4199 C   0  0  0  0  0  0  0  0  0  0  0  0
    0.0831    4.2716   -0.2004 C   0  0  0  0  0  0  0  0  0  0  0  0
    0.0318    2.9960   -0.7160 C   0  0  0  0  0  0  0  0  0  0  0  0
   -0.1740   -0.9350   -1.9092 C   0  0  0  0  0  0  0  0  0  0  0  0
   -0.1346   -1.4204   -3.5689 S   0  0  0  0  0  0  0  0  0  0  0  0
    0.4534    0.8482    1.2784 C   0  0  0  0  0  0  0  0  0  0  0  0
    1.5003    1.7102    1.4393 C   0  0  0  0  0  0  0  0  0  0  0  0
    1.4452    2.4599    2.6352 C   0  0  0  0  0  0  0  0  0  0  0  0
    2.3284    3.4723    3.0632 C   0  0  0  0  0  0  0  0  0  0  0  0
    3.4784    3.8870    2.2866 C   0  0  0  0  0  0  0  0  0  0  0  0
    3.9693    5.1534    2.1411 C   0  0  0  0  0  0  0  0  0  0  0  0
    5.1286    5.1997    1.3375 C   0  0  0  0  0  0  0  0  0  0  0  0
    5.9475    6.6786    0.9849 Cl  0  0  0  0  0  0  0  0  0  0  0  0
    5.5500    3.9876    0.8756 C   0  0  0  0  0  0  0  0  0  0  0  0
    6.7067    3.6669   -0.0054 C   0  0  0  0  0  0  0  0  0  0  0  0
    6.2471    3.2135   -1.3922 C   0  0  0  0  0  0  0  0  0  0  0  0
    4.4803    2.7466    1.4306 S   0  0  0  0  0  0  0  0  0  0  0  0
    2.0301    4.0751    4.2815 C   0  0  0  0  0  0  0  0  0  0  0  0
    0.9145    3.7098    5.0816 C   0  0  0  0  0  0  0  0  0  0  0  0
    0.0232    2.7016    4.6459 C   0  0  0  0  0  0  0  0  0  0  0  0
   -1.1148    2.3002    5.4433 C   0  0  0  0  0  0  0  0  0  0  0  0
   -1.1976    2.1366    6.8001 C   0  0  0  0  0  0  0  0  0  0  0  0
   -2.4778    1.7424    7.2323 C   0  0  0  0  0  0  0  0  0  0  0  0
   -3.3797    1.6082    6.2194 C   0  0  0  0  0  0  0  0  0  0  0  0
   -4.8294    1.2758    6.3042 C   0  0  0  0  0  0  0  0  0  0  0  0
   -5.6912    2.5238    6.0997 C   0  0  0  0  0  0  0  0  0  0  0  0
   -2.6489    1.9524    4.6882 S   0  0  0  0  0  0  0  0  0  0  0  0
    0.3120    2.1230    3.4183 C   0  0  0  0  0  0  0  0  0  0  0  0
   -0.6330    0.8758    2.6529 S   0  0  0  0  0  0  0  0  0  0  0  0
    0.8441    4.4564    6.2731 C   0  0  0  0  0  0  0  0  0  0  0  0
    1.8865    5.3325    6.4432 C   0  0  0  0  0  0  0  0  0  0  0  0
    2.9688    5.3158    5.0532 S   0  0  0  0  0  0  0  0  0  0  0  0
    2.1865    6.2346    7.4891 C   0  0  0  0  0  0  0  0  0  0  0  0
    1.7596    6.2244    8.7865 C   0  0  0  0  0  0  0  0  0  0  0  0
    1.0813    5.1140    9.5036 C   0  0  0  0  0  0  0  0  0  0  0  0
    0.5982    4.0985    9.0461 O   0  0  0  0  0  0  0  0  0  0  0  0
    1.1615    5.4632   10.9319 C   0  0  0  0  0  0  0  0  0  0  0  0
    0.7322    4.7349   12.0251 C   0  0  0  0  0  0  0  0  0  0  0  0
    0.9212    5.2710   13.2882 C   0  0  0  0  0  0  0  0  0  0  0  0
    1.5336    6.5107   13.4646 C   0  0  0  0  0  0  0  0  0  0  0  0
    1.7522    7.0519   14.8415 C   0  0  0  0  0  0  0  0  0  0  0  0
    1.9641    7.2385   12.3562 C   0  0  0  0  0  0  0  0  0  0  0  0
    1.7756    6.7173   11.0877 C   0  0  0  0  0  0  0  0  0  0  0  0
    2.1052    7.2417    9.7657 C   0  0  0  0  0  0  0  0  0  0  0  0
    2.5767    8.5006    9.5043 C   0  0  0  0  0  0  0  0  0  0  0  0
    2.7920    9.0437    8.2192 C   0  0  0  0  0  0  0  0  0  0  0  0
    2.9717    9.5717    7.2154 N   0  0  0  0  0  0  0  0  0  0  0  0
    2.8751    9.4540   10.5005 C   0  0  0  0  0  0  0  0  0  0  0  0
    3.1420   10.2710   11.2618 N   0  0  0  0  0  0  0  0  0  0  0  0
   -2.9743   -7.0872   -7.4250 H   0  0  0  0  0  0  0  0  0  0  0  0
   -1.4919   -1.0649  -12.7214 H   0  0  0  0  0  0  0  0  0  0  0  0
   -2.4107   -2.1126  -13.8296 H   0  0  0  0  0  0  0  0  0  0  0  0
   -0.6310   -2.2542  -13.7293 H   0  0  0  0  0  0  0  0  0  0  0  0
   -1.6577   -4.2536  -14.4594 H   0  0  0  0  0  0  0  0  0  0  0  0
   -1.8479   -6.6580  -14.7058 H   0  0  0  0  0  0  0  0  0  0  0  0
   -2.0634   -8.1410  -12.7565 H   0  0  0  0  0  0  0  0  0  0  0  0
   -4.0544   -5.5704   -0.4311 H   0  0  0  0  0  0  0  0  0  0  0  0
   -4.2650   -7.9069   -1.1621 H   0  0  0  0  0  0  0  0  0  0  0  0
   -0.6018   -9.7948   -3.7867 H   0  0  0  0  0  0  0  0  0  0  0  0
   -1.7152   -9.1096   -5.0217 H   0  0  0  0  0  0  0  0  0  0  0  0
   -1.8172  -10.8185   -4.5786 H   0  0  0  0  0  0  0  0  0  0  0  0
   -0.6887   -7.5046   -3.4733 H   0  0  0  0  0  0  0  0  0  0  0  0
   -0.4446   -5.2146   -2.7022 H   0  0  0  0  0  0  0  0  0  0  0  0
   -4.0681   -2.0111   -0.9590 H   0  0  0  0  0  0  0  0  0  0  0  0
   -4.9255   -1.0693    1.1687 H   0  0  0  0  0  0  0  0  0  0  0  0
   -1.9738   -1.6486    4.4247 H   0  0  0  0  0  0  0  0  0  0  0  0
   -2.9047   -2.8518    5.3771 H   0  0  0  0  0  0  0  0  0  0  0  0
   -2.9996   -1.1255    5.7799 H   0  0  0  0  0  0  0  0  0  0  0  0
   -2.5937   -3.9161    3.3449 H   0  0  0  0  0  0  0  0  0  0  0  0
   -1.7547   -4.8468    1.2382 H   0  0  0  0  0  0  0  0  0  0  0  0
    2.7376   -0.9616   -2.1098 H   0  0  0  0  0  0  0  0  0  0  0  0
    3.8263   -1.6800   -4.1705 H   0  0  0  0  0  0  0  0  0  0  0  0
    3.6116   -2.7875   -6.2200 H   0  0  0  0  0  0  0  0  0  0  0  0
    5.2609   -2.1246   -5.9615 H   0  0  0  0  0  0  0  0  0  0  0  0
    4.7019   -2.5213   -7.5995 H   0  0  0  0  0  0  0  0  0  0  0  0
    2.2288    1.7313   -6.1978 H   0  0  0  0  0  0  0  0  0  0  0  0
    1.1346    2.4561   -4.1074 H   0  0  0  0  0  0  0  0  0  0  0  0
    3.1357    2.8414   -2.0455 H   0  0  0  0  0  0  0  0  0  0  0  0
    3.2273    5.1049   -1.1387 H   0  0  0  0  0  0  0  0  0  0  0  0
    2.4270    8.5679   -0.1257 H   0  0  0  0  0  0  0  0  0  0  0  0
    2.4017    7.4284   -1.4916 H   0  0  0  0  0  0  0  0  0  0  0  0
    3.5198    7.1698   -0.1141 H   0  0  0  0  0  0  0  0  0  0  0  0
   -0.7700    4.6850    0.3151 H   0  0  0  0  0  0  0  0  0  0  0  0
   -0.8723    2.4145   -0.6195 H   0  0  0  0  0  0  0  0  0  0  0  0
    2.2928    1.7949    0.7232 H   0  0  0  0  0  0  0  0  0  0  0  0
    3.5048    6.0305    2.5513 H   0  0  0  0  0  0  0  0  0  0  0  0
    7.3028    2.8728    0.4512 H   0  0  0  0  0  0  0  0  0  0  0  0
    7.3318    4.5570   -0.0959 H   0  0  0  0  0  0  0  0  0  0  0  0
    7.1072    2.9840   -2.0157 H   0  0  0  0  0  0  0  0  0  0  0  0
    5.6690    3.9974   -1.8760 H   0  0  0  0  0  0  0  0  0  0  0  0
    5.6281    2.3225   -1.3108 H   0  0  0  0  0  0  0  0  0  0  0  0
   -0.3654    2.2632    7.4684 H   0  0  0  0  0  0  0  0  0  0  0  0
   -2.7215    1.5662    8.2651 H   0  0  0  0  0  0  0  0  0  0  0  0
   -5.0869    0.5387    5.5394 H   0  0  0  0  0  0  0  0  0  0  0  0
   -5.0365    0.8438    7.2860 H   0  0  0  0  0  0  0  0  0  0  0  0
   -5.4630    3.2713    6.8563 H   0  0  0  0  0  0  0  0  0  0  0  0
   -6.7451    2.2678    6.1685 H   0  0  0  0  0  0  0  0  0  0  0  0
   -5.5003    2.9537    5.1193 H   0  0  0  0  0  0  0  0  0  0  0  0
    0.0355    4.3762    6.9720 H   0  0  0  0  0  0  0  0  0  0  0  0
    2.8978    7.0041    7.2111 H   0  0  0  0  0  0  0  0  0  0  0  0
    0.2603    3.7746   11.8841 H   0  0  0  0  0  0  0  0  0  0  0  0
    0.5899    4.7212   14.1572 H   0  0  0  0  0  0  0  0  0  0  0  0
    2.6789    6.6490   15.2519 H   0  0  0  0  0  0  0  0  0  0  0  0
    0.9404    6.7650   15.5058 H   0  0  0  0  0  0  0  0  0  0  0  0
    1.8351    8.1355   14.8247 H   0  0  0  0  0  0  0  0  0  0  0  0
    2.4422    8.1933   12.5046 H   0  0  0  0  0  0  0  0  0  0  0  0
  1  2  2  0  0  0  0
  2  3  1  0  0  0  0
  3  4  2  0  0  0  0
  3  5  1  0  0  0  0
  5  6  2  0  0  0  0
  6  7  1  0  0  0  0
  7  8  1  0  0  0  0
  6  9  1  0  0  0  0
  9 10  2  0  0  0  0
 10 11  1  0  0  0  0
 11 12  2  0  0  0  0
 12 13  1  0  0  0  0
 13 14  2  0  0  0  0
 14 15  1  0  0  0  0
 15 16  3  0  0  0  0
 14 17  1  0  0  0  0
 17 18  3  0  0  0  0
  1 19  1  0  0  0  0
 19 20  2  0  0  0  0
 20 21  1  0  0  0  0
 21 22  1  0  0  0  0
 22 23  2  0  0  0  0
 23 24  2  0  0  0  0
 21 25  2  0  0  0  0
 25 26  1  0  0  0  0
 26 27  2  0  0  0  0
 27 28  1  0  0  0  0
 28 29  1  0  0  0  0
 29 30  2  0  0  0  0
 25 31  1  0  0  0  0
 31 32  2  0  0  0  0
 32 33  1  0  0  0  0
 33 34  1  0  0  0  0
 34 35  2  0  0  0  0
 35 36  1  0  0  0  0
 36 37  2  0  0  0  0
 37 38  1  0  0  0  0
 38 39  1  0  0  0  0
 37 40  1  0  0  0  0
 40 41  2  0  0  0  0
 33 42  1  0  0  0  0
 42 43  2  0  0  0  0
 43 44  1  0  0  0  0
 44 45  2  0  0  0  0
 45 46  1  0  0  0  0
 46 47  1  0  0  0  0
 45 48  1  0  0  0  0
 48 49  2  0  0  0  0
 32 50  1  0  0  0  0
 50 51  1  0  0  0  0
 51 52  1  0  0  0  0
 52 53  2  0  0  0  0
 53 54  1  0  0  0  0
 54 55  1  0  0  0  0
 55 56  2  0  0  0  0
 56 57  1  0  0  0  0
 57 58  2  0  0  0  0
 58 59  1  0  0  0  0
 59 60  1  0  0  0  0
 58 61  1  0  0  0  0
 61 62  2  0  0  0  0
 54 63  1  0  0  0  0
 63 64  2  0  0  0  0
 64 65  1  0  0  0  0
 65 66  2  0  0  0  0
 66 67  1  0  0  0  0
 67 68  1  0  0  0  0
 66 69  1  0  0  0  0
 69 70  2  0  0  0  0
 53 71  1  0  0  0  0
 71 72  1  0  0  0  0
 52 73  1  0  0  0  0
 73 74  2  0  0  0  0
 74 75  1  0  0  0  0
 75 76  2  0  0  0  0
 76 77  1  0  0  0  0
 77 78  2  0  0  0  0
 78 79  1  0  0  0  0
 79 80  1  0  0  0  0
 79 81  2  0  0  0  0
 81 82  1  0  0  0  0
 82 83  1  0  0  0  0
 81 84  1  0  0  0  0
 76 85  1  0  0  0  0
 85 86  2  0  0  0  0
 86 87  1  0  0  0  0
 87 88  1  0  0  0  0
 88 89  2  0  0  0  0
 89 90  1  0  0  0  0
 90 91  2  0  0  0  0
 91 92  1  0  0  0  0
 92 93  1  0  0  0  0
 91 94  1  0  0  0  0
 87 95  2  0  0  0  0
 95 96  1  0  0  0  0
 86 97  1  0  0  0  0
 97 98  2  0  0  0  0
 98 99  1  0  0  0  0
 98100  1  0  0  0  0
100101  2  0  0  0  0
101102  1  0  0  0  0
102103  2  0  0  0  0
102104  1  0  0  0  0
104105  2  0  0  0  0
105106  1  0  0  0  0
106107  2  0  0  0  0
107108  1  0  0  0  0
107109  1  0  0  0  0
109110  2  0  0  0  0
110111  1  0  0  0  0
111112  2  0  0  0  0
112113  1  0  0  0  0
113114  3  0  0  0  0
112115  1  0  0  0  0
115116  3  0  0  0  0
 13  2  1  0  0  0  0
 30 19  1  0  0  0  0
 72 31  1  0  0  0  0
 96 73  1  0  0  0  0
111101  1  0  0  0  0
 12  5  1  0  0  0  0
 24 20  1  0  0  0  0
 30 26  1  0  0  0  0
 41 34  1  0  0  0  0
 49 42  1  0  0  0  0
 71 50  2  0  0  0  0
 95 75  1  0  0  0  0
110104  1  0  0  0  0
 62 55  1  0  0  0  0
 70 63  1  0  0  0  0
 84 77  1  0  0  0  0
 99 85  1  0  0  0  0
 94 88  1  0  0  0  0
  1117  1  0  0  0  0
  8118  1  0  0  0  0
  8119  1  0  0  0  0
  8120  1  0  0  0  0
  9121  1  0  0  0  0
 10122  1  0  0  0  0
 11123  1  0  0  0  0
 35124  1  0  0  0  0
 36125  1  0  0  0  0
 39126  1  0  0  0  0
 39127  1  0  0  0  0
 39128  1  0  0  0  0
 40129  1  0  0  0  0
 41130  1  0  0  0  0
 43131  1  0  0  0  0
 44132  1  0  0  0  0
 47133  1  0  0  0  0
 47134  1  0  0  0  0
 47135  1  0  0  0  0
 48136  1  0  0  0  0
 49137  1  0  0  0  0
 56138  1  0  0  0  0
 57139  1  0  0  0  0
 60140  1  0  0  0  0
 60141  1  0  0  0  0
 60142  1  0  0  0  0
 61143  1  0  0  0  0
 62144  1  0  0  0  0
 64145  1  0  0  0  0
 65146  1  0  0  0  0
 68147  1  0  0  0  0
 68148  1  0  0  0  0
 68149  1  0  0  0  0
 69150  1  0  0  0  0
 70151  1  0  0  0  0
 74152  1  0  0  0  0
 78153  1  0  0  0  0
 82154  1  0  0  0  0
 82155  1  0  0  0  0
 83156  1  0  0  0  0
 83157  1  0  0  0  0
 83158  1  0  0  0  0
 89159  1  0  0  0  0
 90160  1  0  0  0  0
 92161  1  0  0  0  0
 92162  1  0  0  0  0
 93163  1  0  0  0  0
 93164  1  0  0  0  0
 93165  1  0  0  0  0
 97166  1  0  0  0  0
100167  1  0  0  0  0
105168  1  0  0  0  0
106169  1  0  0  0  0
108170  1  0  0  0  0
108171  1  0  0  0  0
108172  1  0  0  0  0
109173  1  0  0  0  0
M  END
