
  xtb     02032223573D
 energy: -345.116045215851 gnorm: 0.000975274846 xtb: 6.4.1 (unknown)
200219  0     0  0            999 V2000
   -6.7559   -2.8042   -9.3765 C   0  0  0  0  0  0  0  0  0  0  0  0
   -6.4268   -3.5872  -10.4378 C   0  0  0  0  0  0  0  0  0  0  0  0
   -7.3287   -3.6114  -11.6305 C   0  0  0  0  0  0  0  0  0  0  0  0
   -8.4645   -3.2019  -11.6697 O   0  0  0  0  0  0  0  0  0  0  0  0
   -6.5087   -4.1807  -12.7127 C   0  0  0  0  0  0  0  0  0  0  0  0
   -6.8160   -4.3136  -14.0708 C   0  0  0  0  0  0  0  0  0  0  0  0
   -8.0250   -3.8999  -14.4768 O   0  0  0  0  0  0  0  0  0  0  0  0
   -8.3798   -4.0261  -15.8337 C   0  0  0  0  0  0  0  0  0  0  0  0
   -5.8309   -4.8686  -14.8974 C   0  0  0  0  0  0  0  0  0  0  0  0
   -4.6074   -5.2582  -14.3827 C   0  0  0  0  0  0  0  0  0  0  0  0
   -4.3030   -5.1348  -13.0339 C   0  0  0  0  0  0  0  0  0  0  0  0
   -5.2677   -4.5981  -12.1998 C   0  0  0  0  0  0  0  0  0  0  0  0
   -5.2616   -4.3823  -10.7527 C   0  0  0  0  0  0  0  0  0  0  0  0
   -4.4486   -5.0372   -9.8650 C   0  0  0  0  0  0  0  0  0  0  0  0
   -3.3675   -5.8601  -10.2359 C   0  0  0  0  0  0  0  0  0  0  0  0
   -2.4573   -6.5191  -10.4745 N   0  0  0  0  0  0  0  0  0  0  0  0
   -4.6465   -5.0301   -8.4685 C   0  0  0  0  0  0  0  0  0  0  0  0
   -4.7924   -5.1052   -7.3325 N   0  0  0  0  0  0  0  0  0  0  0  0
   -5.9145   -2.3413   -8.3352 C   0  0  0  0  0  0  0  0  0  0  0  0
   -4.5473   -2.2325   -8.3246 C   0  0  0  0  0  0  0  0  0  0  0  0
   -4.0187   -1.7231   -7.1238 C   0  0  0  0  0  0  0  0  0  0  0  0
   -2.6591   -1.5146   -6.7979 C   0  0  0  0  0  0  0  0  0  0  0  0
   -1.5763   -1.8523   -7.6949 C   0  0  0  0  0  0  0  0  0  0  0  0
   -0.3994   -1.1772   -7.8722 C   0  0  0  0  0  0  0  0  0  0  0  0
    0.4644   -1.7860   -8.8006 C   0  0  0  0  0  0  0  0  0  0  0  0
   -0.0332   -2.9360   -9.3339 C   0  0  0  0  0  0  0  0  0  0  0  0
    0.5960   -3.8423  -10.3342 C   0  0  0  0  0  0  0  0  0  0  0  0
    0.7131   -5.2759   -9.8170 C   0  0  0  0  0  0  0  0  0  0  0  0
   -1.6049   -3.2844   -8.6927 S   0  0  0  0  0  0  0  0  0  0  0  0
   -2.4133   -0.9622   -5.5472 C   0  0  0  0  0  0  0  0  0  0  0  0
   -3.4358   -0.5812   -4.6429 C   0  0  0  0  0  0  0  0  0  0  0  0
   -4.7924   -0.8020   -4.9626 C   0  0  0  0  0  0  0  0  0  0  0  0
   -5.8753   -0.4351   -4.0738 C   0  0  0  0  0  0  0  0  0  0  0  0
   -7.0344   -1.1210   -3.8346 C   0  0  0  0  0  0  0  0  0  0  0  0
   -7.9089   -0.4525   -2.9563 C   0  0  0  0  0  0  0  0  0  0  0  0
   -7.4347    0.7488   -2.5265 C   0  0  0  0  0  0  0  0  0  0  0  0
   -8.1025    1.7523   -1.6530 C   0  0  0  0  0  0  0  0  0  0  0  0
   -8.8991    2.7588   -2.4867 C   0  0  0  0  0  0  0  0  0  0  0  0
   -5.8738    1.0737   -3.1990 S   0  0  0  0  0  0  0  0  0  0  0  0
   -5.0412   -1.3901   -6.1973 C   0  0  0  0  0  0  0  0  0  0  0  0
   -6.6163   -1.7455   -6.8448 S   0  0  0  0  0  0  0  0  0  0  0  0
   -2.9033   -0.0521   -3.4505 C   0  0  0  0  0  0  0  0  0  0  0  0
   -1.5325   -0.0191   -3.4053 C   0  0  0  0  0  0  0  0  0  0  0  0
   -0.8315   -0.6771   -4.8674 S   0  0  0  0  0  0  0  0  0  0  0  0
   -0.7877    0.4268   -2.2787 C   0  0  0  0  0  0  0  0  0  0  0  0
    0.5678    0.3943   -1.9638 C   0  0  0  0  0  0  0  0  0  0  0  0
    1.6197    0.0345   -2.7864 N   0  0  0  0  0  0  0  0  0  0  0  0
    2.7551   -0.5009   -2.1394 C   0  0  0  0  0  0  0  0  0  0  0  0
    2.6226   -1.6204   -1.3202 C   0  0  0  0  0  0  0  0  0  0  0  0
    3.6947   -2.0636   -0.5753 C   0  0  0  0  0  0  0  0  0  0  0  0
    4.9122   -1.3941   -0.6396 C   0  0  0  0  0  0  0  0  0  0  0  0
    6.2177   -1.9455    0.4123 S   0  0  0  0  0  0  0  0  0  0  0  0
    7.1079   -0.3952    0.7448 C   0  0  0  0  0  0  0  0  0  0  0  0
    5.0672   -0.3232   -1.5108 C   0  0  0  0  0  0  0  0  0  0  0  0
    3.9943    0.1219   -2.2543 C   0  0  0  0  0  0  0  0  0  0  0  0
    1.7475    0.4734   -4.1058 C   0  0  0  0  0  0  0  0  0  0  0  0
    2.5343   -0.2671   -4.9919 C   0  0  0  0  0  0  0  0  0  0  0  0
    2.6632    0.1273   -6.3018 C   0  0  0  0  0  0  0  0  0  0  0  0
    2.0094    1.2685   -6.7657 C   0  0  0  0  0  0  0  0  0  0  0  0
    2.2208    1.6527   -8.4771 S   0  0  0  0  0  0  0  0  0  0  0  0
    0.9949    2.9550   -8.7830 C   0  0  0  0  0  0  0  0  0  0  0  0
    1.2483    2.0227   -5.8842 C   0  0  0  0  0  0  0  0  0  0  0  0
    1.1216    1.6290   -4.5652 C   0  0  0  0  0  0  0  0  0  0  0  0
    0.7737    0.7630   -0.6074 C   0  0  0  0  0  0  0  0  0  0  0  0
    2.1599    0.8512    0.4189 S   0  0  0  0  0  0  0  0  0  0  0  0
    1.1684    1.3384    1.7907 C   0  0  0  0  0  0  0  0  0  0  0  0
   -0.1647    1.5128    1.4295 C   0  0  0  0  0  0  0  0  0  0  0  0
   -1.2096    1.9571    2.2294 N   0  0  0  0  0  0  0  0  0  0  0  0
   -2.4675    1.3888    1.9334 C   0  0  0  0  0  0  0  0  0  0  0  0
   -3.5781    2.1745    1.6281 C   0  0  0  0  0  0  0  0  0  0  0  0
   -4.7516    1.5809    1.2189 C   0  0  0  0  0  0  0  0  0  0  0  0
   -4.8382    0.1972    1.0946 C   0  0  0  0  0  0  0  0  0  0  0  0
   -6.3532   -0.4773    0.4859 S   0  0  0  0  0  0  0  0  0  0  0  0
   -5.7902   -1.9803   -0.3660 C   0  0  0  0  0  0  0  0  0  0  0  0
   -3.7511   -0.5916    1.4476 C   0  0  0  0  0  0  0  0  0  0  0  0
   -2.5772    0.0019    1.8656 C   0  0  0  0  0  0  0  0  0  0  0  0
   -1.1389    3.1653    2.9265 C   0  0  0  0  0  0  0  0  0  0  0  0
   -2.0847    3.4473    3.9154 C   0  0  0  0  0  0  0  0  0  0  0  0
   -2.0708    4.6592    4.5672 C   0  0  0  0  0  0  0  0  0  0  0  0
   -1.0933    5.6077    4.2767 C   0  0  0  0  0  0  0  0  0  0  0  0
   -1.1655    7.1522    5.1331 S   0  0  0  0  0  0  0  0  0  0  0  0
    0.5594    7.7171    5.0874 C   0  0  0  0  0  0  0  0  0  0  0  0
   -0.1329    5.3211    3.3172 C   0  0  0  0  0  0  0  0  0  0  0  0
   -0.1590    4.1157    2.6459 C   0  0  0  0  0  0  0  0  0  0  0  0
   -0.3672    1.1408    0.0763 C   0  0  0  0  0  0  0  0  0  0  0  0
   -1.7597    1.0438   -0.9391 S   0  0  0  0  0  0  0  0  0  0  0  0
    1.8259    1.3540    3.0530 C   0  0  0  0  0  0  0  0  0  0  0  0
    1.4143    1.7461    4.2999 C   0  0  0  0  0  0  0  0  0  0  0  0
    2.3670    1.4974    5.3163 C   0  0  0  0  0  0  0  0  0  0  0  0
    2.2656    1.7781    6.6932 C   0  0  0  0  0  0  0  0  0  0  0  0
    1.1332    2.4505    7.3037 C   0  0  0  0  0  0  0  0  0  0  0  0
    0.4777    2.0775    8.4420 C   0  0  0  0  0  0  0  0  0  0  0  0
   -0.4956    3.0082    8.8532 C   0  0  0  0  0  0  0  0  0  0  0  0
   -0.5796    4.0997    8.0458 C   0  0  0  0  0  0  0  0  0  0  0  0
   -1.4116    5.3176    8.2441 C   0  0  0  0  0  0  0  0  0  0  0  0
   -0.5846    6.4449    8.8667 C   0  0  0  0  0  0  0  0  0  0  0  0
    0.5392    3.9804    6.7247 S   0  0  0  0  0  0  0  0  0  0  0  0
    3.3308    1.3815    7.4923 C   0  0  0  0  0  0  0  0  0  0  0  0
    4.4822    0.7258    6.9867 C   0  0  0  0  0  0  0  0  0  0  0  0
    4.5974    0.4644    5.6028 C   0  0  0  0  0  0  0  0  0  0  0  0
    5.7836   -0.1897    5.0869 C   0  0  0  0  0  0  0  0  0  0  0  0
    7.0884    0.1111    5.3620 C   0  0  0  0  0  0  0  0  0  0  0  0
    8.0008   -0.7876    4.7765 C   0  0  0  0  0  0  0  0  0  0  0  0
    7.3991   -1.7801    4.0627 C   0  0  0  0  0  0  0  0  0  0  0  0
    8.0324   -2.9501    3.3928 C   0  0  0  0  0  0  0  0  0  0  0  0
    7.8846   -4.2130    4.2444 C   0  0  0  0  0  0  0  0  0  0  0  0
    5.6749   -1.5999    4.0723 S   0  0  0  0  0  0  0  0  0  0  0  0
    3.5310    0.8556    4.8138 C   0  0  0  0  0  0  0  0  0  0  0  0
    3.4361    0.6474    3.0908 S   0  0  0  0  0  0  0  0  0  0  0  0
    5.4025    0.4098    7.9985 C   0  0  0  0  0  0  0  0  0  0  0  0
    5.0259    0.8407    9.2511 C   0  0  0  0  0  0  0  0  0  0  0  0
    3.4514    1.6209    9.2100 S   0  0  0  0  0  0  0  0  0  0  0  0
    5.6668    0.6604   10.4936 C   0  0  0  0  0  0  0  0  0  0  0  0
    6.9488    0.2712   10.7659 C   0  0  0  0  0  0  0  0  0  0  0  0
    7.2559   -0.2790   12.1107 C   0  0  0  0  0  0  0  0  0  0  0  0
    6.5613   -0.2281   13.0982 O   0  0  0  0  0  0  0  0  0  0  0  0
    8.5710   -0.9473   11.9637 C   0  0  0  0  0  0  0  0  0  0  0  0
    9.2632   -1.7028   12.8888 C   0  0  0  0  0  0  0  0  0  0  0  0
   10.4744   -2.2506   12.4959 C   0  0  0  0  0  0  0  0  0  0  0  0
   11.1776   -2.9928   13.3601 F   0  0  0  0  0  0  0  0  0  0  0  0
   10.9680   -2.0393   11.2084 C   0  0  0  0  0  0  0  0  0  0  0  0
   12.1341   -2.5910   10.8531 F   0  0  0  0  0  0  0  0  0  0  0  0
   10.2788   -1.2709   10.2818 C   0  0  0  0  0  0  0  0  0  0  0  0
    9.0677   -0.7205   10.6682 C   0  0  0  0  0  0  0  0  0  0  0  0
    8.1387    0.1583    9.9562 C   0  0  0  0  0  0  0  0  0  0  0  0
    8.4639    0.9161    8.8597 C   0  0  0  0  0  0  0  0  0  0  0  0
    7.6762    1.9907    8.3999 C   0  0  0  0  0  0  0  0  0  0  0  0
    7.0988    2.9039    8.0123 N   0  0  0  0  0  0  0  0  0  0  0  0
    9.6403    0.7531    8.1027 C   0  0  0  0  0  0  0  0  0  0  0  0
   10.5549    0.6330    7.4190 N   0  0  0  0  0  0  0  0  0  0  0  0
   -7.7786   -2.4405   -9.3685 H   0  0  0  0  0  0  0  0  0  0  0  0
   -8.3731   -5.0724  -16.1550 H   0  0  0  0  0  0  0  0  0  0  0  0
   -9.3924   -3.6336  -15.9062 H   0  0  0  0  0  0  0  0  0  0  0  0
   -7.7171   -3.4402  -16.4785 H   0  0  0  0  0  0  0  0  0  0  0  0
   -6.0166   -4.9974  -15.9519 H   0  0  0  0  0  0  0  0  0  0  0  0
   -3.8691   -5.6728  -15.0527 H   0  0  0  0  0  0  0  0  0  0  0  0
   -3.3395   -5.4415  -12.6626 H   0  0  0  0  0  0  0  0  0  0  0  0
   -3.9463   -2.4626   -9.1848 H   0  0  0  0  0  0  0  0  0  0  0  0
   -0.1700   -0.2521   -7.3759 H   0  0  0  0  0  0  0  0  0  0  0  0
    1.4223   -1.3755   -9.0663 H   0  0  0  0  0  0  0  0  0  0  0  0
    1.5856   -3.4481  -10.5768 H   0  0  0  0  0  0  0  0  0  0  0  0
   -0.0009   -3.8457  -11.2514 H   0  0  0  0  0  0  0  0  0  0  0  0
    1.2586   -5.2966   -8.8762 H   0  0  0  0  0  0  0  0  0  0  0  0
    1.2413   -5.8920  -10.5399 H   0  0  0  0  0  0  0  0  0  0  0  0
   -0.2746   -5.7038   -9.6594 H   0  0  0  0  0  0  0  0  0  0  0  0
   -7.2382   -2.0928   -4.2470 H   0  0  0  0  0  0  0  0  0  0  0  0
   -8.8595   -0.8513   -2.6489 H   0  0  0  0  0  0  0  0  0  0  0  0
   -8.7705    1.2332   -0.9630 H   0  0  0  0  0  0  0  0  0  0  0  0
   -7.3507    2.2828   -1.0663 H   0  0  0  0  0  0  0  0  0  0  0  0
   -9.6612    2.2480   -3.0703 H   0  0  0  0  0  0  0  0  0  0  0  0
   -8.2394    3.2885   -3.1705 H   0  0  0  0  0  0  0  0  0  0  0  0
   -9.3842    3.4845   -1.8390 H   0  0  0  0  0  0  0  0  0  0  0  0
   -3.5073    0.2899   -2.6298 H   0  0  0  0  0  0  0  0  0  0  0  0
    1.6655   -2.1158   -1.2502 H   0  0  0  0  0  0  0  0  0  0  0  0
    3.5940   -2.9139    0.0808 H   0  0  0  0  0  0  0  0  0  0  0  0
    6.3826    0.3876    0.9444 H   0  0  0  0  0  0  0  0  0  0  0  0
    7.7498   -0.1363   -0.0920 H   0  0  0  0  0  0  0  0  0  0  0  0
    7.7131   -0.5740    1.6281 H   0  0  0  0  0  0  0  0  0  0  0  0
    6.0159    0.1813   -1.6003 H   0  0  0  0  0  0  0  0  0  0  0  0
    4.1048    0.9727   -2.9103 H   0  0  0  0  0  0  0  0  0  0  0  0
    3.0277   -1.1614   -4.6435 H   0  0  0  0  0  0  0  0  0  0  0  0
    3.2609   -0.4514   -6.9888 H   0  0  0  0  0  0  0  0  0  0  0  0
    1.2754    3.8666   -8.2633 H   0  0  0  0  0  0  0  0  0  0  0  0
    0.0109    2.6113   -8.4774 H   0  0  0  0  0  0  0  0  0  0  0  0
    1.0101    3.1253   -9.8551 H   0  0  0  0  0  0  0  0  0  0  0  0
    0.7473    2.9214   -6.2069 H   0  0  0  0  0  0  0  0  0  0  0  0
    0.5274    2.2251   -3.8884 H   0  0  0  0  0  0  0  0  0  0  0  0
   -3.5055    3.2503    1.6768 H   0  0  0  0  0  0  0  0  0  0  0  0
   -5.6061    2.1866    0.9607 H   0  0  0  0  0  0  0  0  0  0  0  0
   -4.8862   -1.7564   -0.9241 H   0  0  0  0  0  0  0  0  0  0  0  0
   -6.5886   -2.2513   -1.0497 H   0  0  0  0  0  0  0  0  0  0  0  0
   -5.6244   -2.7844    0.3449 H   0  0  0  0  0  0  0  0  0  0  0  0
   -3.8099   -1.6671    1.3950 H   0  0  0  0  0  0  0  0  0  0  0  0
   -1.7246   -0.6096    2.1234 H   0  0  0  0  0  0  0  0  0  0  0  0
   -2.8339    2.7108    4.1637 H   0  0  0  0  0  0  0  0  0  0  0  0
   -2.8212    4.8783    5.3110 H   0  0  0  0  0  0  0  0  0  0  0  0
    0.8033    8.1164    4.1070 H   0  0  0  0  0  0  0  0  0  0  0  0
    1.2107    6.8889    5.3498 H   0  0  0  0  0  0  0  0  0  0  0  0
    0.6340    8.5049    5.8305 H   0  0  0  0  0  0  0  0  0  0  0  0
    0.6307    6.0396    3.0669 H   0  0  0  0  0  0  0  0  0  0  0  0
    0.5784    3.9204    1.8826 H   0  0  0  0  0  0  0  0  0  0  0  0
    0.4594    2.1951    4.4971 H   0  0  0  0  0  0  0  0  0  0  0  0
    0.6714    1.1526    8.9551 H   0  0  0  0  0  0  0  0  0  0  0  0
   -1.1086    2.8758    9.7269 H   0  0  0  0  0  0  0  0  0  0  0  0
   -1.8106    5.6634    7.2903 H   0  0  0  0  0  0  0  0  0  0  0  0
   -2.2469    5.0693    8.9021 H   0  0  0  0  0  0  0  0  0  0  0  0
   -0.1910    6.1401    9.8337 H   0  0  0  0  0  0  0  0  0  0  0  0
    0.2507    6.6981    8.2182 H   0  0  0  0  0  0  0  0  0  0  0  0
   -1.2007    7.3301    9.0007 H   0  0  0  0  0  0  0  0  0  0  0  0
    7.3812    0.9768    5.9293 H   0  0  0  0  0  0  0  0  0  0  0  0
    9.0671   -0.7010    4.8915 H   0  0  0  0  0  0  0  0  0  0  0  0
    7.5634   -3.1219    2.4216 H   0  0  0  0  0  0  0  0  0  0  0  0
    9.0921   -2.7370    3.2358 H   0  0  0  0  0  0  0  0  0  0  0  0
    8.3533   -5.0576    3.7464 H   0  0  0  0  0  0  0  0  0  0  0  0
    6.8323   -4.4403    4.3988 H   0  0  0  0  0  0  0  0  0  0  0  0
    8.3564   -4.0747    5.2148 H   0  0  0  0  0  0  0  0  0  0  0  0
    6.2848   -0.1769    7.8170 H   0  0  0  0  0  0  0  0  0  0  0  0
    5.0354    0.7706   11.3700 H   0  0  0  0  0  0  0  0  0  0  0  0
    8.8810   -1.8645   13.8840 H   0  0  0  0  0  0  0  0  0  0  0  0
   10.6991   -1.1354    9.2985 H   0  0  0  0  0  0  0  0  0  0  0  0
  1  2  2  0  0  0  0
  2  3  1  0  0  0  0
  3  4  2  0  0  0  0
  3  5  1  0  0  0  0
  5  6  2  0  0  0  0
  6  7  1  0  0  0  0
  7  8  1  0  0  0  0
  6  9  1  0  0  0  0
  9 10  2  0  0  0  0
 10 11  1  0  0  0  0
 11 12  2  0  0  0  0
 12 13  1  0  0  0  0
 13 14  2  0  0  0  0
 14 15  1  0  0  0  0
 15 16  3  0  0  0  0
 14 17  1  0  0  0  0
 17 18  3  0  0  0  0
  1 19  1  0  0  0  0
 19 20  2  0  0  0  0
 20 21  1  0  0  0  0
 21 22  2  0  0  0  0
 22 23  1  0  0  0  0
 23 24  2  0  0  0  0
 24 25  1  0  0  0  0
 25 26  2  0  0  0  0
 26 27  1  0  0  0  0
 27 28  1  0  0  0  0
 26 29  1  0  0  0  0
 22 30  1  0  0  0  0
 30 31  2  0  0  0  0
 31 32  1  0  0  0  0
 32 33  1  0  0  0  0
 33 34  2  0  0  0  0
 34 35  1  0  0  0  0
 35 36  2  0  0  0  0
 36 37  1  0  0  0  0
 37 38  1  0  0  0  0
 36 39  1  0  0  0  0
 32 40  2  0  0  0  0
 40 41  1  0  0  0  0
 31 42  1  0  0  0  0
 42 43  2  0  0  0  0
 43 44  1  0  0  0  0
 43 45  1  0  0  0  0
 45 46  2  0  0  0  0
 46 47  1  0  0  0  0
 47 48  1  0  0  0  0
 48 49  2  0  0  0  0
 49 50  1  0  0  0  0
 50 51  2  0  0  0  0
 51 52  1  0  0  0  0
 52 53  1  0  0  0  0
 51 54  1  0  0  0  0
 54 55  2  0  0  0  0
 47 56  1  0  0  0  0
 56 57  2  0  0  0  0
 57 58  1  0  0  0  0
 58 59  2  0  0  0  0
 59 60  1  0  0  0  0
 60 61  1  0  0  0  0
 59 62  1  0  0  0  0
 62 63  2  0  0  0  0
 46 64  1  0  0  0  0
 64 65  1  0  0  0  0
 65 66  1  0  0  0  0
 66 67  2  0  0  0  0
 67 68  1  0  0  0  0
 68 69  1  0  0  0  0
 69 70  2  0  0  0  0
 70 71  1  0  0  0  0
 71 72  2  0  0  0  0
 72 73  1  0  0  0  0
 73 74  1  0  0  0  0
 72 75  1  0  0  0  0
 75 76  2  0  0  0  0
 68 77  1  0  0  0  0
 77 78  2  0  0  0  0
 78 79  1  0  0  0  0
 79 80  2  0  0  0  0
 80 81  1  0  0  0  0
 81 82  1  0  0  0  0
 80 83  1  0  0  0  0
 83 84  2  0  0  0  0
 67 85  1  0  0  0  0
 85 86  1  0  0  0  0
 66 87  1  0  0  0  0
 87 88  2  0  0  0  0
 88 89  1  0  0  0  0
 89 90  2  0  0  0  0
 90 91  1  0  0  0  0
 91 92  2  0  0  0  0
 92 93  1  0  0  0  0
 93 94  2  0  0  0  0
 94 95  1  0  0  0  0
 95 96  1  0  0  0  0
 94 97  1  0  0  0  0
 90 98  1  0  0  0  0
 98 99  2  0  0  0  0
 99100  1  0  0  0  0
100101  1  0  0  0  0
101102  2  0  0  0  0
102103  1  0  0  0  0
103104  2  0  0  0  0
104105  1  0  0  0  0
105106  1  0  0  0  0
104107  1  0  0  0  0
100108  2  0  0  0  0
108109  1  0  0  0  0
 99110  1  0  0  0  0
110111  2  0  0  0  0
111112  1  0  0  0  0
111113  1  0  0  0  0
113114  2  0  0  0  0
114115  1  0  0  0  0
115116  2  0  0  0  0
115117  1  0  0  0  0
117118  2  0  0  0  0
118119  1  0  0  0  0
119120  1  0  0  0  0
119121  2  0  0  0  0
121122  1  0  0  0  0
121123  1  0  0  0  0
123124  2  0  0  0  0
124125  1  0  0  0  0
125126  2  0  0  0  0
126127  1  0  0  0  0
127128  3  0  0  0  0
126129  1  0  0  0  0
129130  3  0  0  0  0
 13  2  1  0  0  0  0
 41 19  1  0  0  0  0
 86 45  1  0  0  0  0
109 87  1  0  0  0  0
125114  1  0  0  0  0
 12  5  1  0  0  0  0
 40 21  1  0  0  0  0
 55 48  1  0  0  0  0
 63 56  1  0  0  0  0
 85 64  2  0  0  0  0
108 89  1  0  0  0  0
124117  1  0  0  0  0
 29 23  1  0  0  0  0
 44 30  1  0  0  0  0
 76 69  1  0  0  0  0
 84 77  1  0  0  0  0
 97 91  1  0  0  0  0
112 98  1  0  0  0  0
 39 33  1  0  0  0  0
107101  1  0  0  0  0
  1131  1  0  0  0  0
  8132  1  0  0  0  0
  8133  1  0  0  0  0
  8134  1  0  0  0  0
  9135  1  0  0  0  0
 10136  1  0  0  0  0
 11137  1  0  0  0  0
 20138  1  0  0  0  0
 24139  1  0  0  0  0
 25140  1  0  0  0  0
 27141  1  0  0  0  0
 27142  1  0  0  0  0
 28143  1  0  0  0  0
 28144  1  0  0  0  0
 28145  1  0  0  0  0
 34146  1  0  0  0  0
 35147  1  0  0  0  0
 37148  1  0  0  0  0
 37149  1  0  0  0  0
 38150  1  0  0  0  0
 38151  1  0  0  0  0
 38152  1  0  0  0  0
 42153  1  0  0  0  0
 49154  1  0  0  0  0
 50155  1  0  0  0  0
 53156  1  0  0  0  0
 53157  1  0  0  0  0
 53158  1  0  0  0  0
 54159  1  0  0  0  0
 55160  1  0  0  0  0
 57161  1  0  0  0  0
 58162  1  0  0  0  0
 61163  1  0  0  0  0
 61164  1  0  0  0  0
 61165  1  0  0  0  0
 62166  1  0  0  0  0
 63167  1  0  0  0  0
 70168  1  0  0  0  0
 71169  1  0  0  0  0
 74170  1  0  0  0  0
 74171  1  0  0  0  0
 74172  1  0  0  0  0
 75173  1  0  0  0  0
 76174  1  0  0  0  0
 78175  1  0  0  0  0
 79176  1  0  0  0  0
 82177  1  0  0  0  0
 82178  1  0  0  0  0
 82179  1  0  0  0  0
 83180  1  0  0  0  0
 84181  1  0  0  0  0
 88182  1  0  0  0  0
 92183  1  0  0  0  0
 93184  1  0  0  0  0
 95185  1  0  0  0  0
 95186  1  0  0  0  0
 96187  1  0  0  0  0
 96188  1  0  0  0  0
 96189  1  0  0  0  0
102190  1  0  0  0  0
103191  1  0  0  0  0
105192  1  0  0  0  0
105193  1  0  0  0  0
106194  1  0  0  0  0
106195  1  0  0  0  0
106196  1  0  0  0  0
110197  1  0  0  0  0
113198  1  0  0  0  0
118199  1  0  0  0  0
123200  1  0  0  0  0
M  END
