200

C         -6.75590       -2.80420       -9.37650
C         -6.42680       -3.58720      -10.43780
C         -7.32870       -3.61140      -11.63050
O         -8.46450       -3.20190      -11.66970
C         -6.50870       -4.18070      -12.71270
C         -6.81600       -4.31360      -14.07080
O         -8.02500       -3.89990      -14.47680
C         -8.37980       -4.02610      -15.83370
C         -5.83090       -4.86860      -14.89740
C         -4.60740       -5.25820      -14.38270
C         -4.30300       -5.13480      -13.03390
C         -5.26770       -4.59810      -12.19980
C         -5.26160       -4.38230      -10.75270
C         -4.44860       -5.03720       -9.86500
C         -3.36750       -5.86010      -10.23590
N         -2.45730       -6.51910      -10.47450
C         -4.64650       -5.03010       -8.46850
N         -4.79240       -5.10520       -7.33250
C         -5.91450       -2.34130       -8.33520
C         -4.54730       -2.23250       -8.32460
C         -4.01870       -1.72310       -7.12380
C         -2.65910       -1.51460       -6.79790
C         -1.57630       -1.85230       -7.69490
C         -0.39940       -1.17720       -7.87220
C          0.46440       -1.78600       -8.80060
C         -0.03320       -2.93600       -9.33390
C          0.59600       -3.84230      -10.33420
C          0.71310       -5.27590       -9.81700
S         -1.60490       -3.28440       -8.69270
C         -2.41330       -0.96220       -5.54720
C         -3.43580       -0.58120       -4.64290
C         -4.79240       -0.80200       -4.96260
C         -5.87530       -0.43510       -4.07380
C         -7.03440       -1.12100       -3.83460
C         -7.90890       -0.45250       -2.95630
C         -7.43470        0.74880       -2.52650
C         -8.10250        1.75230       -1.65300
C         -8.89910        2.75880       -2.48670
S         -5.87380        1.07370       -3.19900
C         -5.04120       -1.39010       -6.19730
S         -6.61630       -1.74550       -6.84480
C         -2.90330       -0.05210       -3.45050
C         -1.53250       -0.01910       -3.40530
S         -0.83150       -0.67710       -4.86740
C         -0.78770        0.42680       -2.27870
C          0.56780        0.39430       -1.96380
N          1.61970        0.03450       -2.78640
C          2.75510       -0.50090       -2.13940
C          2.62260       -1.62040       -1.32020
C          3.69470       -2.06360       -0.57530
C          4.91220       -1.39410       -0.63960
S          6.21770       -1.94550        0.41230
C          7.10790       -0.39520        0.74480
C          5.06720       -0.32320       -1.51080
C          3.99430        0.12190       -2.25430
C          1.74750        0.47340       -4.10580
C          2.53430       -0.26710       -4.99190
C          2.66320        0.12730       -6.30180
C          2.00940        1.26850       -6.76570
S          2.22080        1.65270       -8.47710
C          0.99490        2.95500       -8.78300
C          1.24830        2.02270       -5.88420
C          1.12160        1.62900       -4.56520
C          0.77370        0.76300       -0.60740
S          2.15990        0.85120        0.41890
C          1.16840        1.33840        1.79070
C         -0.16470        1.51280        1.42950
N         -1.20960        1.95710        2.22940
C         -2.46750        1.38880        1.93340
C         -3.57810        2.17450        1.62810
C         -4.75160        1.58090        1.21890
C         -4.83820        0.19720        1.09460
S         -6.35320       -0.47730        0.48590
C         -5.79020       -1.98030       -0.36600
C         -3.75110       -0.59160        1.44760
C         -2.57720        0.00190        1.86560
C         -1.13890        3.16530        2.92650
C         -2.08470        3.44730        3.91540
C         -2.07080        4.65920        4.56720
C         -1.09330        5.60770        4.27670
S         -1.16550        7.15220        5.13310
C          0.55940        7.71710        5.08740
C         -0.13290        5.32110        3.31720
C         -0.15900        4.11570        2.64590
C         -0.36720        1.14080        0.07630
S         -1.75970        1.04380       -0.93910
C          1.82590        1.35400        3.05300
C          1.41430        1.74610        4.29990
C          2.36700        1.49740        5.31630
C          2.26560        1.77810        6.69320
C          1.13320        2.45050        7.30370
C          0.47770        2.07750        8.44200
C         -0.49560        3.00820        8.85320
C         -0.57960        4.09970        8.04580
C         -1.41160        5.31760        8.24410
C         -0.58460        6.44490        8.86670
S          0.53920        3.98040        6.72470
C          3.33080        1.38150        7.49230
C          4.48220        0.72580        6.98670
C          4.59740        0.46440        5.60280
C          5.78360       -0.18970        5.08690
C          7.08840        0.11110        5.36200
C          8.00080       -0.78760        4.77650
C          7.39910       -1.78010        4.06270
C          8.03240       -2.95010        3.39280
C          7.88460       -4.21300        4.24440
S          5.67490       -1.59990        4.07230
C          3.53100        0.85560        4.81380
S          3.43610        0.64740        3.09080
C          5.40250        0.40980        7.99850
C          5.02590        0.84070        9.25110
S          3.45140        1.62090        9.21000
C          5.66680        0.66040       10.49360
C          6.94880        0.27120       10.76590
C          7.25590       -0.27900       12.11070
O          6.56130       -0.22810       13.09820
C          8.57100       -0.94730       11.96370
C          9.26320       -1.70280       12.88880
C         10.47440       -2.25060       12.49590
F         11.17760       -2.99280       13.36010
C         10.96800       -2.03930       11.20840
F         12.13410       -2.59100       10.85310
C         10.27880       -1.27090       10.28180
C          9.06770       -0.72050       10.66820
C          8.13870        0.15830        9.95620
C          8.46390        0.91610        8.85970
C          7.67620        1.99070        8.39990
N          7.09880        2.90390        8.01230
C          9.64030        0.75310        8.10270
N         10.55490        0.63300        7.41900
H         -7.77860       -2.44050       -9.36850
H         -8.37310       -5.07240      -16.15500
H         -9.39240       -3.63360      -15.90620
H         -7.71710       -3.44020      -16.47850
H         -6.01660       -4.99740      -15.95190
H         -3.86910       -5.67280      -15.05270
H         -3.33950       -5.44150      -12.66260
H         -3.94630       -2.46260       -9.18480
H         -0.17000       -0.25210       -7.37590
H          1.42230       -1.37550       -9.06630
H          1.58560       -3.44810      -10.57680
H         -0.00090       -3.84570      -11.25140
H          1.25860       -5.29660       -8.87620
H          1.24130       -5.89200      -10.53990
H         -0.27460       -5.70380       -9.65940
H         -7.23820       -2.09280       -4.24700
H         -8.85950       -0.85130       -2.64890
H         -8.77050        1.23320       -0.96300
H         -7.35070        2.28280       -1.06630
H         -9.66120        2.24800       -3.07030
H         -8.23940        3.28850       -3.17050
H         -9.38420        3.48450       -1.83900
H         -3.50730        0.28990       -2.62980
H          1.66550       -2.11580       -1.25020
H          3.59400       -2.91390        0.08080
H          6.38260        0.38760        0.94440
H          7.74980       -0.13630       -0.09200
H          7.71310       -0.57400        1.62810
H          6.01590        0.18130       -1.60030
H          4.10480        0.97270       -2.91030
H          3.02770       -1.16140       -4.64350
H          3.26090       -0.45140       -6.98880
H          1.27540        3.86660       -8.26330
H          0.01090        2.61130       -8.47740
H          1.01010        3.12530       -9.85510
H          0.74730        2.92140       -6.20690
H          0.52740        2.22510       -3.88840
H         -3.50550        3.25030        1.67680
H         -5.60610        2.18660        0.96070
H         -4.88620       -1.75640       -0.92410
H         -6.58860       -2.25130       -1.04970
H         -5.62440       -2.78440        0.34490
H         -3.80990       -1.66710        1.39500
H         -1.72460       -0.60960        2.12340
H         -2.83390        2.71080        4.16370
H         -2.82120        4.87830        5.31100
H          0.80330        8.11640        4.10700
H          1.21070        6.88890        5.34980
H          0.63400        8.50490        5.83050
H          0.63070        6.03960        3.06690
H          0.57840        3.92040        1.88260
H          0.45940        2.19510        4.49710
H          0.67140        1.15260        8.95510
H         -1.10860        2.87580        9.72690
H         -1.81060        5.66340        7.29030
H         -2.24690        5.06930        8.90210
H         -0.19100        6.14010        9.83370
H          0.25070        6.69810        8.21820
H         -1.20070        7.33010        9.00070
H          7.38120        0.97680        5.92930
H          9.06710       -0.70100        4.89150
H          7.56340       -3.12190        2.42160
H          9.09210       -2.73700        3.23580
H          8.35330       -5.05760        3.74640
H          6.83230       -4.44030        4.39880
H          8.35640       -4.07470        5.21480
H          6.28480       -0.17690        7.81700
H          5.03540        0.77060       11.37000
H          8.88100       -1.86450       13.88400
H         10.69910       -1.13540        9.29850
