148

C         -0.73170        2.61380       -8.28460
C         -0.03900        2.20450       -9.38590
C          0.51300        0.83470       -9.58090
O          0.40620       -0.11010       -8.83100
C          1.06880        0.83290      -10.94620
C          1.71310       -0.20650      -11.62350
O          1.90970       -1.35650      -10.95810
C          2.53750       -2.43210      -11.61420
C          2.11290        0.03940      -12.94250
C          1.86460        1.26110      -13.54250
C          1.22010        2.29200      -12.87310
C          0.82370        2.06970      -11.56490
C          0.12960        2.94110      -10.61740
C         -0.22450        4.24620      -10.84580
C          0.01330        4.93840      -12.05100
N          0.18070        5.56590      -12.99820
C         -0.86280        5.09720       -9.91790
N         -1.36700        5.87000       -9.23420
C         -0.70540        2.00250       -7.00220
C         -1.84210        2.05170       -6.16810
C         -1.85720        1.51330       -4.82520
N         -3.04660        1.67300       -4.23990
S         -4.03850        2.40380       -5.27180
N         -3.02520        2.56690       -6.50390
C         -0.69810        0.99430       -4.21410
C          0.41670        0.87620       -5.06730
N          1.58330        0.30720       -4.74730
S          2.58090        0.43410       -5.99460
N          1.61960        1.23650       -6.99320
C          0.42180        1.38520       -6.42380
C         -0.66710        0.70450       -2.81850
C          0.34290        0.98990       -1.89710
N          1.47550        1.73530       -2.14510
C          2.64620        1.44580       -1.43390
C          3.48410        2.47050       -1.00330
C          4.63230        2.18710       -0.29050
C          4.95860        0.87020        0.00920
S          6.38870        0.38160        0.91510
C          7.17920        1.94910        1.37560
C          4.12550       -0.15870       -0.43010
C          2.98530        0.12260       -1.14610
C          1.47180        2.72830       -3.13290
C          0.33870        3.51700       -3.34550
C          0.27110        4.35870       -4.43220
C          1.33860        4.44610       -5.32540
S          1.11570        5.44080       -6.76230
C          2.31230        4.72110       -7.92490
C          2.51250        3.75700       -5.04640
C          2.57820        2.90920       -3.95860
C         -0.03250        0.56130       -0.60050
S          0.72990        0.61310        0.95320
C         -0.71510       -0.03060        1.70240
C         -1.70580       -0.33970        0.78360
N         -2.89250       -0.98840        1.08390
C         -4.04090       -0.69210        0.34180
C         -4.27620        0.60830       -0.09870
C         -5.36260        0.89680       -0.89990
C         -6.23890       -0.11440       -1.26720
S         -7.62700        0.14260       -2.32690
C         -7.20770        1.69600       -3.17100
C         -6.04090       -1.40520       -0.78020
C         -4.95410       -1.69440        0.01350
C         -2.91930       -1.93440        2.12000
C         -1.85010       -2.80710        2.30080
C         -1.77580       -3.61310        3.41780
C         -2.77980       -3.56450        4.37650
S         -2.70750       -4.41930        5.91870
C         -1.06270       -5.17860        5.91840
C         -3.90440       -2.77510        4.14280
C         -3.97720       -1.96910        3.02830
C         -1.30760        0.02150       -0.52890
S         -2.09530        0.02050       -2.06750
C         -0.79250       -0.22400        3.13820
C          0.23690       -0.86990        3.83580
C          0.02770       -1.19820        5.15510
C          0.88560       -1.99390        6.07490
O          1.98140       -2.45120        5.85530
C          0.07390       -2.12300        7.31850
C         -1.13850       -1.42180        7.15450
C         -1.16970       -0.85760        5.81550
C         -2.14390       -0.13350        5.15570
C         -1.94870        0.16940        3.81890
C         -2.05790       -1.37580        8.18710
C         -1.75770       -2.03420        9.36610
C         -0.58040       -2.78030        9.52020
C          0.35860       -2.80890        8.47400
C         -0.35060       -3.43500       10.78230
C          0.27740       -4.61830       11.00590
C          0.57460       -5.65020        9.97730
O          0.42090       -5.58340        8.77880
C          1.00920       -6.84390       10.73380
C          1.37380       -8.07790       10.23290
C          1.74640       -9.07010       11.13090
Cl         2.21620      -10.62760       10.57670
C          1.73570       -8.79120       12.50130
F          2.09030       -9.75260       13.36010
C          1.36920       -7.55630       13.01100
C          1.00050       -6.56610       12.11150
C          0.57360       -5.18720       12.31460
C          0.52820       -4.53570       13.51710
C          0.84420       -5.13860       14.75440
N          1.08120       -5.57280       15.78960
C          0.18350       -3.17840       13.70010
N         -0.06940       -2.08410       13.93760
H         -1.39810        3.46440       -8.36140
H          2.56520       -3.24070      -10.88600
H          3.55970       -2.17960      -11.91410
H          1.96830       -2.75530      -12.49150
H          2.61870       -0.72550      -13.51020
H          2.18060        1.41420      -14.56350
H          1.03490        3.22710      -13.37340
H          3.22880        3.49630       -1.22470
H          5.25810        3.00360        0.03120
H          8.05000        1.67400        1.96240
H          6.50010        2.54270        1.98050
H          7.49140        2.48670        0.48500
H          4.39300       -1.17990       -0.20660
H          2.35550       -0.67660       -1.50600
H         -0.50130        3.43900       -2.67120
H         -0.61530        4.94550       -4.61790
H          2.04200        5.11270       -8.90090
H          2.21890        3.63830       -7.91390
H          3.32180        5.03600       -7.67670
H          3.37390        3.85500       -5.68710
H          3.47870        2.34310       -3.77100
H         -3.60180        1.40140        0.18940
H         -5.51370        1.91210       -1.22760
H         -6.17490        1.65460       -3.50490
H         -7.87510        1.76000       -4.02470
H         -7.37600        2.54270       -2.51150
H         -6.73920       -2.18150       -1.05220
H         -4.79030       -2.70110        0.36730
H         -1.05410       -2.83330        1.57150
H         -0.92460       -4.26360        3.53410
H         -0.90470       -5.55650        6.92350
H         -1.03100       -5.99460        5.20200
H         -0.30830       -4.42960        5.69870
H         -4.70440       -2.77840        4.86680
H         -4.83680       -1.33470        2.87160
H          1.14990       -1.15060        3.33180
H         -3.05160        0.16650        5.65570
H         -2.70940        0.71480        3.28070
H         -2.98670       -0.83690        8.08200
H         -2.46210       -2.00400       10.18490
H          1.29730       -3.32760        8.58100
H         -0.76400       -2.91530       11.63890
H          1.37100       -8.26150        9.17020
H          1.37870       -7.40930       14.07860
