
  xtb     02112201103D
 energy: -274.365440118973 gnorm: 0.000508941960 xtb: 6.4.1 (unknown)
148163  0     0  0            999 V2000
   -0.7317    2.6138   -8.2846 C   0  0  0  0  0  0  0  0  0  0  0  0
   -0.0390    2.2045   -9.3859 C   0  0  0  0  0  0  0  0  0  0  0  0
    0.5130    0.8347   -9.5809 C   0  0  0  0  0  0  0  0  0  0  0  0
    0.4062   -0.1101   -8.8310 O   0  0  0  0  0  0  0  0  0  0  0  0
    1.0688    0.8329  -10.9462 C   0  0  0  0  0  0  0  0  0  0  0  0
    1.7131   -0.2065  -11.6235 C   0  0  0  0  0  0  0  0  0  0  0  0
    1.9097   -1.3565  -10.9581 O   0  0  0  0  0  0  0  0  0  0  0  0
    2.5375   -2.4321  -11.6142 C   0  0  0  0  0  0  0  0  0  0  0  0
    2.1129    0.0394  -12.9425 C   0  0  0  0  0  0  0  0  0  0  0  0
    1.8646    1.2611  -13.5425 C   0  0  0  0  0  0  0  0  0  0  0  0
    1.2201    2.2920  -12.8731 C   0  0  0  0  0  0  0  0  0  0  0  0
    0.8237    2.0697  -11.5649 C   0  0  0  0  0  0  0  0  0  0  0  0
    0.1296    2.9411  -10.6174 C   0  0  0  0  0  0  0  0  0  0  0  0
   -0.2245    4.2462  -10.8458 C   0  0  0  0  0  0  0  0  0  0  0  0
    0.0133    4.9384  -12.0510 C   0  0  0  0  0  0  0  0  0  0  0  0
    0.1807    5.5659  -12.9982 N   0  0  0  0  0  0  0  0  0  0  0  0
   -0.8628    5.0972   -9.9179 C   0  0  0  0  0  0  0  0  0  0  0  0
   -1.3670    5.8700   -9.2342 N   0  0  0  0  0  0  0  0  0  0  0  0
   -0.7054    2.0025   -7.0022 C   0  0  0  0  0  0  0  0  0  0  0  0
   -1.8421    2.0517   -6.1681 C   0  0  0  0  0  0  0  0  0  0  0  0
   -1.8572    1.5133   -4.8252 C   0  0  0  0  0  0  0  0  0  0  0  0
   -3.0466    1.6730   -4.2399 N   0  0  0  0  0  0  0  0  0  0  0  0
   -4.0385    2.4038   -5.2718 S   0  0  0  0  0  4  0  0  0  0  0  0
   -3.0252    2.5669   -6.5039 N   0  0  0  0  0  0  0  0  0  0  0  0
   -0.6981    0.9943   -4.2141 C   0  0  0  0  0  0  0  0  0  0  0  0
    0.4167    0.8762   -5.0673 C   0  0  0  0  0  0  0  0  0  0  0  0
    1.5833    0.3072   -4.7473 N   0  0  0  0  0  0  0  0  0  0  0  0
    2.5809    0.4341   -5.9946 S   0  0  0  0  0  0  0  0  0  0  0  0
    1.6196    1.2365   -6.9932 N   0  0  0  0  0  0  0  0  0  0  0  0
    0.4218    1.3852   -6.4238 C   0  0  0  0  0  0  0  0  0  0  0  0
   -0.6671    0.7045   -2.8185 C   0  0  0  0  0  0  0  0  0  0  0  0
    0.3429    0.9899   -1.8971 C   0  0  0  0  0  0  0  0  0  0  0  0
    1.4755    1.7353   -2.1451 N   0  0  0  0  0  0  0  0  0  0  0  0
    2.6462    1.4458   -1.4339 C   0  0  0  0  0  0  0  0  0  0  0  0
    3.4841    2.4705   -1.0033 C   0  0  0  0  0  0  0  0  0  0  0  0
    4.6323    2.1871   -0.2905 C   0  0  0  0  0  0  0  0  0  0  0  0
    4.9586    0.8702    0.0092 C   0  0  0  0  0  0  0  0  0  0  0  0
    6.3887    0.3816    0.9151 S   0  0  0  0  0  0  0  0  0  0  0  0
    7.1792    1.9491    1.3756 C   0  0  0  0  0  0  0  0  0  0  0  0
    4.1255   -0.1587   -0.4301 C   0  0  0  0  0  0  0  0  0  0  0  0
    2.9853    0.1226   -1.1461 C   0  0  0  0  0  0  0  0  0  0  0  0
    1.4718    2.7283   -3.1329 C   0  0  0  0  0  0  0  0  0  0  0  0
    0.3387    3.5170   -3.3455 C   0  0  0  0  0  0  0  0  0  0  0  0
    0.2711    4.3587   -4.4322 C   0  0  0  0  0  0  0  0  0  0  0  0
    1.3386    4.4461   -5.3254 C   0  0  0  0  0  0  0  0  0  0  0  0
    1.1157    5.4408   -6.7623 S   0  0  0  0  0  0  0  0  0  0  0  0
    2.3123    4.7211   -7.9249 C   0  0  0  0  0  0  0  0  0  0  0  0
    2.5125    3.7570   -5.0464 C   0  0  0  0  0  0  0  0  0  0  0  0
    2.5782    2.9092   -3.9586 C   0  0  0  0  0  0  0  0  0  0  0  0
   -0.0325    0.5613   -0.6005 C   0  0  0  0  0  0  0  0  0  0  0  0
    0.7299    0.6131    0.9532 S   0  0  0  0  0  0  0  0  0  0  0  0
   -0.7151   -0.0306    1.7024 C   0  0  0  0  0  0  0  0  0  0  0  0
   -1.7058   -0.3397    0.7836 C   0  0  0  0  0  0  0  0  0  0  0  0
   -2.8925   -0.9884    1.0839 N   0  0  0  0  0  0  0  0  0  0  0  0
   -4.0409   -0.6921    0.3418 C   0  0  0  0  0  0  0  0  0  0  0  0
   -4.2762    0.6083   -0.0987 C   0  0  0  0  0  0  0  0  0  0  0  0
   -5.3626    0.8968   -0.8999 C   0  0  0  0  0  0  0  0  0  0  0  0
   -6.2389   -0.1144   -1.2672 C   0  0  0  0  0  0  0  0  0  0  0  0
   -7.6270    0.1426   -2.3269 S   0  0  0  0  0  0  0  0  0  0  0  0
   -7.2077    1.6960   -3.1710 C   0  0  0  0  0  0  0  0  0  0  0  0
   -6.0409   -1.4052   -0.7802 C   0  0  0  0  0  0  0  0  0  0  0  0
   -4.9541   -1.6944    0.0135 C   0  0  0  0  0  0  0  0  0  0  0  0
   -2.9193   -1.9344    2.1200 C   0  0  0  0  0  0  0  0  0  0  0  0
   -1.8501   -2.8071    2.3008 C   0  0  0  0  0  0  0  0  0  0  0  0
   -1.7758   -3.6131    3.4178 C   0  0  0  0  0  0  0  0  0  0  0  0
   -2.7798   -3.5645    4.3765 C   0  0  0  0  0  0  0  0  0  0  0  0
   -2.7075   -4.4193    5.9187 S   0  0  0  0  0  0  0  0  0  0  0  0
   -1.0627   -5.1786    5.9184 C   0  0  0  0  0  0  0  0  0  0  0  0
   -3.9044   -2.7751    4.1428 C   0  0  0  0  0  0  0  0  0  0  0  0
   -3.9772   -1.9691    3.0283 C   0  0  0  0  0  0  0  0  0  0  0  0
   -1.3076    0.0215   -0.5289 C   0  0  0  0  0  0  0  0  0  0  0  0
   -2.0953    0.0205   -2.0675 S   0  0  0  0  0  0  0  0  0  0  0  0
   -0.7925   -0.2240    3.1382 C   0  0  0  0  0  0  0  0  0  0  0  0
    0.2369   -0.8699    3.8358 C   0  0  0  0  0  0  0  0  0  0  0  0
    0.0277   -1.1982    5.1551 C   0  0  0  0  0  0  0  0  0  0  0  0
    0.8856   -1.9939    6.0749 C   0  0  0  0  0  0  0  0  0  0  0  0
    1.9814   -2.4512    5.8553 O   0  0  0  0  0  0  0  0  0  0  0  0
    0.0739   -2.1230    7.3185 C   0  0  0  0  0  0  0  0  0  0  0  0
   -1.1385   -1.4218    7.1545 C   0  0  0  0  0  0  0  0  0  0  0  0
   -1.1697   -0.8576    5.8155 C   0  0  0  0  0  0  0  0  0  0  0  0
   -2.1439   -0.1335    5.1557 C   0  0  0  0  0  0  0  0  0  0  0  0
   -1.9487    0.1694    3.8189 C   0  0  0  0  0  0  0  0  0  0  0  0
   -2.0579   -1.3758    8.1871 C   0  0  0  0  0  0  0  0  0  0  0  0
   -1.7577   -2.0342    9.3661 C   0  0  0  0  0  0  0  0  0  0  0  0
   -0.5804   -2.7803    9.5202 C   0  0  0  0  0  0  0  0  0  0  0  0
    0.3586   -2.8089    8.4740 C   0  0  0  0  0  0  0  0  0  0  0  0
   -0.3506   -3.4350   10.7823 C   0  0  0  0  0  0  0  0  0  0  0  0
    0.2774   -4.6183   11.0059 C   0  0  0  0  0  0  0  0  0  0  0  0
    0.5746   -5.6502    9.9773 C   0  0  0  0  0  0  0  0  0  0  0  0
    0.4209   -5.5834    8.7788 O   0  0  0  0  0  0  0  0  0  0  0  0
    1.0092   -6.8439   10.7338 C   0  0  0  0  0  0  0  0  0  0  0  0
    1.3738   -8.0779   10.2329 C   0  0  0  0  0  0  0  0  0  0  0  0
    1.7464   -9.0701   11.1309 C   0  0  0  0  0  0  0  0  0  0  0  0
    2.2162  -10.6276   10.5767 Cl  0  0  0  0  0  0  0  0  0  0  0  0
    1.7357   -8.7912   12.5013 C   0  0  0  0  0  0  0  0  0  0  0  0
    2.0903   -9.7526   13.3601 F   0  0  0  0  0  0  0  0  0  0  0  0
    1.3692   -7.5563   13.0110 C   0  0  0  0  0  0  0  0  0  0  0  0
    1.0005   -6.5661   12.1115 C   0  0  0  0  0  0  0  0  0  0  0  0
    0.5736   -5.1872   12.3146 C   0  0  0  0  0  0  0  0  0  0  0  0
    0.5282   -4.5357   13.5171 C   0  0  0  0  0  0  0  0  0  0  0  0
    0.8442   -5.1386   14.7544 C   0  0  0  0  0  0  0  0  0  0  0  0
    1.0812   -5.5728   15.7896 N   0  0  0  0  0  0  0  0  0  0  0  0
    0.1835   -3.1784   13.7001 C   0  0  0  0  0  0  0  0  0  0  0  0
   -0.0694   -2.0841   13.9376 N   0  0  0  0  0  0  0  0  0  0  0  0
   -1.3981    3.4644   -8.3614 H   0  0  0  0  0  0  0  0  0  0  0  0
    2.5652   -3.2407  -10.8860 H   0  0  0  0  0  0  0  0  0  0  0  0
    3.5597   -2.1796  -11.9141 H   0  0  0  0  0  0  0  0  0  0  0  0
    1.9683   -2.7553  -12.4915 H   0  0  0  0  0  0  0  0  0  0  0  0
    2.6187   -0.7255  -13.5102 H   0  0  0  0  0  0  0  0  0  0  0  0
    2.1806    1.4142  -14.5635 H   0  0  0  0  0  0  0  0  0  0  0  0
    1.0349    3.2271  -13.3734 H   0  0  0  0  0  0  0  0  0  0  0  0
    3.2288    3.4963   -1.2247 H   0  0  0  0  0  0  0  0  0  0  0  0
    5.2581    3.0036    0.0312 H   0  0  0  0  0  0  0  0  0  0  0  0
    8.0500    1.6740    1.9624 H   0  0  0  0  0  0  0  0  0  0  0  0
    6.5001    2.5427    1.9805 H   0  0  0  0  0  0  0  0  0  0  0  0
    7.4914    2.4867    0.4850 H   0  0  0  0  0  0  0  0  0  0  0  0
    4.3930   -1.1799   -0.2066 H   0  0  0  0  0  0  0  0  0  0  0  0
    2.3555   -0.6766   -1.5060 H   0  0  0  0  0  0  0  0  0  0  0  0
   -0.5013    3.4390   -2.6712 H   0  0  0  0  0  0  0  0  0  0  0  0
   -0.6153    4.9455   -4.6179 H   0  0  0  0  0  0  0  0  0  0  0  0
    2.0420    5.1127   -8.9009 H   0  0  0  0  0  0  0  0  0  0  0  0
    2.2189    3.6383   -7.9139 H   0  0  0  0  0  0  0  0  0  0  0  0
    3.3218    5.0360   -7.6767 H   0  0  0  0  0  0  0  0  0  0  0  0
    3.3739    3.8550   -5.6871 H   0  0  0  0  0  0  0  0  0  0  0  0
    3.4787    2.3431   -3.7710 H   0  0  0  0  0  0  0  0  0  0  0  0
   -3.6018    1.4014    0.1894 H   0  0  0  0  0  0  0  0  0  0  0  0
   -5.5137    1.9121   -1.2276 H   0  0  0  0  0  0  0  0  0  0  0  0
   -6.1749    1.6546   -3.5049 H   0  0  0  0  0  0  0  0  0  0  0  0
   -7.8751    1.7600   -4.0247 H   0  0  0  0  0  0  0  0  0  0  0  0
   -7.3760    2.5427   -2.5115 H   0  0  0  0  0  0  0  0  0  0  0  0
   -6.7392   -2.1815   -1.0522 H   0  0  0  0  0  0  0  0  0  0  0  0
   -4.7903   -2.7011    0.3673 H   0  0  0  0  0  0  0  0  0  0  0  0
   -1.0541   -2.8333    1.5715 H   0  0  0  0  0  0  0  0  0  0  0  0
   -0.9246   -4.2636    3.5341 H   0  0  0  0  0  0  0  0  0  0  0  0
   -0.9047   -5.5565    6.9235 H   0  0  0  0  0  0  0  0  0  0  0  0
   -1.0310   -5.9946    5.2020 H   0  0  0  0  0  0  0  0  0  0  0  0
   -0.3083   -4.4296    5.6987 H   0  0  0  0  0  0  0  0  0  0  0  0
   -4.7044   -2.7784    4.8668 H   0  0  0  0  0  0  0  0  0  0  0  0
   -4.8368   -1.3347    2.8716 H   0  0  0  0  0  0  0  0  0  0  0  0
    1.1499   -1.1506    3.3318 H   0  0  0  0  0  0  0  0  0  0  0  0
   -3.0516    0.1665    5.6557 H   0  0  0  0  0  0  0  0  0  0  0  0
   -2.7094    0.7148    3.2807 H   0  0  0  0  0  0  0  0  0  0  0  0
   -2.9867   -0.8369    8.0820 H   0  0  0  0  0  0  0  0  0  0  0  0
   -2.4621   -2.0040   10.1849 H   0  0  0  0  0  0  0  0  0  0  0  0
    1.2973   -3.3276    8.5810 H   0  0  0  0  0  0  0  0  0  0  0  0
   -0.7640   -2.9153   11.6389 H   0  0  0  0  0  0  0  0  0  0  0  0
    1.3710   -8.2615    9.1702 H   0  0  0  0  0  0  0  0  0  0  0  0
    1.3787   -7.4093   14.0786 H   0  0  0  0  0  0  0  0  0  0  0  0
  1  2  2  0  0  0  0
  2  3  1  0  0  0  0
  3  4  2  0  0  0  0
  3  5  1  0  0  0  0
  5  6  2  0  0  0  0
  6  7  1  0  0  0  0
  7  8  1  0  0  0  0
  6  9  1  0  0  0  0
  9 10  2  0  0  0  0
 10 11  1  0  0  0  0
 11 12  2  0  0  0  0
 12 13  1  0  0  0  0
 13 14  2  0  0  0  0
 14 15  1  0  0  0  0
 15 16  3  0  0  0  0
 14 17  1  0  0  0  0
 17 18  3  0  0  0  0
  1 19  1  0  0  0  0
 19 20  2  0  0  0  0
 20 21  1  0  0  0  0
 21 22  1  0  0  0  0
 22 23  2  0  0  0  0
 23 24  2  0  0  0  0
 21 25  2  0  0  0  0
 25 26  1  0  0  0  0
 26 27  2  0  0  0  0
 27 28  1  0  0  0  0
 28 29  1  0  0  0  0
 29 30  2  0  0  0  0
 25 31  1  0  0  0  0
 31 32  2  0  0  0  0
 32 33  1  0  0  0  0
 33 34  1  0  0  0  0
 34 35  2  0  0  0  0
 35 36  1  0  0  0  0
 36 37  2  0  0  0  0
 37 38  1  0  0  0  0
 38 39  1  0  0  0  0
 37 40  1  0  0  0  0
 40 41  2  0  0  0  0
 33 42  1  0  0  0  0
 42 43  2  0  0  0  0
 43 44  1  0  0  0  0
 44 45  2  0  0  0  0
 45 46  1  0  0  0  0
 46 47  1  0  0  0  0
 45 48  1  0  0  0  0
 48 49  2  0  0  0  0
 32 50  1  0  0  0  0
 50 51  1  0  0  0  0
 51 52  1  0  0  0  0
 52 53  2  0  0  0  0
 53 54  1  0  0  0  0
 54 55  1  0  0  0  0
 55 56  2  0  0  0  0
 56 57  1  0  0  0  0
 57 58  2  0  0  0  0
 58 59  1  0  0  0  0
 59 60  1  0  0  0  0
 58 61  1  0  0  0  0
 61 62  2  0  0  0  0
 54 63  1  0  0  0  0
 63 64  2  0  0  0  0
 64 65  1  0  0  0  0
 65 66  2  0  0  0  0
 66 67  1  0  0  0  0
 67 68  1  0  0  0  0
 66 69  1  0  0  0  0
 69 70  2  0  0  0  0
 53 71  1  0  0  0  0
 71 72  1  0  0  0  0
 52 73  1  0  0  0  0
 73 74  2  0  0  0  0
 74 75  1  0  0  0  0
 75 76  1  0  0  0  0
 76 77  2  0  0  0  0
 76 78  1  0  0  0  0
 78 79  2  0  0  0  0
 79 80  1  0  0  0  0
 80 81  1  0  0  0  0
 81 82  2  0  0  0  0
 79 83  1  0  0  0  0
 83 84  2  0  0  0  0
 84 85  1  0  0  0  0
 85 86  2  0  0  0  0
 85 87  1  0  0  0  0
 87 88  2  0  0  0  0
 88 89  1  0  0  0  0
 89 90  2  0  0  0  0
 89 91  1  0  0  0  0
 91 92  2  0  0  0  0
 92 93  1  0  0  0  0
 93 94  1  0  0  0  0
 93 95  2  0  0  0  0
 95 96  1  0  0  0  0
 95 97  1  0  0  0  0
 97 98  2  0  0  0  0
 98 99  1  0  0  0  0
 99100  2  0  0  0  0
100101  1  0  0  0  0
101102  3  0  0  0  0
100103  1  0  0  0  0
103104  3  0  0  0  0
 13  2  1  0  0  0  0
 30 19  1  0  0  0  0
 72 31  1  0  0  0  0
 82 73  1  0  0  0  0
 99 88  1  0  0  0  0
 12  5  1  0  0  0  0
 24 20  1  0  0  0  0
 30 26  1  0  0  0  0
 41 34  1  0  0  0  0
 49 42  1  0  0  0  0
 71 50  2  0  0  0  0
 80 75  2  0  0  0  0
 98 91  1  0  0  0  0
 62 55  1  0  0  0  0
 70 63  1  0  0  0  0
 86 78  1  0  0  0  0
  1105  1  0  0  0  0
  8106  1  0  0  0  0
  8107  1  0  0  0  0
  8108  1  0  0  0  0
  9109  1  0  0  0  0
 10110  1  0  0  0  0
 11111  1  0  0  0  0
 35112  1  0  0  0  0
 36113  1  0  0  0  0
 39114  1  0  0  0  0
 39115  1  0  0  0  0
 39116  1  0  0  0  0
 40117  1  0  0  0  0
 41118  1  0  0  0  0
 43119  1  0  0  0  0
 44120  1  0  0  0  0
 47121  1  0  0  0  0
 47122  1  0  0  0  0
 47123  1  0  0  0  0
 48124  1  0  0  0  0
 49125  1  0  0  0  0
 56126  1  0  0  0  0
 57127  1  0  0  0  0
 60128  1  0  0  0  0
 60129  1  0  0  0  0
 60130  1  0  0  0  0
 61131  1  0  0  0  0
 62132  1  0  0  0  0
 64133  1  0  0  0  0
 65134  1  0  0  0  0
 68135  1  0  0  0  0
 68136  1  0  0  0  0
 68137  1  0  0  0  0
 69138  1  0  0  0  0
 70139  1  0  0  0  0
 74140  1  0  0  0  0
 81141  1  0  0  0  0
 82142  1  0  0  0  0
 83143  1  0  0  0  0
 84144  1  0  0  0  0
 86145  1  0  0  0  0
 87146  1  0  0  0  0
 92147  1  0  0  0  0
 97148  1  0  0  0  0
M  END
