
  xtb     02052206163D
 energy: -312.036265387425 gnorm: 0.000948314295 xtb: 6.4.1 (unknown)
197218  0     0  0            999 V2000
   -8.2850    5.5697   -2.7552 C   0  0  0  0  0  0  0  0  0  0  0  0
   -9.4153    4.8873   -2.4365 C   0  0  0  0  0  0  0  0  0  0  0  0
   -9.4656    3.4674   -1.9898 C   0  0  0  0  0  0  0  0  0  0  0  0
   -8.5816    2.6390   -2.0070 O   0  0  0  0  0  0  0  0  0  0  0  0
  -10.8128    3.2821   -1.4179 C   0  0  0  0  0  0  0  0  0  0  0  0
  -11.3019    2.1254   -0.8132 C   0  0  0  0  0  0  0  0  0  0  0  0
  -12.5971    2.2315   -0.3690 C   0  0  0  0  0  0  0  0  0  0  0  0
  -13.3512    3.4054   -0.5066 C   0  0  0  0  0  0  0  0  0  0  0  0
  -12.8785    4.5556   -1.0911 C   0  0  0  0  0  0  0  0  0  0  0  0
  -11.5617    4.4672   -1.5570 C   0  0  0  0  0  0  0  0  0  0  0  0
  -10.7321    5.4654   -2.2216 C   0  0  0  0  0  0  0  0  0  0  0  0
  -11.1443    6.7011   -2.6450 C   0  0  0  0  0  0  0  0  0  0  0  0
  -10.3440    7.6149   -3.3637 C   0  0  0  0  0  0  0  0  0  0  0  0
   -9.7662    8.4091   -3.9591 N   0  0  0  0  0  0  0  0  0  0  0  0
  -12.4412    7.2204   -2.4509 C   0  0  0  0  0  0  0  0  0  0  0  0
  -13.4762    7.7014   -2.3266 N   0  0  0  0  0  0  0  0  0  0  0  0
  -14.5628    2.7990    0.1570 C   0  0  0  0  0  0  0  0  0  0  0  0
  -15.7115    2.3588   -0.7752 C   0  0  0  0  0  0  0  0  0  0  0  0
  -16.5128    1.3945    0.0694 C   0  0  0  0  0  0  0  0  0  0  0  0
  -15.7990    0.2836    0.2007 C   0  0  0  0  0  0  0  0  0  0  0  0
  -14.5033    0.4784   -0.5533 C   0  0  0  0  0  0  0  0  0  0  0  0
  -14.9975    1.3666   -1.7023 C   0  0  0  0  0  0  0  0  0  0  0  0
  -13.7218    1.4911    0.3104 C   0  0  0  0  0  0  0  0  0  0  0  0
   -6.9997    4.9945   -3.0526 C   0  0  0  0  0  0  0  0  0  0  0  0
   -5.8419    5.6535   -2.6038 C   0  0  0  0  0  0  0  0  0  0  0  0
   -4.6132    5.0797   -2.8156 C   0  0  0  0  0  0  0  0  0  0  0  0
   -3.2435    5.5481   -2.3765 C   0  0  0  0  0  0  0  0  0  0  0  0
   -3.1821    5.8760   -0.8775 C   0  0  0  0  0  0  0  0  0  0  0  0
   -3.4909    4.6678   -0.0009 C   0  0  0  0  0  0  0  0  0  0  0  0
   -2.7492    6.7313   -3.2421 C   0  0  0  0  0  0  0  0  0  0  0  0
   -3.5862    8.0005   -3.1572 C   0  0  0  0  0  0  0  0  0  0  0  0
   -2.3924    4.3484   -2.7325 C   0  0  0  0  0  0  0  0  0  0  0  0
   -3.1468    3.3961   -3.4377 C   0  0  0  0  0  0  0  0  0  0  0  0
   -4.5179    3.8485   -3.4935 C   0  0  0  0  0  0  0  0  0  0  0  0
   -5.6480    3.2375   -4.0187 C   0  0  0  0  0  0  0  0  0  0  0  0
   -6.8807    3.8113   -3.7934 C   0  0  0  0  0  0  0  0  0  0  0  0
   -2.5642    2.2064   -3.8493 C   0  0  0  0  0  0  0  0  0  0  0  0
   -1.2501    1.9537   -3.5150 C   0  0  0  0  0  0  0  0  0  0  0  0
   -0.4916    2.8878   -2.7972 C   0  0  0  0  0  0  0  0  0  0  0  0
   -1.0756    4.1092   -2.4317 C   0  0  0  0  0  0  0  0  0  0  0  0
    0.8169    2.5496   -2.2880 C   0  0  0  0  0  0  0  0  0  0  0  0
    1.7081    1.5723   -2.6987 C   0  0  0  0  0  0  0  0  0  0  0  0
    1.6617    0.8877   -3.9051 N   0  0  0  0  0  0  0  0  0  0  0  0
    1.3068    1.5471   -5.0879 C   0  0  0  0  0  0  0  0  0  0  0  0
    0.6643    0.8507   -6.1137 C   0  0  0  0  0  0  0  0  0  0  0  0
    0.2871    1.5000   -7.2665 C   0  0  0  0  0  0  0  0  0  0  0  0
    0.5301    2.8629   -7.4251 C   0  0  0  0  0  0  0  0  0  0  0  0
   -0.0200    3.5877   -8.9384 S   0  0  0  0  0  0  0  0  0  0  0  0
    0.5222    5.3162   -8.8204 C   0  0  0  0  0  0  0  0  0  0  0  0
    1.1711    3.5593   -6.4106 C   0  0  0  0  0  0  0  0  0  0  0  0
    1.5590    2.9049   -5.2581 C   0  0  0  0  0  0  0  0  0  0  0  0
    2.0765   -0.4508   -3.9237 C   0  0  0  0  0  0  0  0  0  0  0  0
    1.7099   -1.3062   -2.8881 C   0  0  0  0  0  0  0  0  0  0  0  0
    2.1419   -2.6187   -2.8663 C   0  0  0  0  0  0  0  0  0  0  0  0
    2.9450   -3.1003   -3.8896 C   0  0  0  0  0  0  0  0  0  0  0  0
    3.5698   -4.7498   -3.9757 S   0  0  0  0  0  0  0  0  0  0  0  0
    3.0052   -5.5135   -2.4284 C   0  0  0  0  0  0  0  0  0  0  0  0
    3.2998   -2.2518   -4.9380 C   0  0  0  0  0  0  0  0  0  0  0  0
    2.8758   -0.9434   -4.9561 C   0  0  0  0  0  0  0  0  0  0  0  0
    2.7269    1.3739   -1.7306 C   0  0  0  0  0  0  0  0  0  0  0  0
    4.0059    0.2311   -1.5216 S   0  0  0  0  0  0  0  0  0  0  0  0
    4.3841    0.8787    0.0710 C   0  0  0  0  0  0  0  0  0  0  0  0
    3.6112    1.9825    0.3710 C   0  0  0  0  0  0  0  0  0  0  0  0
    3.6301    2.7335    1.5536 N   0  0  0  0  0  0  0  0  0  0  0  0
    2.3705    3.0075    2.1078 C   0  0  0  0  0  0  0  0  0  0  0  0
    1.4293    1.9835    2.1875 C   0  0  0  0  0  0  0  0  0  0  0  0
    0.1438    2.2321    2.6266 C   0  0  0  0  0  0  0  0  0  0  0  0
   -0.2228    3.5162    3.0027 C   0  0  0  0  0  0  0  0  0  0  0  0
   -1.8444    3.9660    3.5414 S   0  0  0  0  0  0  0  0  0  0  0  0
   -2.8489    2.5030    3.1594 C   0  0  0  0  0  0  0  0  0  0  0  0
    0.7254    4.5361    2.9634 C   0  0  0  0  0  0  0  0  0  0  0  0
    2.0047    4.2896    2.5193 C   0  0  0  0  0  0  0  0  0  0  0  0
    4.7385    3.5204    1.8734 C   0  0  0  0  0  0  0  0  0  0  0  0
    5.6409    3.9324    0.8898 C   0  0  0  0  0  0  0  0  0  0  0  0
    6.7440    4.6838    1.2284 C   0  0  0  0  0  0  0  0  0  0  0  0
    6.9712    5.0528    2.5525 C   0  0  0  0  0  0  0  0  0  0  0  0
    8.4178    6.0205    2.8590 S   0  0  0  0  0  0  0  0  0  0  0  0
    8.3624    6.3405    4.6448 C   0  0  0  0  0  0  0  0  0  0  0  0
    6.0754    4.6498    3.5339 C   0  0  0  0  0  0  0  0  0  0  0  0
    4.9736    3.8887    3.1966 C   0  0  0  0  0  0  0  0  0  0  0  0
    2.6520    2.2275   -0.6461 C   0  0  0  0  0  0  0  0  0  0  0  0
    1.3249    3.3213   -0.7903 S   0  0  0  0  0  0  0  0  0  0  0  0
    5.2542    0.0810    0.9181 C   0  0  0  0  0  0  0  0  0  0  0  0
    5.1127   -1.3050    0.8411 C   0  0  0  0  0  0  0  0  0  0  0  0
    5.8287   -2.0979    1.7169 C   0  0  0  0  0  0  0  0  0  0  0  0
    5.7948   -3.4606    1.8780 N   0  0  0  0  0  0  0  0  0  0  0  0
    5.0409   -4.3831    1.0729 C   0  0  0  0  0  0  0  0  0  0  0  0
    3.6351   -4.6080    1.6292 C   0  0  0  0  0  0  0  0  0  0  0  0
    6.6089   -3.7916    2.9320 C   0  0  0  0  0  0  0  0  0  0  0  0
    7.2339   -2.6185    3.4332 C   0  0  0  0  0  0  0  0  0  0  0  0
    6.7186   -1.5301    2.6637 C   0  0  0  0  0  0  0  0  0  0  0  0
    6.8887   -0.1498    2.6960 C   0  0  0  0  0  0  0  0  0  0  0  0
    6.1575    0.6399    1.8369 C   0  0  0  0  0  0  0  0  0  0  0  0
    8.1202   -2.7165    4.5020 C   0  0  0  0  0  0  0  0  0  0  0  0
    8.3505   -3.9500    5.0626 C   0  0  0  0  0  0  0  0  0  0  0  0
    7.7160   -5.1156    4.5843 C   0  0  0  0  0  0  0  0  0  0  0  0
    6.8215   -5.0245    3.5136 C   0  0  0  0  0  0  0  0  0  0  0  0
    7.9410   -6.3504    5.2819 C   0  0  0  0  0  0  0  0  0  0  0  0
    7.6807   -7.6310    4.9189 C   0  0  0  0  0  0  0  0  0  0  0  0
    7.5695   -8.6699    5.9836 C   0  0  0  0  0  0  0  0  0  0  0  0
    7.9665   -8.5831    7.1230 O   0  0  0  0  0  0  0  0  0  0  0  0
    6.8166   -9.7797    5.3682 C   0  0  0  0  0  0  0  0  0  0  0  0
    6.3109  -10.9114    6.0043 C   0  0  0  0  0  0  0  0  0  0  0  0
    5.6007  -11.7483    5.1778 C   0  0  0  0  0  0  0  0  0  0  0  0
    5.4081  -11.4861    3.8142 C   0  0  0  0  0  0  0  0  0  0  0  0
    5.9128  -10.3822    3.1695 C   0  0  0  0  0  0  0  0  0  0  0  0
    6.6347   -9.5156    3.9944 C   0  0  0  0  0  0  0  0  0  0  0  0
    7.3156   -8.2652    3.6677 C   0  0  0  0  0  0  0  0  0  0  0  0
    7.7340   -7.8912    2.4182 C   0  0  0  0  0  0  0  0  0  0  0  0
    7.3894   -8.5667    1.2312 C   0  0  0  0  0  0  0  0  0  0  0  0
    7.1041   -9.0463    0.2273 N   0  0  0  0  0  0  0  0  0  0  0  0
    8.5965   -6.7992    2.1823 C   0  0  0  0  0  0  0  0  0  0  0  0
    9.3208   -5.9451    1.9325 N   0  0  0  0  0  0  0  0  0  0  0  0
    4.5818  -12.7308    3.6098 C   0  0  0  0  0  0  0  0  0  0  0  0
    3.0448  -12.5678    3.5067 C   0  0  0  0  0  0  0  0  0  0  0  0
    2.6932  -11.3158    4.2713 C   0  0  0  0  0  0  0  0  0  0  0  0
    2.8768  -11.5639    5.5612 C   0  0  0  0  0  0  0  0  0  0  0  0
    3.3553  -12.9885    5.6922 C   0  0  0  0  0  0  0  0  0  0  0  0
    2.6018  -13.6359    4.5192 C   0  0  0  0  0  0  0  0  0  0  0  0
    4.7976  -13.0240    5.1279 C   0  0  0  0  0  0  0  0  0  0  0  0
   -8.3182    6.6532   -2.7402 H   0  0  0  0  0  0  0  0  0  0  0  0
  -10.6842    1.2455   -0.7231 H   0  0  0  0  0  0  0  0  0  0  0  0
  -13.4648    5.4552   -1.1769 H   0  0  0  0  0  0  0  0  0  0  0  0
  -14.9132    3.3022    1.0561 H   0  0  0  0  0  0  0  0  0  0  0  0
  -16.2586    3.1746   -1.2395 H   0  0  0  0  0  0  0  0  0  0  0  0
  -17.4604    1.6324    0.5160 H   0  0  0  0  0  0  0  0  0  0  0  0
  -16.0309   -0.5917    0.7788 H   0  0  0  0  0  0  0  0  0  0  0  0
  -13.9498   -0.4194   -0.8155 H   0  0  0  0  0  0  0  0  0  0  0  0
  -15.6917    0.8432   -2.3576 H   0  0  0  0  0  0  0  0  0  0  0  0
  -14.1998    1.8090   -2.2963 H   0  0  0  0  0  0  0  0  0  0  0  0
  -13.5102    1.1221    1.3124 H   0  0  0  0  0  0  0  0  0  0  0  0
   -5.9459    6.5704   -2.0425 H   0  0  0  0  0  0  0  0  0  0  0  0
   -3.8979    6.6680   -0.6550 H   0  0  0  0  0  0  0  0  0  0  0  0
   -2.1840    6.2482   -0.6377 H   0  0  0  0  0  0  0  0  0  0  0  0
   -4.4796    4.2722   -0.2251 H   0  0  0  0  0  0  0  0  0  0  0  0
   -3.4582    4.9520    1.0485 H   0  0  0  0  0  0  0  0  0  0  0  0
   -2.7597    3.8793   -0.1669 H   0  0  0  0  0  0  0  0  0  0  0  0
   -2.7237    6.3961   -4.2826 H   0  0  0  0  0  0  0  0  0  0  0  0
   -1.7228    6.9556   -2.9421 H   0  0  0  0  0  0  0  0  0  0  0  0
   -3.6376    8.3736   -2.1379 H   0  0  0  0  0  0  0  0  0  0  0  0
   -4.5946    7.8254   -3.5221 H   0  0  0  0  0  0  0  0  0  0  0  0
   -3.1339    8.7731   -3.7755 H   0  0  0  0  0  0  0  0  0  0  0  0
   -5.5672    2.3167   -4.5757 H   0  0  0  0  0  0  0  0  0  0  0  0
   -7.7671    3.3562   -4.2046 H   0  0  0  0  0  0  0  0  0  0  0  0
   -3.1384    1.4672   -4.3869 H   0  0  0  0  0  0  0  0  0  0  0  0
   -0.8227    0.9961   -3.7625 H   0  0  0  0  0  0  0  0  0  0  0  0
   -0.4909    4.8289   -1.8764 H   0  0  0  0  0  0  0  0  0  0  0  0
    0.4589   -0.2033   -5.9982 H   0  0  0  0  0  0  0  0  0  0  0  0
   -0.2114    0.9606   -8.0571 H   0  0  0  0  0  0  0  0  0  0  0  0
    0.0241    5.8075   -7.9893 H   0  0  0  0  0  0  0  0  0  0  0  0
    0.2224    5.7799   -9.7552 H   0  0  0  0  0  0  0  0  0  0  0  0
    1.6026    5.3600   -8.7175 H   0  0  0  0  0  0  0  0  0  0  0  0
    1.3815    4.6125   -6.5025 H   0  0  0  0  0  0  0  0  0  0  0  0
    2.0661    3.4592   -4.4829 H   0  0  0  0  0  0  0  0  0  0  0  0
    1.0781   -0.9383   -2.0921 H   0  0  0  0  0  0  0  0  0  0  0  0
    1.8371   -3.2523   -2.0487 H   0  0  0  0  0  0  0  0  0  0  0  0
    1.9211   -5.5827   -2.4183 H   0  0  0  0  0  0  0  0  0  0  0  0
    3.3732   -4.9437   -1.5804 H   0  0  0  0  0  0  0  0  0  0  0  0
    3.4391   -6.5086   -2.4189 H   0  0  0  0  0  0  0  0  0  0  0  0
    3.9247   -2.6331   -5.7308 H   0  0  0  0  0  0  0  0  0  0  0  0
    3.1681   -0.2887   -5.7630 H   0  0  0  0  0  0  0  0  0  0  0  0
    1.7081    0.9840    1.8858 H   0  0  0  0  0  0  0  0  0  0  0  0
   -0.5600    1.4162    2.6663 H   0  0  0  0  0  0  0  0  0  0  0  0
   -3.8764    2.7930    3.3557 H   0  0  0  0  0  0  0  0  0  0  0  0
   -2.5712    1.6763    3.8071 H   0  0  0  0  0  0  0  0  0  0  0  0
   -2.7336    2.2435    2.1112 H   0  0  0  0  0  0  0  0  0  0  0  0
    0.4360    5.5316    3.2633 H   0  0  0  0  0  0  0  0  0  0  0  0
    2.7190    5.0967    2.4597 H   0  0  0  0  0  0  0  0  0  0  0  0
    5.4730    3.6559   -0.1405 H   0  0  0  0  0  0  0  0  0  0  0  0
    7.4411    5.0011    0.4682 H   0  0  0  0  0  0  0  0  0  0  0  0
    7.4552    6.8815    4.8979 H   0  0  0  0  0  0  0  0  0  0  0  0
    8.4327    5.4060    5.1939 H   0  0  0  0  0  0  0  0  0  0  0  0
    9.2301    6.9576    4.8566 H   0  0  0  0  0  0  0  0  0  0  0  0
    6.2256    4.9130    4.5685 H   0  0  0  0  0  0  0  0  0  0  0  0
    4.2880    3.5670    3.9662 H   0  0  0  0  0  0  0  0  0  0  0  0
    4.4208   -1.7350    0.1326 H   0  0  0  0  0  0  0  0  0  0  0  0
    5.5859   -5.3304    1.0286 H   0  0  0  0  0  0  0  0  0  0  0  0
    4.9874   -3.9814    0.0568 H   0  0  0  0  0  0  0  0  0  0  0  0
    3.1003   -5.3337    1.0214 H   0  0  0  0  0  0  0  0  0  0  0  0
    3.0779   -3.6739    1.6361 H   0  0  0  0  0  0  0  0  0  0  0  0
    3.6886   -4.9814    2.6494 H   0  0  0  0  0  0  0  0  0  0  0  0
    7.5785    0.2999    3.3934 H   0  0  0  0  0  0  0  0  0  0  0  0
    6.2932    1.7072    1.8581 H   0  0  0  0  0  0  0  0  0  0  0  0
    8.6079   -1.8347    4.8880 H   0  0  0  0  0  0  0  0  0  0  0  0
    9.0376   -4.0438    5.8900 H   0  0  0  0  0  0  0  0  0  0  0  0
    6.2685   -5.8917    3.1885 H   0  0  0  0  0  0  0  0  0  0  0  0
    8.2959   -6.2463    6.3036 H   0  0  0  0  0  0  0  0  0  0  0  0
    6.4812  -11.0787    7.0562 H   0  0  0  0  0  0  0  0  0  0  0  0
    5.7557  -10.1867    2.1212 H   0  0  0  0  0  0  0  0  0  0  0  0
    4.9716  -13.4486    2.8909 H   0  0  0  0  0  0  0  0  0  0  0  0
    2.6500  -12.6406    2.4967 H   0  0  0  0  0  0  0  0  0  0  0  0
    2.4102  -10.3894    3.8064 H   0  0  0  0  0  0  0  0  0  0  0  0
    2.7784  -10.8861    6.3890 H   0  0  0  0  0  0  0  0  0  0  0  0
    3.2423  -13.4441    6.6724 H   0  0  0  0  0  0  0  0  0  0  0  0
    2.9548  -14.6371    4.2763 H   0  0  0  0  0  0  0  0  0  0  0  0
    1.5233  -13.6524    4.6693 H   0  0  0  0  0  0  0  0  0  0  0  0
    5.3273  -13.9344    5.4009 H   0  0  0  0  0  0  0  0  0  0  0  0
  1  2  2  0  0  0  0
  2  3  1  0  0  0  0
  3  4  2  0  0  0  0
  3  5  1  0  0  0  0
  5  6  2  0  0  0  0
  6  7  1  0  0  0  0
  7  8  2  0  0  0  0
  8  9  1  0  0  0  0
  9 10  2  0  0  0  0
 10 11  1  0  0  0  0
 11 12  2  0  0  0  0
 12 13  1  0  0  0  0
 13 14  3  0  0  0  0
 12 15  1  0  0  0  0
 15 16  3  0  0  0  0
  8 17  1  0  0  0  0
 17 18  1  0  0  0  0
 18 19  1  0  0  0  0
 19 20  2  0  0  0  0
 20 21  1  0  0  0  0
 21 22  1  0  0  0  0
 21 23  1  0  0  0  0
  1 24  1  0  0  0  0
 24 25  2  0  0  0  0
 25 26  1  0  0  0  0
 26 27  1  0  0  0  0
 27 28  1  0  0  0  0
 28 29  1  0  0  0  0
 27 30  1  0  0  0  0
 30 31  1  0  0  0  0
 27 32  1  0  0  0  0
 32 33  2  0  0  0  0
 33 34  1  0  0  0  0
 34 35  1  0  0  0  0
 35 36  2  0  0  0  0
 33 37  1  0  0  0  0
 37 38  2  0  0  0  0
 38 39  1  0  0  0  0
 39 40  2  0  0  0  0
 39 41  1  0  0  0  0
 41 42  2  0  0  0  0
 42 43  1  0  0  0  0
 43 44  1  0  0  0  0
 44 45  2  0  0  0  0
 45 46  1  0  0  0  0
 46 47  2  0  0  0  0
 47 48  1  0  0  0  0
 48 49  1  0  0  0  0
 47 50  1  0  0  0  0
 50 51  2  0  0  0  0
 43 52  1  0  0  0  0
 52 53  2  0  0  0  0
 53 54  1  0  0  0  0
 54 55  2  0  0  0  0
 55 56  1  0  0  0  0
 56 57  1  0  0  0  0
 55 58  1  0  0  0  0
 58 59  2  0  0  0  0
 42 60  1  0  0  0  0
 60 61  1  0  0  0  0
 61 62  1  0  0  0  0
 62 63  2  0  0  0  0
 63 64  1  0  0  0  0
 64 65  1  0  0  0  0
 65 66  2  0  0  0  0
 66 67  1  0  0  0  0
 67 68  2  0  0  0  0
 68 69  1  0  0  0  0
 69 70  1  0  0  0  0
 68 71  1  0  0  0  0
 71 72  2  0  0  0  0
 64 73  1  0  0  0  0
 73 74  2  0  0  0  0
 74 75  1  0  0  0  0
 75 76  2  0  0  0  0
 76 77  1  0  0  0  0
 77 78  1  0  0  0  0
 76 79  1  0  0  0  0
 79 80  2  0  0  0  0
 63 81  1  0  0  0  0
 81 82  1  0  0  0  0
 62 83  1  0  0  0  0
 83 84  2  0  0  0  0
 84 85  1  0  0  0  0
 85 86  1  0  0  0  0
 86 87  1  0  0  0  0
 87 88  1  0  0  0  0
 86 89  1  0  0  0  0
 89 90  2  0  0  0  0
 90 91  1  0  0  0  0
 91 92  1  0  0  0  0
 92 93  2  0  0  0  0
 90 94  1  0  0  0  0
 94 95  2  0  0  0  0
 95 96  1  0  0  0  0
 96 97  2  0  0  0  0
 96 98  1  0  0  0  0
 98 99  2  0  0  0  0
 99100  1  0  0  0  0
100101  2  0  0  0  0
100102  1  0  0  0  0
102103  2  0  0  0  0
103104  1  0  0  0  0
104105  2  0  0  0  0
105106  1  0  0  0  0
106107  2  0  0  0  0
107108  1  0  0  0  0
108109  2  0  0  0  0
109110  1  0  0  0  0
110111  3  0  0  0  0
109112  1  0  0  0  0
112113  3  0  0  0  0
105114  1  0  0  0  0
114115  1  0  0  0  0
115116  1  0  0  0  0
116117  2  0  0  0  0
117118  1  0  0  0  0
118119  1  0  0  0  0
118120  1  0  0  0  0
 11  2  1  0  0  0  0
 23 17  1  0  0  0  0
 36 24  1  0  0  0  0
 82 41  1  0  0  0  0
 93 83  1  0  0  0  0
108 99  1  0  0  0  0
120114  1  0  0  0  0
 10  5  1  0  0  0  0
 22 18  1  0  0  0  0
 34 26  2  0  0  0  0
 51 44  1  0  0  0  0
 59 52  1  0  0  0  0
 81 60  2  0  0  0  0
 91 85  2  0  0  0  0
107102  1  0  0  0  0
119115  1  0  0  0  0
 23  7  1  0  0  0  0
 40 32  1  0  0  0  0
 72 65  1  0  0  0  0
 80 73  1  0  0  0  0
 97 89  1  0  0  0  0
120104  1  0  0  0  0
  1121  1  0  0  0  0
  6122  1  0  0  0  0
  9123  1  0  0  0  0
 17124  1  0  0  0  0
 18125  1  0  0  0  0
 19126  1  0  0  0  0
 20127  1  0  0  0  0
 21128  1  0  0  0  0
 22129  1  0  0  0  0
 22130  1  0  0  0  0
 23131  1  0  0  0  0
 25132  1  0  0  0  0
 28133  1  0  0  0  0
 28134  1  0  0  0  0
 29135  1  0  0  0  0
 29136  1  0  0  0  0
 29137  1  0  0  0  0
 30138  1  0  0  0  0
 30139  1  0  0  0  0
 31140  1  0  0  0  0
 31141  1  0  0  0  0
 31142  1  0  0  0  0
 35143  1  0  0  0  0
 36144  1  0  0  0  0
 37145  1  0  0  0  0
 38146  1  0  0  0  0
 40147  1  0  0  0  0
 45148  1  0  0  0  0
 46149  1  0  0  0  0
 49150  1  0  0  0  0
 49151  1  0  0  0  0
 49152  1  0  0  0  0
 50153  1  0  0  0  0
 51154  1  0  0  0  0
 53155  1  0  0  0  0
 54156  1  0  0  0  0
 57157  1  0  0  0  0
 57158  1  0  0  0  0
 57159  1  0  0  0  0
 58160  1  0  0  0  0
 59161  1  0  0  0  0
 66162  1  0  0  0  0
 67163  1  0  0  0  0
 70164  1  0  0  0  0
 70165  1  0  0  0  0
 70166  1  0  0  0  0
 71167  1  0  0  0  0
 72168  1  0  0  0  0
 74169  1  0  0  0  0
 75170  1  0  0  0  0
 78171  1  0  0  0  0
 78172  1  0  0  0  0
 78173  1  0  0  0  0
 79174  1  0  0  0  0
 80175  1  0  0  0  0
 84176  1  0  0  0  0
 87177  1  0  0  0  0
 87178  1  0  0  0  0
 88179  1  0  0  0  0
 88180  1  0  0  0  0
 88181  1  0  0  0  0
 92182  1  0  0  0  0
 93183  1  0  0  0  0
 94184  1  0  0  0  0
 95185  1  0  0  0  0
 97186  1  0  0  0  0
 98187  1  0  0  0  0
103188  1  0  0  0  0
106189  1  0  0  0  0
114190  1  0  0  0  0
115191  1  0  0  0  0
116192  1  0  0  0  0
117193  1  0  0  0  0
118194  1  0  0  0  0
119195  1  0  0  0  0
119196  1  0  0  0  0
120197  1  0  0  0  0
M  END
