192

C          5.50060       -3.48260       -8.32600
C          6.84750       -3.64330       -8.36580
C          7.78370       -3.31730       -7.25620
O          7.52250       -2.81550       -6.18310
C          9.09540       -3.84230       -7.67150
C         10.28340       -3.77160       -6.94630
C         11.35800       -4.35040       -7.57590
C         11.25870       -4.96160       -8.83410
C         10.09400       -5.03980       -9.55860
C          8.98610       -4.45450       -8.93650
C          7.60590       -4.34010       -9.39420
C          7.12920       -4.75610      -10.60890
C          5.80770       -4.57860      -11.07160
N          4.76130       -4.46410      -11.53130
C          7.90060       -5.41600      -11.58910
N          8.46230       -5.96140      -12.42900
C         12.71750       -5.34280       -8.85180
C         13.08100       -6.81660       -8.54390
C         11.97300       -7.36000       -7.67630
C         12.06780       -6.77970       -6.48740
C         13.24210       -5.83320       -6.52960
C         14.17260       -6.59860       -7.48390
C         12.82860       -4.65990       -7.45220
C          4.75870       -2.67450       -7.39130
C          3.50960       -3.13980       -6.94660
C          2.78550       -2.39960       -6.04320
C          1.48610       -2.72230       -5.33210
C          0.24980       -2.76010       -6.26480
C          0.45660       -3.34870       -7.65530
C          1.60050       -3.96870       -4.42700
C          1.67130       -5.32710       -5.11080
C          1.34040       -1.51040       -4.42830
C          2.36250       -0.57920       -4.66360
C          3.27430       -1.14210       -5.63220
C          4.48050       -0.64790       -6.10970
C          5.22570       -1.42340       -6.97130
C          2.38240        0.63500       -3.99190
C          1.43570        0.86760       -3.01710
C          0.48360       -0.10610       -2.69210
C          0.39920       -1.27490       -3.45590
C         -0.36600        0.05100       -1.52950
C         -0.01280        0.49840       -0.26730
N          1.25530        0.86750        0.15040
C          1.38740        1.82280        1.16940
C          0.54640        2.93130        1.22200
C          0.65100        3.84760        2.25060
C          1.60690        3.67270        3.24060
S          1.81410        4.78170        4.59980
C          0.19310        5.59490        4.71600
C          2.47660        2.58630        3.17080
C          2.36780        1.66960        2.15040
C          2.41130        0.33290       -0.43820
C          3.50360        1.16490       -0.69210
C          4.59510        0.68820       -1.37870
C          4.62830       -0.62930       -1.83350
S          6.03080       -1.08060       -2.80330
C          5.62670       -2.72220       -3.45070
C          3.57950       -1.48100       -1.51310
C          2.48510       -1.00400       -0.81780
C         -1.13480        0.47380        0.60520
S         -1.36740        0.87360        2.26800
C         -3.06880        0.45910        2.14890
C         -3.41260       -0.05150        0.90280
N         -4.61780       -0.62920        0.55700
C         -5.07230       -0.50190       -0.76350
C         -5.71060       -1.57070       -1.39290
C         -6.13390       -1.45140       -2.69700
C         -5.92720       -0.26690       -3.40300
S         -6.50210       -0.23520       -5.07250
C         -5.77760        1.28640       -5.74920
C         -5.31330        0.80640       -2.77260
C         -4.89260        0.68830       -1.46200
C         -5.46060       -1.18560        1.52860
C         -4.93660       -1.89350        2.60760
C         -5.74870       -2.29960        3.64730
C         -7.10900       -2.01570        3.62240
S         -8.21860       -2.37150        4.94070
C         -7.12080       -2.74960        6.33330
C         -7.65290       -1.40660        2.49250
C         -6.84250       -1.00100        1.45750
C         -2.29670       -0.01320        0.02920
S         -2.03820       -0.48040       -1.61450
C         -3.93320        0.68930        3.27500
C         -5.24110        1.22290        3.08720
N         -5.59070        1.70650        1.88250
C         -6.80580        2.14140        1.70860
C         -7.77400        2.07940        2.75030
O         -9.07010        2.36680        2.62340
C         -9.59050        2.80960        1.37980
C         -9.33770        4.29440        1.14140
N         -7.41430        1.72300        3.96390
C         -6.15420        1.31360        4.16840
C         -5.72820        1.02100        5.49140
C         -4.42670        0.57680        5.65590
C         -3.55850        0.39910        4.57720
F         -2.34840       -0.13320        4.82240
F         -4.00890        0.18150        6.86720
C         -6.63070        1.20020        6.60620
C         -6.28140        1.86560        7.73080
C         -5.09130        2.76390        7.82520
O         -4.20140        2.90630        7.01660
C         -5.28450        3.54130        9.06100
C         -4.45010        4.54750        9.54590
C         -4.88110        5.11450       10.72020
C         -6.06520        4.72240       11.36130
C         -6.90030        3.73740       10.89240
C         -6.47270        3.13590        9.70330
C         -7.07490        2.05450        8.93430
C         -8.13200        1.27740        9.32070
C         -8.87470        1.46990       10.50460
N         -9.52140        1.58030       11.44660
C         -8.57870        0.13700        8.62010
N         -8.96690       -0.83280        8.14460
C         -5.87760        5.71100       12.48500
C         -5.37140        5.13900       13.82620
C         -4.83170        6.34880       14.55450
C         -3.70920        6.71640       13.94980
C         -3.47170        5.76150       12.80220
C         -4.05400        4.47590       13.40370
C         -4.55630        6.14470       11.77260
H          4.89620       -4.02120       -9.04640
H         10.31390       -3.29040       -5.98120
H         10.03480       -5.51560      -10.52310
H         13.30750       -4.93250       -9.66880
H         13.34110       -7.40880       -9.41700
H         11.22300       -8.04650       -8.02330
H         11.41270       -6.88400       -5.64230
H         13.64930       -5.53010       -5.56860
H         15.01210       -6.00390       -7.84130
H         14.53770       -7.53160       -7.05740
H         13.49050       -3.80160       -7.35480
H          3.16360       -4.09630       -7.30440
H         -0.09940       -1.73150       -6.39130
H         -0.54220       -3.30830       -5.75060
H          1.18390       -2.76790       -8.21700
H         -0.48770       -3.32040       -8.19560
H          0.79030       -4.38080       -7.61700
H          0.73480       -3.96770       -3.76070
H          2.48960       -3.84350       -3.80210
H          0.78710       -5.51010       -5.71430
H          1.72360       -6.10440       -4.35040
H          2.55570       -5.41420       -5.73440
H          4.83900        0.31900       -5.79280
H          6.16300       -1.05220       -7.35370
H          3.13450        1.37640       -4.21250
H          1.43050        1.80630       -2.48490
H         -0.37840       -1.99200       -3.23530
H         -0.19370        3.07940        0.44890
H         -0.01460        4.69580        2.26470
H          0.07230        6.31930        3.91550
H          0.18730        6.10540        5.67390
H         -0.58950        4.84260        4.69030
H          3.22550        2.46330        3.93770
H          3.03110        0.81880        2.11010
H          3.47390        2.19590       -0.37200
H          5.42850        1.33750       -1.59810
H          6.36410       -2.91380       -4.22490
H          5.70090       -3.46690       -2.66280
H          4.63480       -2.70380       -3.89110
H          3.60130       -2.51960       -1.80230
H          1.67040       -1.67260       -0.58320
H         -5.86280       -2.49280       -0.85240
H         -6.62050       -2.27800       -3.19160
H         -5.98890        1.26280       -6.81380
H         -6.24600        2.15890       -5.30270
H         -4.70440        1.28460       -5.58390
H         -5.16280        1.74250       -3.28590
H         -4.43240        1.52840       -0.96390
H         -3.87940       -2.11090        2.64190
H         -5.30930       -2.83390        4.47420
H         -6.36250       -1.97720        6.42160
H         -7.76010       -2.73550        7.21070
H         -6.67360       -3.73180        6.20870
H         -8.71670       -1.22870        2.45660
H         -7.26870       -0.50090        0.60010
H         -7.01570        2.55430        0.73230
H         -9.19470        2.20290        0.55700
H        -10.66480        2.62550        1.46080
H         -9.81530        4.60080        0.21500
H         -9.75410        4.87320        1.96160
H         -8.27330        4.50820        1.07660
H         -7.63790        0.83170        6.46000
H         -3.55140        4.82250        9.01650
H         -7.81330        3.45410       11.38920
H         -6.67000        6.44690       12.60740
H         -6.09270        4.52670       14.36040
H         -5.33390        6.82950       15.37330
H         -3.08650        7.56550       14.16240
H         -2.46170        5.71610       12.40400
H         -3.47810        4.12460       14.25820
H         -4.17380        3.66490       12.68790
H         -4.46530        7.17090       11.42110
