197

C         -8.28500        5.56970       -2.75520
C         -9.41530        4.88730       -2.43650
C         -9.46560        3.46740       -1.98980
O         -8.58160        2.63900       -2.00700
C        -10.81280        3.28210       -1.41790
C        -11.30190        2.12540       -0.81320
C        -12.59710        2.23150       -0.36900
C        -13.35120        3.40540       -0.50660
C        -12.87850        4.55560       -1.09110
C        -11.56170        4.46720       -1.55700
C        -10.73210        5.46540       -2.22160
C        -11.14430        6.70110       -2.64500
C        -10.34400        7.61490       -3.36370
N         -9.76620        8.40910       -3.95910
C        -12.44120        7.22040       -2.45090
N        -13.47620        7.70140       -2.32660
C        -14.56280        2.79900        0.15700
C        -15.71150        2.35880       -0.77520
C        -16.51280        1.39450        0.06940
C        -15.79900        0.28360        0.20070
C        -14.50330        0.47840       -0.55330
C        -14.99750        1.36660       -1.70230
C        -13.72180        1.49110        0.31040
C         -6.99970        4.99450       -3.05260
C         -5.84190        5.65350       -2.60380
C         -4.61320        5.07970       -2.81560
C         -3.24350        5.54810       -2.37650
C         -3.18210        5.87600       -0.87750
C         -3.49090        4.66780       -0.00090
C         -2.74920        6.73130       -3.24210
C         -3.58620        8.00050       -3.15720
C         -2.39240        4.34840       -2.73250
C         -3.14680        3.39610       -3.43770
C         -4.51790        3.84850       -3.49350
C         -5.64800        3.23750       -4.01870
C         -6.88070        3.81130       -3.79340
C         -2.56420        2.20640       -3.84930
C         -1.25010        1.95370       -3.51500
C         -0.49160        2.88780       -2.79720
C         -1.07560        4.10920       -2.43170
C          0.81690        2.54960       -2.28800
C          1.70810        1.57230       -2.69870
N          1.66170        0.88770       -3.90510
C          1.30680        1.54710       -5.08790
C          0.66430        0.85070       -6.11370
C          0.28710        1.50000       -7.26650
C          0.53010        2.86290       -7.42510
S         -0.02000        3.58770       -8.93840
C          0.52220        5.31620       -8.82040
C          1.17110        3.55930       -6.41060
C          1.55900        2.90490       -5.25810
C          2.07650       -0.45080       -3.92370
C          1.70990       -1.30620       -2.88810
C          2.14190       -2.61870       -2.86630
C          2.94500       -3.10030       -3.88960
S          3.56980       -4.74980       -3.97570
C          3.00520       -5.51350       -2.42840
C          3.29980       -2.25180       -4.93800
C          2.87580       -0.94340       -4.95610
C          2.72690        1.37390       -1.73060
S          4.00590        0.23110       -1.52160
C          4.38410        0.87870        0.07100
C          3.61120        1.98250        0.37100
N          3.63010        2.73350        1.55360
C          2.37050        3.00750        2.10780
C          1.42930        1.98350        2.18750
C          0.14380        2.23210        2.62660
C         -0.22280        3.51620        3.00270
S         -1.84440        3.96600        3.54140
C         -2.84890        2.50300        3.15940
C          0.72540        4.53610        2.96340
C          2.00470        4.28960        2.51930
C          4.73850        3.52040        1.87340
C          5.64090        3.93240        0.88980
C          6.74400        4.68380        1.22840
C          6.97120        5.05280        2.55250
S          8.41780        6.02050        2.85900
C          8.36240        6.34050        4.64480
C          6.07540        4.64980        3.53390
C          4.97360        3.88870        3.19660
C          2.65200        2.22750       -0.64610
S          1.32490        3.32130       -0.79030
C          5.25420        0.08100        0.91810
C          5.11270       -1.30500        0.84110
C          5.82870       -2.09790        1.71690
N          5.79480       -3.46060        1.87800
C          5.04090       -4.38310        1.07290
C          3.63510       -4.60800        1.62920
C          6.60890       -3.79160        2.93200
C          7.23390       -2.61850        3.43320
C          6.71860       -1.53010        2.66370
C          6.88870       -0.14980        2.69600
C          6.15750        0.63990        1.83690
C          8.12020       -2.71650        4.50200
C          8.35050       -3.95000        5.06260
C          7.71600       -5.11560        4.58430
C          6.82150       -5.02450        3.51360
C          7.94100       -6.35040        5.28190
C          7.68070       -7.63100        4.91890
C          7.56950       -8.66990        5.98360
O          7.96650       -8.58310        7.12300
C          6.81660       -9.77970        5.36820
C          6.31090      -10.91140        6.00430
C          5.60070      -11.74830        5.17780
C          5.40810      -11.48610        3.81420
C          5.91280      -10.38220        3.16950
C          6.63470       -9.51560        3.99440
C          7.31560       -8.26520        3.66770
C          7.73400       -7.89120        2.41820
C          7.38940       -8.56670        1.23120
N          7.10410       -9.04630        0.22730
C          8.59650       -6.79920        2.18230
N          9.32080       -5.94510        1.93250
C          4.58180      -12.73080        3.60980
C          3.04480      -12.56780        3.50670
C          2.69320      -11.31580        4.27130
C          2.87680      -11.56390        5.56120
C          3.35530      -12.98850        5.69220
C          2.60180      -13.63590        4.51920
C          4.79760      -13.02400        5.12790
H         -8.31820        6.65320       -2.74020
H        -10.68420        1.24550       -0.72310
H        -13.46480        5.45520       -1.17690
H        -14.91320        3.30220        1.05610
H        -16.25860        3.17460       -1.23950
H        -17.46040        1.63240        0.51600
H        -16.03090       -0.59170        0.77880
H        -13.94980       -0.41940       -0.81550
H        -15.69170        0.84320       -2.35760
H        -14.19980        1.80900       -2.29630
H        -13.51020        1.12210        1.31240
H         -5.94590        6.57040       -2.04250
H         -3.89790        6.66800       -0.65500
H         -2.18400        6.24820       -0.63770
H         -4.47960        4.27220       -0.22510
H         -3.45820        4.95200        1.04850
H         -2.75970        3.87930       -0.16690
H         -2.72370        6.39610       -4.28260
H         -1.72280        6.95560       -2.94210
H         -3.63760        8.37360       -2.13790
H         -4.59460        7.82540       -3.52210
H         -3.13390        8.77310       -3.77550
H         -5.56720        2.31670       -4.57570
H         -7.76710        3.35620       -4.20460
H         -3.13840        1.46720       -4.38690
H         -0.82270        0.99610       -3.76250
H         -0.49090        4.82890       -1.87640
H          0.45890       -0.20330       -5.99820
H         -0.21140        0.96060       -8.05710
H          0.02410        5.80750       -7.98930
H          0.22240        5.77990       -9.75520
H          1.60260        5.36000       -8.71750
H          1.38150        4.61250       -6.50250
H          2.06610        3.45920       -4.48290
H          1.07810       -0.93830       -2.09210
H          1.83710       -3.25230       -2.04870
H          1.92110       -5.58270       -2.41830
H          3.37320       -4.94370       -1.58040
H          3.43910       -6.50860       -2.41890
H          3.92470       -2.63310       -5.73080
H          3.16810       -0.28870       -5.76300
H          1.70810        0.98400        1.88580
H         -0.56000        1.41620        2.66630
H         -3.87640        2.79300        3.35570
H         -2.57120        1.67630        3.80710
H         -2.73360        2.24350        2.11120
H          0.43600        5.53160        3.26330
H          2.71900        5.09670        2.45970
H          5.47300        3.65590       -0.14050
H          7.44110        5.00110        0.46820
H          7.45520        6.88150        4.89790
H          8.43270        5.40600        5.19390
H          9.23010        6.95760        4.85660
H          6.22560        4.91300        4.56850
H          4.28800        3.56700        3.96620
H          4.42080       -1.73500        0.13260
H          5.58590       -5.33040        1.02860
H          4.98740       -3.98140        0.05680
H          3.10030       -5.33370        1.02140
H          3.07790       -3.67390        1.63610
H          3.68860       -4.98140        2.64940
H          7.57850        0.29990        3.39340
H          6.29320        1.70720        1.85810
H          8.60790       -1.83470        4.88800
H          9.03760       -4.04380        5.89000
H          6.26850       -5.89170        3.18850
H          8.29590       -6.24630        6.30360
H          6.48120      -11.07870        7.05620
H          5.75570      -10.18670        2.12120
H          4.97160      -13.44860        2.89090
H          2.65000      -12.64060        2.49670
H          2.41020      -10.38940        3.80640
H          2.77840      -10.88610        6.38900
H          3.24230      -13.44410        6.67240
H          2.95480      -14.63710        4.27630
H          1.52330      -13.65240        4.66930
H          5.32730      -13.93440        5.40090
