241

C          8.03730        1.25920        7.45150
C          8.09310        0.11630        6.73220
C          6.89840       -0.63790        6.25450
O          5.80970       -0.73390        6.77150
C          7.31140       -1.20890        4.95890
C          6.46880       -1.74560        3.98880
C          7.09490       -2.02680        2.80010
C          8.47190       -1.84930        2.60150
C          9.32300       -1.36090        3.56500
C          8.69460       -1.01610        4.76790
C          9.23110       -0.33800        5.94070
C         10.54720       -0.15770        6.25900
C         11.62080       -0.62690        5.47430
N         12.52680       -0.98250        4.86590
C         10.97550        0.48600        7.44030
N         11.37620        0.99830        8.38590
C          8.39030       -2.26140        1.14790
C          8.47320       -1.11180        0.12220
C          7.84190       -1.66350       -1.13640
C          6.53450       -1.75670       -0.92670
C          6.26580       -1.29550        0.48480
C          7.33550       -0.20260        0.60280
C          6.85240       -2.42060        1.36860
C          6.78330        1.83960        7.89710
C          6.45880        3.08160        7.32800
C          5.15000        3.49050        7.32740
C          4.49650        4.62260        6.55530
C          5.13260        4.83300        5.17130
C          4.81590        6.15640        4.47910
C          4.50110        5.89280        7.43700
C          5.89690        6.37430        7.81300
C          3.07630        4.09350        6.49040
C          2.87090        3.13110        7.50000
C          4.17090        2.72870        7.99530
C          4.53290        1.61370        8.73800
C          5.83280        1.15150        8.65060
C          1.62650        2.53280        7.64930
C          0.68230        2.69330        6.65290
C          0.98730        3.44240        5.51120
C          2.13410        4.25450        5.51100
C          0.42790        3.08550        4.22590
C         -0.74540        2.44560        3.86720
N         -1.92380        2.48230        4.59340
C         -2.90130        1.50250        4.34780
C         -2.56520        0.14850        4.35800
C         -3.51100       -0.80400        4.04540
C         -4.81160       -0.42830        3.72060
S         -5.93340       -1.72550        3.30500
C         -7.42170       -0.85620        2.73840
C         -5.16140        0.91540        3.75080
C         -4.21330        1.86880        4.06250
C         -2.26260        3.60800        5.35710
C         -3.05610        3.44700        6.49450
C         -3.41410        4.53640        7.25510
C         -2.98730        5.81600        6.90430
S         -3.51350        7.13440        7.95490
C         -2.72130        8.60530        7.24480
C         -2.20000        5.98230        5.77380
C         -1.84360        4.88850        5.00860
C         -0.60090        1.78780        2.61780
S         -1.59680        0.74480        1.67920
C         -0.32680        0.54820        0.46650
C          0.83540        1.23020        0.81850
N          2.06710        1.22810        0.18320
C          2.20460        1.11470       -1.20390
C          1.28710        1.71000       -2.06440
C          1.34770        1.48730       -3.42660
C          2.35330        0.68660       -3.95360
S          2.50040        0.26880       -5.66020
C          1.23630        1.28090       -6.47710
C          3.31900        0.15190       -3.10130
C          3.24730        0.35830       -1.74370
C          3.21470        1.34670        0.98640
C          4.25330        2.19410        0.61330
C          5.34770        2.37550        1.43670
C          5.41850        1.71570        2.65590
S          6.75060        1.88390        3.80750
C          7.85660        3.09540        3.02310
C          4.39510        0.84720        3.02550
C          3.31470        0.65210        2.19440
C          0.64020        1.94480        2.02590
S          1.64140        2.99970        2.95130
C         -0.64650       -0.28200       -0.64450
C         -1.90970       -0.46090       -1.20540
N         -3.09700        0.16830       -0.83360
C         -4.22030       -0.64960       -0.65070
C         -5.48590       -0.23110       -1.06070
C         -6.57940       -1.04450       -0.86360
C         -6.43340       -2.29500       -0.26580
S         -7.90610       -3.24720       -0.04560
C         -7.38460       -4.59120        1.05850
C         -5.17290       -2.72470        0.12190
C         -4.07900       -1.90360       -0.06380
C         -3.14940        1.54030       -0.59470
C         -2.28400        2.40540       -1.26440
C         -2.20300        3.73050       -0.89820
C         -3.00240        4.22990        0.12790
S         -2.74190        5.91550        0.59040
C         -3.82380        6.14700        2.03020
C         -3.93300        3.39570        0.73150
C         -4.00280        2.06470        0.37610
C         -1.86590       -1.37900       -2.27130
S         -3.04740       -1.89110       -3.41640
C         -1.80920       -2.76480       -4.32550
C         -0.54460       -2.66850       -3.72290
N          0.61010       -3.17970       -4.25560
C          1.68440       -3.53190       -3.43010
C          1.46250       -4.12490       -2.18610
C          2.52590       -4.52730       -1.40930
C          3.83220       -4.36570       -1.86220
S          5.12230       -4.95630       -0.80720
C          6.51270       -5.21720       -1.94780
C          4.05920       -3.75980       -3.09170
C          2.99450       -3.34280       -3.86520
C          0.75900       -3.31580       -5.65430
C          0.35920       -2.28900       -6.50650
C          0.46630       -2.44340       -7.86910
C          0.98090       -3.62100       -8.40890
S          1.05560       -3.72060      -10.16780
C          1.27830       -5.49600      -10.47990
C          1.41340       -4.63040       -7.55970
C          1.30100       -4.47750       -6.19090
C         -0.60670       -1.89120       -2.54670
S          0.56620       -1.28680       -1.42870
C         -2.14710       -3.52490       -5.45780
C         -3.26230       -3.42750       -6.24020
C         -3.67500       -4.57290       -7.08440
O         -3.00490       -5.54350       -7.36860
C         -5.07600       -4.29500       -7.46130
C         -5.95470       -5.13670       -8.13800
C         -7.21750       -4.61740       -8.29890
C         -7.58430       -3.35230       -7.82240
C         -6.72420       -2.50330       -7.16660
C         -5.43610       -3.01280       -6.99490
C         -4.26180       -2.39850       -6.37770
C         -4.06730       -1.04590       -6.22630
C         -2.82230       -0.46160       -5.93440
N         -1.81790        0.07430       -5.76830
C         -5.05910       -0.07220       -6.45090
N         -5.82540        0.77020       -6.60250
C         -9.00550       -3.49330       -8.30630
C        -10.09490       -3.82870       -7.25770
C         -9.40230       -4.56510       -6.13790
C         -9.05630       -5.76150       -6.59400
C         -9.50770       -5.85530       -8.03050
C        -10.78570       -5.00360       -7.96820
C         -8.59620       -4.90150       -8.84200
H          8.92100        1.88470        7.51630
H          5.41630       -1.88270        4.17770
H         10.37840       -1.21050        3.40350
H          8.96900       -3.13800        0.86470
H          9.46000       -0.66860        0.01540
H          8.40290       -1.95010       -2.00770
H          5.76920       -2.12450       -1.58410
H          5.24320       -1.02230        0.73160
H          7.14700        0.62530       -0.07950
H          7.47080        0.17600        1.61260
H          6.38510       -3.38630        1.18910
H          7.22120        3.62140        6.78560
H          6.21620        4.75700        5.26970
H          4.80400        4.00700        4.53530
H          3.74920        6.35570        4.44950
H          5.17740        6.12180        3.45270
H          5.30260        6.99080        4.97720
H          3.95000        5.66550        8.35330
H          3.95990        6.68490        6.91790
H          5.82390        7.27380        8.42060
H          6.48850        6.60710        6.93180
H          6.42070        5.61520        8.38880
H          3.79410        1.05530        9.29180
H          6.11460        0.23630        9.14630
H          1.43320        1.85950        8.47060
H         -0.23670        2.12850        6.69100
H          2.31050        4.88740        4.65550
H         -1.55720       -0.14840        4.60710
H         -3.25070       -1.85110        4.04430
H         -7.16910       -0.20380        1.90730
H         -7.86950       -0.30560        3.56060
H         -8.10630       -1.62710        2.39810
H         -6.16600        1.23520        3.52450
H         -4.48960        2.91310        4.07890
H         -3.38960        2.45850        6.77410
H         -4.02470        4.41010        8.13580
H         -2.99670        9.42770        7.89760
H         -3.10100        8.78820        6.24370
H         -1.64240        8.48040        7.24310
H         -1.86140        6.95880        5.46750
H         -1.24010        5.03770        4.12580
H          0.50980        2.33530       -1.65160
H          0.60210        1.93420       -4.06420
H          1.34290        1.07160       -7.53720
H          0.24290        0.99410       -6.14480
H          1.43320        2.33200       -6.28650
H          4.11320       -0.44700       -3.51910
H          3.98060       -0.08570       -1.08890
H          4.19210        2.72790       -0.32340
H          6.12730        3.05000        1.12190
H          8.23470        2.70360        2.08320
H          7.33390        4.03610        2.87900
H          8.67880        3.23200        3.71880
H          4.45330        0.34300        3.97750
H          2.52700       -0.02680        2.48600
H         -5.60210        0.73280       -1.53320
H         -7.56150       -0.72340       -1.17640
H         -8.29680       -5.10400        1.34730
H         -6.89600       -4.17470        1.93490
H         -6.73030       -5.27780        0.52900
H         -5.02870       -3.68740        0.58360
H         -3.10300       -2.23110        0.26290
H         -1.66950        2.01950       -2.06360
H         -1.51310        4.39500       -1.39660
H         -4.86440        6.04300        1.73720
H         -3.55850        5.44300        2.81450
H         -3.64020        7.16140        2.37080
H         -4.59270        3.76010        1.50180
H         -4.68750        1.41070        0.89420
H          0.45290       -4.29830       -1.84550
H          2.35560       -4.99600       -0.45250
H          7.22410       -5.83460       -1.40820
H          6.15970       -5.74220       -2.82990
H          6.97370       -4.26850       -2.20600
H          5.06240       -3.60900       -3.45960
H          3.17490       -2.86460       -4.81630
H         -0.05750       -1.38450       -6.09500
H          0.14900       -1.65420       -8.53290
H          1.13480       -5.62670      -11.54790
H          2.28240       -5.80650      -10.20510
H          0.52540       -6.05460       -9.93220
H          1.83100       -5.54450       -7.94920
H          1.62350       -5.27160       -5.53310
H         -1.49330       -4.35690       -5.69660
H         -5.63610       -6.10610       -8.48810
H         -7.01590       -1.53350       -6.79770
H         -9.33960       -2.75030       -9.02780
H        -10.71500       -2.98530       -6.96580
H         -9.19030       -4.13320       -5.17730
H         -8.49690       -6.52820       -6.09050
H         -9.59390       -6.85740       -8.44260
H        -11.56770       -5.46090       -7.36370
H        -11.18280       -4.74470       -8.94890
H         -8.66150       -5.07670       -9.91410
