
  xtb     02122210543D
 energy: -317.355102041074 gnorm: 0.000705930910 xtb: 6.4.1 (unknown)
192212  0     0  0            999 V2000
    5.5006   -3.4826   -8.3260 C   0  0  0  0  0  0  0  0  0  0  0  0
    6.8475   -3.6433   -8.3658 C   0  0  0  0  0  0  0  0  0  0  0  0
    7.7837   -3.3173   -7.2562 C   0  0  0  0  0  0  0  0  0  0  0  0
    7.5225   -2.8155   -6.1831 O   0  0  0  0  0  0  0  0  0  0  0  0
    9.0954   -3.8423   -7.6715 C   0  0  0  0  0  0  0  0  0  0  0  0
   10.2834   -3.7716   -6.9463 C   0  0  0  0  0  0  0  0  0  0  0  0
   11.3580   -4.3504   -7.5759 C   0  0  0  0  0  0  0  0  0  0  0  0
   11.2587   -4.9616   -8.8341 C   0  0  0  0  0  0  0  0  0  0  0  0
   10.0940   -5.0398   -9.5586 C   0  0  0  0  0  0  0  0  0  0  0  0
    8.9861   -4.4545   -8.9365 C   0  0  0  0  0  0  0  0  0  0  0  0
    7.6059   -4.3401   -9.3942 C   0  0  0  0  0  0  0  0  0  0  0  0
    7.1292   -4.7561  -10.6089 C   0  0  0  0  0  0  0  0  0  0  0  0
    5.8077   -4.5786  -11.0716 C   0  0  0  0  0  0  0  0  0  0  0  0
    4.7613   -4.4641  -11.5313 N   0  0  0  0  0  0  0  0  0  0  0  0
    7.9006   -5.4160  -11.5891 C   0  0  0  0  0  0  0  0  0  0  0  0
    8.4623   -5.9614  -12.4290 N   0  0  0  0  0  0  0  0  0  0  0  0
   12.7175   -5.3428   -8.8518 C   0  0  0  0  0  0  0  0  0  0  0  0
   13.0810   -6.8166   -8.5439 C   0  0  0  0  0  0  0  0  0  0  0  0
   11.9730   -7.3600   -7.6763 C   0  0  0  0  0  0  0  0  0  0  0  0
   12.0678   -6.7797   -6.4874 C   0  0  0  0  0  0  0  0  0  0  0  0
   13.2421   -5.8332   -6.5296 C   0  0  0  0  0  0  0  0  0  0  0  0
   14.1726   -6.5986   -7.4839 C   0  0  0  0  0  0  0  0  0  0  0  0
   12.8286   -4.6599   -7.4522 C   0  0  0  0  0  0  0  0  0  0  0  0
    4.7587   -2.6745   -7.3913 C   0  0  0  0  0  0  0  0  0  0  0  0
    3.5096   -3.1398   -6.9466 C   0  0  0  0  0  0  0  0  0  0  0  0
    2.7855   -2.3996   -6.0432 C   0  0  0  0  0  0  0  0  0  0  0  0
    1.4861   -2.7223   -5.3321 C   0  0  0  0  0  0  0  0  0  0  0  0
    0.2498   -2.7601   -6.2648 C   0  0  0  0  0  0  0  0  0  0  0  0
    0.4566   -3.3487   -7.6553 C   0  0  0  0  0  0  0  0  0  0  0  0
    1.6005   -3.9687   -4.4270 C   0  0  0  0  0  0  0  0  0  0  0  0
    1.6713   -5.3271   -5.1108 C   0  0  0  0  0  0  0  0  0  0  0  0
    1.3404   -1.5104   -4.4283 C   0  0  0  0  0  0  0  0  0  0  0  0
    2.3625   -0.5792   -4.6636 C   0  0  0  0  0  0  0  0  0  0  0  0
    3.2743   -1.1421   -5.6322 C   0  0  0  0  0  0  0  0  0  0  0  0
    4.4805   -0.6479   -6.1097 C   0  0  0  0  0  0  0  0  0  0  0  0
    5.2257   -1.4234   -6.9713 C   0  0  0  0  0  0  0  0  0  0  0  0
    2.3824    0.6350   -3.9919 C   0  0  0  0  0  0  0  0  0  0  0  0
    1.4357    0.8676   -3.0171 C   0  0  0  0  0  0  0  0  0  0  0  0
    0.4836   -0.1061   -2.6921 C   0  0  0  0  0  0  0  0  0  0  0  0
    0.3992   -1.2749   -3.4559 C   0  0  0  0  0  0  0  0  0  0  0  0
   -0.3660    0.0510   -1.5295 C   0  0  0  0  0  0  0  0  0  0  0  0
   -0.0128    0.4984   -0.2673 C   0  0  0  0  0  0  0  0  0  0  0  0
    1.2553    0.8675    0.1504 N   0  0  0  0  0  0  0  0  0  0  0  0
    1.3874    1.8228    1.1694 C   0  0  0  0  0  0  0  0  0  0  0  0
    0.5464    2.9313    1.2220 C   0  0  0  0  0  0  0  0  0  0  0  0
    0.6510    3.8476    2.2506 C   0  0  0  0  0  0  0  0  0  0  0  0
    1.6069    3.6727    3.2406 C   0  0  0  0  0  0  0  0  0  0  0  0
    1.8141    4.7817    4.5998 S   0  0  0  0  0  0  0  0  0  0  0  0
    0.1931    5.5949    4.7160 C   0  0  0  0  0  0  0  0  0  0  0  0
    2.4766    2.5863    3.1708 C   0  0  0  0  0  0  0  0  0  0  0  0
    2.3678    1.6696    2.1504 C   0  0  0  0  0  0  0  0  0  0  0  0
    2.4113    0.3329   -0.4382 C   0  0  0  0  0  0  0  0  0  0  0  0
    3.5036    1.1649   -0.6921 C   0  0  0  0  0  0  0  0  0  0  0  0
    4.5951    0.6882   -1.3787 C   0  0  0  0  0  0  0  0  0  0  0  0
    4.6283   -0.6293   -1.8335 C   0  0  0  0  0  0  0  0  0  0  0  0
    6.0308   -1.0806   -2.8033 S   0  0  0  0  0  0  0  0  0  0  0  0
    5.6267   -2.7222   -3.4507 C   0  0  0  0  0  0  0  0  0  0  0  0
    3.5795   -1.4810   -1.5131 C   0  0  0  0  0  0  0  0  0  0  0  0
    2.4851   -1.0040   -0.8178 C   0  0  0  0  0  0  0  0  0  0  0  0
   -1.1348    0.4738    0.6052 C   0  0  0  0  0  0  0  0  0  0  0  0
   -1.3674    0.8736    2.2680 S   0  0  0  0  0  0  0  0  0  0  0  0
   -3.0688    0.4591    2.1489 C   0  0  0  0  0  0  0  0  0  0  0  0
   -3.4126   -0.0515    0.9028 C   0  0  0  0  0  0  0  0  0  0  0  0
   -4.6178   -0.6292    0.5570 N   0  0  0  0  0  0  0  0  0  0  0  0
   -5.0723   -0.5019   -0.7635 C   0  0  0  0  0  0  0  0  0  0  0  0
   -5.7106   -1.5707   -1.3929 C   0  0  0  0  0  0  0  0  0  0  0  0
   -6.1339   -1.4514   -2.6970 C   0  0  0  0  0  0  0  0  0  0  0  0
   -5.9272   -0.2669   -3.4030 C   0  0  0  0  0  0  0  0  0  0  0  0
   -6.5021   -0.2352   -5.0725 S   0  0  0  0  0  0  0  0  0  0  0  0
   -5.7776    1.2864   -5.7492 C   0  0  0  0  0  0  0  0  0  0  0  0
   -5.3133    0.8064   -2.7726 C   0  0  0  0  0  0  0  0  0  0  0  0
   -4.8926    0.6883   -1.4620 C   0  0  0  0  0  0  0  0  0  0  0  0
   -5.4606   -1.1856    1.5286 C   0  0  0  0  0  0  0  0  0  0  0  0
   -4.9366   -1.8935    2.6076 C   0  0  0  0  0  0  0  0  0  0  0  0
   -5.7487   -2.2996    3.6473 C   0  0  0  0  0  0  0  0  0  0  0  0
   -7.1090   -2.0157    3.6224 C   0  0  0  0  0  0  0  0  0  0  0  0
   -8.2186   -2.3715    4.9407 S   0  0  0  0  0  0  0  0  0  0  0  0
   -7.1208   -2.7496    6.3333 C   0  0  0  0  0  0  0  0  0  0  0  0
   -7.6529   -1.4066    2.4925 C   0  0  0  0  0  0  0  0  0  0  0  0
   -6.8425   -1.0010    1.4575 C   0  0  0  0  0  0  0  0  0  0  0  0
   -2.2967   -0.0132    0.0292 C   0  0  0  0  0  0  0  0  0  0  0  0
   -2.0382   -0.4804   -1.6145 S   0  0  0  0  0  0  0  0  0  0  0  0
   -3.9332    0.6893    3.2750 C   0  0  0  0  0  0  0  0  0  0  0  0
   -5.2411    1.2229    3.0872 C   0  0  0  0  0  0  0  0  0  0  0  0
   -5.5907    1.7065    1.8825 N   0  0  0  0  0  0  0  0  0  0  0  0
   -6.8058    2.1414    1.7086 C   0  0  0  0  0  0  0  0  0  0  0  0
   -7.7740    2.0794    2.7503 C   0  0  0  0  0  0  0  0  0  0  0  0
   -9.0701    2.3668    2.6234 O   0  0  0  0  0  0  0  0  0  0  0  0
   -9.5905    2.8096    1.3798 C   0  0  0  0  0  0  0  0  0  0  0  0
   -9.3377    4.2944    1.1414 C   0  0  0  0  0  0  0  0  0  0  0  0
   -7.4143    1.7230    3.9639 N   0  0  0  0  0  0  0  0  0  0  0  0
   -6.1542    1.3136    4.1684 C   0  0  0  0  0  0  0  0  0  0  0  0
   -5.7282    1.0210    5.4914 C   0  0  0  0  0  0  0  0  0  0  0  0
   -4.4267    0.5768    5.6559 C   0  0  0  0  0  0  0  0  0  0  0  0
   -3.5585    0.3991    4.5772 C   0  0  0  0  0  0  0  0  0  0  0  0
   -2.3484   -0.1332    4.8224 F   0  0  0  0  0  0  0  0  0  0  0  0
   -4.0089    0.1815    6.8672 F   0  0  0  0  0  0  0  0  0  0  0  0
   -6.6307    1.2002    6.6062 C   0  0  0  0  0  0  0  0  0  0  0  0
   -6.2814    1.8656    7.7308 C   0  0  0  0  0  0  0  0  0  0  0  0
   -5.0913    2.7639    7.8252 C   0  0  0  0  0  0  0  0  0  0  0  0
   -4.2014    2.9063    7.0166 O   0  0  0  0  0  0  0  0  0  0  0  0
   -5.2845    3.5413    9.0610 C   0  0  0  0  0  0  0  0  0  0  0  0
   -4.4501    4.5475    9.5459 C   0  0  0  0  0  0  0  0  0  0  0  0
   -4.8811    5.1145   10.7202 C   0  0  0  0  0  0  0  0  0  0  0  0
   -6.0652    4.7224   11.3613 C   0  0  0  0  0  0  0  0  0  0  0  0
   -6.9003    3.7374   10.8924 C   0  0  0  0  0  0  0  0  0  0  0  0
   -6.4727    3.1359    9.7033 C   0  0  0  0  0  0  0  0  0  0  0  0
   -7.0749    2.0545    8.9343 C   0  0  0  0  0  0  0  0  0  0  0  0
   -8.1320    1.2774    9.3207 C   0  0  0  0  0  0  0  0  0  0  0  0
   -8.8747    1.4699   10.5046 C   0  0  0  0  0  0  0  0  0  0  0  0
   -9.5214    1.5803   11.4466 N   0  0  0  0  0  0  0  0  0  0  0  0
   -8.5787    0.1370    8.6201 C   0  0  0  0  0  0  0  0  0  0  0  0
   -8.9669   -0.8328    8.1446 N   0  0  0  0  0  0  0  0  0  0  0  0
   -5.8776    5.7110   12.4850 C   0  0  0  0  0  0  0  0  0  0  0  0
   -5.3714    5.1390   13.8262 C   0  0  0  0  0  0  0  0  0  0  0  0
   -4.8317    6.3488   14.5545 C   0  0  0  0  0  0  0  0  0  0  0  0
   -3.7092    6.7164   13.9498 C   0  0  0  0  0  0  0  0  0  0  0  0
   -3.4717    5.7615   12.8022 C   0  0  0  0  0  0  0  0  0  0  0  0
   -4.0540    4.4759   13.4037 C   0  0  0  0  0  0  0  0  0  0  0  0
   -4.5563    6.1447   11.7726 C   0  0  0  0  0  0  0  0  0  0  0  0
    4.8962   -4.0212   -9.0464 H   0  0  0  0  0  0  0  0  0  0  0  0
   10.3139   -3.2904   -5.9812 H   0  0  0  0  0  0  0  0  0  0  0  0
   10.0348   -5.5156  -10.5231 H   0  0  0  0  0  0  0  0  0  0  0  0
   13.3075   -4.9325   -9.6688 H   0  0  0  0  0  0  0  0  0  0  0  0
   13.3411   -7.4088   -9.4170 H   0  0  0  0  0  0  0  0  0  0  0  0
   11.2230   -8.0465   -8.0233 H   0  0  0  0  0  0  0  0  0  0  0  0
   11.4127   -6.8840   -5.6423 H   0  0  0  0  0  0  0  0  0  0  0  0
   13.6493   -5.5301   -5.5686 H   0  0  0  0  0  0  0  0  0  0  0  0
   15.0121   -6.0039   -7.8413 H   0  0  0  0  0  0  0  0  0  0  0  0
   14.5377   -7.5316   -7.0574 H   0  0  0  0  0  0  0  0  0  0  0  0
   13.4905   -3.8016   -7.3548 H   0  0  0  0  0  0  0  0  0  0  0  0
    3.1636   -4.0963   -7.3044 H   0  0  0  0  0  0  0  0  0  0  0  0
   -0.0994   -1.7315   -6.3913 H   0  0  0  0  0  0  0  0  0  0  0  0
   -0.5422   -3.3083   -5.7506 H   0  0  0  0  0  0  0  0  0  0  0  0
    1.1839   -2.7679   -8.2170 H   0  0  0  0  0  0  0  0  0  0  0  0
   -0.4877   -3.3204   -8.1956 H   0  0  0  0  0  0  0  0  0  0  0  0
    0.7903   -4.3808   -7.6170 H   0  0  0  0  0  0  0  0  0  0  0  0
    0.7348   -3.9677   -3.7607 H   0  0  0  0  0  0  0  0  0  0  0  0
    2.4896   -3.8435   -3.8021 H   0  0  0  0  0  0  0  0  0  0  0  0
    0.7871   -5.5101   -5.7143 H   0  0  0  0  0  0  0  0  0  0  0  0
    1.7236   -6.1044   -4.3504 H   0  0  0  0  0  0  0  0  0  0  0  0
    2.5557   -5.4142   -5.7344 H   0  0  0  0  0  0  0  0  0  0  0  0
    4.8390    0.3190   -5.7928 H   0  0  0  0  0  0  0  0  0  0  0  0
    6.1630   -1.0522   -7.3537 H   0  0  0  0  0  0  0  0  0  0  0  0
    3.1345    1.3764   -4.2125 H   0  0  0  0  0  0  0  0  0  0  0  0
    1.4305    1.8063   -2.4849 H   0  0  0  0  0  0  0  0  0  0  0  0
   -0.3784   -1.9920   -3.2353 H   0  0  0  0  0  0  0  0  0  0  0  0
   -0.1937    3.0794    0.4489 H   0  0  0  0  0  0  0  0  0  0  0  0
   -0.0146    4.6958    2.2647 H   0  0  0  0  0  0  0  0  0  0  0  0
    0.0723    6.3193    3.9155 H   0  0  0  0  0  0  0  0  0  0  0  0
    0.1873    6.1054    5.6739 H   0  0  0  0  0  0  0  0  0  0  0  0
   -0.5895    4.8426    4.6903 H   0  0  0  0  0  0  0  0  0  0  0  0
    3.2255    2.4633    3.9377 H   0  0  0  0  0  0  0  0  0  0  0  0
    3.0311    0.8188    2.1101 H   0  0  0  0  0  0  0  0  0  0  0  0
    3.4739    2.1959   -0.3720 H   0  0  0  0  0  0  0  0  0  0  0  0
    5.4285    1.3375   -1.5981 H   0  0  0  0  0  0  0  0  0  0  0  0
    6.3641   -2.9138   -4.2249 H   0  0  0  0  0  0  0  0  0  0  0  0
    5.7009   -3.4669   -2.6628 H   0  0  0  0  0  0  0  0  0  0  0  0
    4.6348   -2.7038   -3.8911 H   0  0  0  0  0  0  0  0  0  0  0  0
    3.6013   -2.5196   -1.8023 H   0  0  0  0  0  0  0  0  0  0  0  0
    1.6704   -1.6726   -0.5832 H   0  0  0  0  0  0  0  0  0  0  0  0
   -5.8628   -2.4928   -0.8524 H   0  0  0  0  0  0  0  0  0  0  0  0
   -6.6205   -2.2780   -3.1916 H   0  0  0  0  0  0  0  0  0  0  0  0
   -5.9889    1.2628   -6.8138 H   0  0  0  0  0  0  0  0  0  0  0  0
   -6.2460    2.1589   -5.3027 H   0  0  0  0  0  0  0  0  0  0  0  0
   -4.7044    1.2846   -5.5839 H   0  0  0  0  0  0  0  0  0  0  0  0
   -5.1628    1.7425   -3.2859 H   0  0  0  0  0  0  0  0  0  0  0  0
   -4.4324    1.5284   -0.9639 H   0  0  0  0  0  0  0  0  0  0  0  0
   -3.8794   -2.1109    2.6419 H   0  0  0  0  0  0  0  0  0  0  0  0
   -5.3093   -2.8339    4.4742 H   0  0  0  0  0  0  0  0  0  0  0  0
   -6.3625   -1.9772    6.4216 H   0  0  0  0  0  0  0  0  0  0  0  0
   -7.7601   -2.7355    7.2107 H   0  0  0  0  0  0  0  0  0  0  0  0
   -6.6736   -3.7318    6.2087 H   0  0  0  0  0  0  0  0  0  0  0  0
   -8.7167   -1.2287    2.4566 H   0  0  0  0  0  0  0  0  0  0  0  0
   -7.2687   -0.5009    0.6001 H   0  0  0  0  0  0  0  0  0  0  0  0
   -7.0157    2.5543    0.7323 H   0  0  0  0  0  0  0  0  0  0  0  0
   -9.1947    2.2029    0.5570 H   0  0  0  0  0  0  0  0  0  0  0  0
  -10.6648    2.6255    1.4608 H   0  0  0  0  0  0  0  0  0  0  0  0
   -9.8153    4.6008    0.2150 H   0  0  0  0  0  0  0  0  0  0  0  0
   -9.7541    4.8732    1.9616 H   0  0  0  0  0  0  0  0  0  0  0  0
   -8.2733    4.5082    1.0766 H   0  0  0  0  0  0  0  0  0  0  0  0
   -7.6379    0.8317    6.4600 H   0  0  0  0  0  0  0  0  0  0  0  0
   -3.5514    4.8225    9.0165 H   0  0  0  0  0  0  0  0  0  0  0  0
   -7.8133    3.4541   11.3892 H   0  0  0  0  0  0  0  0  0  0  0  0
   -6.6700    6.4469   12.6074 H   0  0  0  0  0  0  0  0  0  0  0  0
   -6.0927    4.5267   14.3604 H   0  0  0  0  0  0  0  0  0  0  0  0
   -5.3339    6.8295   15.3733 H   0  0  0  0  0  0  0  0  0  0  0  0
   -3.0865    7.5655   14.1624 H   0  0  0  0  0  0  0  0  0  0  0  0
   -2.4617    5.7161   12.4040 H   0  0  0  0  0  0  0  0  0  0  0  0
   -3.4781    4.1246   14.2582 H   0  0  0  0  0  0  0  0  0  0  0  0
   -4.1738    3.6649   12.6879 H   0  0  0  0  0  0  0  0  0  0  0  0
   -4.4653    7.1709   11.4211 H   0  0  0  0  0  0  0  0  0  0  0  0
  1  2  2  0  0  0  0
  2  3  1  0  0  0  0
  3  4  2  0  0  0  0
  3  5  1  0  0  0  0
  5  6  2  0  0  0  0
  6  7  1  0  0  0  0
  7  8  2  0  0  0  0
  8  9  1  0  0  0  0
  9 10  2  0  0  0  0
 10 11  1  0  0  0  0
 11 12  2  0  0  0  0
 12 13  1  0  0  0  0
 13 14  3  0  0  0  0
 12 15  1  0  0  0  0
 15 16  3  0  0  0  0
  8 17  1  0  0  0  0
 17 18  1  0  0  0  0
 18 19  1  0  0  0  0
 19 20  2  0  0  0  0
 20 21  1  0  0  0  0
 21 22  1  0  0  0  0
 21 23  1  0  0  0  0
  1 24  1  0  0  0  0
 24 25  2  0  0  0  0
 25 26  1  0  0  0  0
 26 27  1  0  0  0  0
 27 28  1  0  0  0  0
 28 29  1  0  0  0  0
 27 30  1  0  0  0  0
 30 31  1  0  0  0  0
 27 32  1  0  0  0  0
 32 33  2  0  0  0  0
 33 34  1  0  0  0  0
 34 35  1  0  0  0  0
 35 36  2  0  0  0  0
 33 37  1  0  0  0  0
 37 38  2  0  0  0  0
 38 39  1  0  0  0  0
 39 40  2  0  0  0  0
 39 41  1  0  0  0  0
 41 42  2  0  0  0  0
 42 43  1  0  0  0  0
 43 44  1  0  0  0  0
 44 45  2  0  0  0  0
 45 46  1  0  0  0  0
 46 47  2  0  0  0  0
 47 48  1  0  0  0  0
 48 49  1  0  0  0  0
 47 50  1  0  0  0  0
 50 51  2  0  0  0  0
 43 52  1  0  0  0  0
 52 53  2  0  0  0  0
 53 54  1  0  0  0  0
 54 55  2  0  0  0  0
 55 56  1  0  0  0  0
 56 57  1  0  0  0  0
 55 58  1  0  0  0  0
 58 59  2  0  0  0  0
 42 60  1  0  0  0  0
 60 61  1  0  0  0  0
 61 62  1  0  0  0  0
 62 63  2  0  0  0  0
 63 64  1  0  0  0  0
 64 65  1  0  0  0  0
 65 66  2  0  0  0  0
 66 67  1  0  0  0  0
 67 68  2  0  0  0  0
 68 69  1  0  0  0  0
 69 70  1  0  0  0  0
 68 71  1  0  0  0  0
 71 72  2  0  0  0  0
 64 73  1  0  0  0  0
 73 74  2  0  0  0  0
 74 75  1  0  0  0  0
 75 76  2  0  0  0  0
 76 77  1  0  0  0  0
 77 78  1  0  0  0  0
 76 79  1  0  0  0  0
 79 80  2  0  0  0  0
 63 81  1  0  0  0  0
 81 82  1  0  0  0  0
 62 83  1  0  0  0  0
 83 84  1  0  0  0  0
 84 85  2  0  0  0  0
 85 86  1  0  0  0  0
 86 87  2  0  0  0  0
 87 88  1  0  0  0  0
 88 89  1  0  0  0  0
 89 90  1  0  0  0  0
 87 91  1  0  0  0  0
 91 92  2  0  0  0  0
 92 93  1  0  0  0  0
 93 94  2  0  0  0  0
 94 95  1  0  0  0  0
 95 96  1  0  0  0  0
 94 97  1  0  0  0  0
 93 98  1  0  0  0  0
 98 99  2  0  0  0  0
 99100  1  0  0  0  0
100101  2  0  0  0  0
100102  1  0  0  0  0
102103  2  0  0  0  0
103104  1  0  0  0  0
104105  2  0  0  0  0
105106  1  0  0  0  0
106107  2  0  0  0  0
107108  1  0  0  0  0
108109  2  0  0  0  0
109110  1  0  0  0  0
110111  3  0  0  0  0
109112  1  0  0  0  0
112113  3  0  0  0  0
105114  1  0  0  0  0
114115  1  0  0  0  0
115116  1  0  0  0  0
116117  2  0  0  0  0
117118  1  0  0  0  0
118119  1  0  0  0  0
118120  1  0  0  0  0
 11  2  1  0  0  0  0
 23 17  1  0  0  0  0
 36 24  1  0  0  0  0
 82 41  1  0  0  0  0
 95 83  2  0  0  0  0
108 99  1  0  0  0  0
120114  1  0  0  0  0
 10  5  1  0  0  0  0
 22 18  1  0  0  0  0
 34 26  2  0  0  0  0
 51 44  1  0  0  0  0
 59 52  1  0  0  0  0
 81 60  2  0  0  0  0
 92 84  1  0  0  0  0
107102  1  0  0  0  0
119115  1  0  0  0  0
 23  7  1  0  0  0  0
 40 32  1  0  0  0  0
 72 65  1  0  0  0  0
 80 73  1  0  0  0  0
120104  1  0  0  0  0
  1121  1  0  0  0  0
  6122  1  0  0  0  0
  9123  1  0  0  0  0
 17124  1  0  0  0  0
 18125  1  0  0  0  0
 19126  1  0  0  0  0
 20127  1  0  0  0  0
 21128  1  0  0  0  0
 22129  1  0  0  0  0
 22130  1  0  0  0  0
 23131  1  0  0  0  0
 25132  1  0  0  0  0
 28133  1  0  0  0  0
 28134  1  0  0  0  0
 29135  1  0  0  0  0
 29136  1  0  0  0  0
 29137  1  0  0  0  0
 30138  1  0  0  0  0
 30139  1  0  0  0  0
 31140  1  0  0  0  0
 31141  1  0  0  0  0
 31142  1  0  0  0  0
 35143  1  0  0  0  0
 36144  1  0  0  0  0
 37145  1  0  0  0  0
 38146  1  0  0  0  0
 40147  1  0  0  0  0
 45148  1  0  0  0  0
 46149  1  0  0  0  0
 49150  1  0  0  0  0
 49151  1  0  0  0  0
 49152  1  0  0  0  0
 50153  1  0  0  0  0
 51154  1  0  0  0  0
 53155  1  0  0  0  0
 54156  1  0  0  0  0
 57157  1  0  0  0  0
 57158  1  0  0  0  0
 57159  1  0  0  0  0
 58160  1  0  0  0  0
 59161  1  0  0  0  0
 66162  1  0  0  0  0
 67163  1  0  0  0  0
 70164  1  0  0  0  0
 70165  1  0  0  0  0
 70166  1  0  0  0  0
 71167  1  0  0  0  0
 72168  1  0  0  0  0
 74169  1  0  0  0  0
 75170  1  0  0  0  0
 78171  1  0  0  0  0
 78172  1  0  0  0  0
 78173  1  0  0  0  0
 79174  1  0  0  0  0
 80175  1  0  0  0  0
 86176  1  0  0  0  0
 89177  1  0  0  0  0
 89178  1  0  0  0  0
 90179  1  0  0  0  0
 90180  1  0  0  0  0
 90181  1  0  0  0  0
 98182  1  0  0  0  0
103183  1  0  0  0  0
106184  1  0  0  0  0
114185  1  0  0  0  0
115186  1  0  0  0  0
116187  1  0  0  0  0
117188  1  0  0  0  0
118189  1  0  0  0  0
119190  1  0  0  0  0
119191  1  0  0  0  0
120192  1  0  0  0  0
M  END
