226

C          0.73470        6.21250        3.74670
C          0.83780        6.76970        5.00040
C          0.87540        6.05980        6.29070
O          1.07190        4.87650        6.50100
C          0.56060        7.07240        7.31960
C          0.43660        6.86810        8.69210
C          0.12900        8.00320        9.40330
C         -0.04770        9.25330        8.79700
C          0.07850        9.47190        7.44540
C          0.39720        8.32990        6.70620
C          0.66370        8.17650        5.27980
C          0.86380        9.20750        4.39520
C          1.44470        9.05910        3.12460
N          2.00650        9.04440        2.12150
C          0.64300       10.56820        4.68640
N          0.46890       11.69190        4.84690
C         -0.32630        9.94080       10.11030
C          0.82670       10.77730       10.70460
C          0.45570       10.91880       12.16320
C          0.62400        9.73530       12.73890
C          1.11170        8.77380       11.67920
C          1.94390        9.73170       10.81700
C         -0.12720        8.54660       10.78720
C          0.93000        4.88150        3.35110
C          0.44310        4.28120        2.16920
N         -0.42150        4.83490        1.25480
C         -1.40440        4.01390        0.67650
C         -2.10180        3.09480        1.45860
C         -3.07110        2.28560        0.90080
C         -3.37380        2.39410       -0.45000
S         -4.60460        1.42420       -1.25730
C         -5.61410        0.78780        0.10770
C         -2.67690        3.31030       -1.23560
C         -1.70200        4.10940       -0.68270
C         -0.23800        6.13100        0.74460
C          1.03450        6.58020        0.40440
C          1.21210        7.83930       -0.13080
C          0.11650        8.67510       -0.31920
S          0.23910       10.30380       -0.97110
C          1.99450       10.70640       -0.74510
C         -1.16090        8.21940        0.00610
C         -1.34000        6.95840        0.52810
C          0.86700        2.94150        2.07860
S          0.65510        1.71080        0.88440
C          1.63540        0.59900        1.83680
C          2.10860        1.16760        2.99680
N          2.86590        0.50520        3.94700
C          3.89780       -0.34940        3.54370
C          4.15120       -1.53500        4.23300
C          5.20620       -2.34090        3.86460
C          6.02470       -1.98190        2.79760
S          7.39580       -3.02980        2.42090
C          8.58020       -1.86600        1.68110
C          5.75170       -0.82690        2.07930
C          4.70160       -0.01450        2.45650
C          2.63680        0.79500        5.29840
C          3.67080        0.76770        6.23300
C          3.42790        1.11740        7.54380
C          2.15660        1.51890        7.94550
S          1.93550        1.98080        9.63430
C          0.40570        2.95590        9.55940
C          1.11910        1.52390        7.02470
C          1.35850        1.15480        5.71840
C          1.67310        2.51740        3.12260
S          1.87850        3.74500        4.31160
C          1.71030       -0.74860        1.31650
C          0.65080       -1.62310        1.36700
N         -0.55700       -1.37920        2.02910
C         -0.60810       -1.27950        3.41500
C          0.39460       -1.84050        4.20360
C          0.33980       -1.76310        5.58140
C         -0.72220       -1.12130        6.20190
S         -0.90020       -0.96600        7.95250
C          0.63870       -1.65260        8.61960
C         -1.71890       -0.54280        5.41820
C         -1.66150       -0.61290        4.04410
C         -1.69090       -1.51670        1.21290
C         -2.83580       -2.19600        1.62550
C         -3.86340       -2.42040        0.73330
C         -3.76840       -1.98650       -0.58720
S         -5.12400       -2.35140       -1.66290
C         -4.44930       -2.06260       -3.32180
C         -2.64980       -1.27240       -0.99090
C         -1.63040       -1.03310       -0.09420
C          0.83970       -2.73220        0.50820
S         -0.19350       -4.02080        0.01140
C          0.91710       -4.42370       -1.28100
C          2.02850       -3.58490       -1.31550
N          2.93010       -3.49970       -2.37310
C          2.41070       -3.42490       -3.67230
C          3.05280       -4.03570       -4.74820
C          2.45940       -4.07460       -5.99470
C          1.20410       -3.51450       -6.18510
S          0.31400       -3.60090       -7.70970
C          1.13070       -4.96710       -8.58650
C          0.58940       -2.83740       -5.13440
C          1.18670       -2.78970       -3.89640
C          4.29800       -3.46160       -2.10220
C          4.80230       -4.13350       -0.99000
C          6.15880       -4.16350       -0.73680
C          7.03780       -3.52520       -1.60050
S          8.79580       -3.55790       -1.40400
C          9.06600       -4.99630       -0.32900
C          6.53600       -2.80940       -2.68520
C          5.18200       -2.77030       -2.93190
C          1.99560       -2.65490       -0.25010
S          2.95910       -1.28500        0.19670
C          0.48520       -5.35460       -2.27640
C         -0.89610       -5.57440       -2.47880
N         -1.95390       -5.31060       -1.70300
N         -2.97600       -5.70670       -2.40750
C         -4.30520       -5.69120       -1.87060
C         -4.68960       -7.08040       -1.37240
N         -2.72120       -6.19270       -3.58950
C         -1.38970       -6.12410       -3.69510
C         -0.51560       -6.50000       -4.73870
C          0.82380       -6.53630       -4.36250
C          1.32630       -5.97980       -3.19190
F          1.72620       -6.99760       -5.25740
C         -0.93570       -6.73420       -6.08850
C         -1.84260       -5.96000       -6.73860
C         -2.35010       -4.64430       -6.26370
O         -2.15300       -4.09090       -5.20070
C         -3.09150       -4.07010       -7.39980
C         -3.71480       -2.82520       -7.43590
C         -4.31050       -2.53150       -8.63780
C         -4.27660       -3.40650       -9.73230
C         -3.65770       -4.63290       -9.71330
C         -3.05510       -4.95690       -8.49340
C         -2.31400       -6.14980       -8.10120
C         -2.13150       -7.26760       -8.87100
C         -1.46160       -8.44080       -8.46240
N         -0.94650       -9.43640       -8.21290
C         -2.60410       -7.41560      -10.19200
N         -2.94350       -7.60210      -11.27290
C         -5.07030       -2.46890      -10.60760
C         -6.56680       -2.79260      -10.83990
C         -7.02540       -3.58320       -9.63970
C         -7.06060       -2.75850       -8.60150
C         -6.62670       -1.39540       -9.08100
C         -7.18300       -1.42280      -10.51340
C         -5.11140       -1.49650       -9.38680
H          0.40940        6.87840        2.95280
H          0.58430        5.89330        9.12820
H         -0.06230       10.43750        6.98890
H         -1.29510       10.42900       10.19650
H          1.04950       11.69310       10.16410
H          0.06960       11.82140       12.59910
H          0.40630        9.45170       13.75190
H          1.59520        7.86510       12.02800
H          2.81310       10.11430       11.34920
H          2.25730        9.31220        9.86280
H         -0.96420        8.10450       11.32490
H         -1.88340        3.01570        2.51380
H         -3.58800        1.57740        1.52850
H         -5.05420        0.05460        0.68130
H         -5.94390        1.61510        0.72900
H         -6.46700        0.30510       -0.35920
H         -2.90950        3.38440       -2.28670
H         -1.16370        4.81280       -1.29950
H          1.88540        5.93290        0.55760
H          2.20380        8.15480       -0.40550
H          2.59500       10.21040       -1.50250
H          2.06960       11.78280       -0.86280
H          2.29290       10.41410        0.25720
H         -2.00620        8.87170       -0.14970
H         -2.32850        6.60590        0.78280
H          3.52530       -1.80660        5.06930
H          5.41230       -3.25280        4.40400
H          8.61320       -0.96440        2.28450
H          9.54540       -2.36240        1.69980
H          8.30580       -1.64440        0.65400
H          6.35240       -0.54880        1.22830
H          4.50730        0.89550        1.90830
H          4.66810        0.49120        5.92540
H          4.22910        1.10450        8.26710
H          0.46000        3.61410        8.69650
H         -0.45690        2.29750        9.49950
H          0.36680        3.52790       10.48180
H          0.11820        1.79980        7.30860
H          0.53900        1.14280        5.01640
H          1.21880       -2.35380        3.73010
H          1.12680       -2.21860        6.16070
H          0.59260       -1.48540        9.69130
H          0.69210       -2.71810        8.41470
H          1.48960       -1.12100        8.20270
H         -2.53610       -0.03120        5.90390
H         -2.43160       -0.15090        3.44440
H         -2.90370       -2.57420        2.63420
H         -4.74570       -2.95810        1.04800
H         -4.28000       -0.99950       -3.46900
H         -3.53830       -2.63850       -3.46140
H         -5.21460       -2.41010       -4.00970
H         -2.56200       -0.89520       -1.99600
H         -0.76520       -0.47170       -0.41530
H          4.01000       -4.51410       -4.60310
H          2.97480       -4.57350       -6.79900
H          0.48140       -5.21630       -9.42050
H          2.09840       -4.64840       -8.96230
H          1.23020       -5.81880       -7.91980
H         -0.36940       -2.37130       -5.29460
H          0.69220       -2.27710       -3.08510
H          4.12540       -4.65270       -0.32710
H          6.51650       -4.69200        0.13150
H          8.72470       -4.78720        0.68080
H          8.55250       -5.85700       -0.74650
H         10.13820       -5.16600       -0.32940
H          7.22320       -2.28930       -3.33490
H          4.80030       -2.21150       -3.77280
H         -4.98690       -5.36910       -2.65990
H         -4.31360       -4.97030       -1.05240
H         -4.64010       -7.79750       -2.18810
H         -5.70240       -7.06180       -0.98060
H         -4.01370       -7.39790       -0.58200
H          2.39270       -5.99490       -3.03940
H         -0.41370       -7.51810       -6.62370
H         -3.70760       -2.17660       -6.57340
H         -3.63140       -5.28890      -10.56740
H         -4.57350       -2.12810      -11.51380
H         -6.78970       -3.22370      -11.81210
H         -7.21530       -4.64040       -9.65620
H         -7.28650       -2.98950       -7.57670
H         -6.90510       -0.55390       -8.45170
H         -8.27150       -1.43280      -10.54260
H         -6.80540       -0.61660      -11.14090
H         -4.64440       -0.51960       -9.49650
