166

C         -0.06360        5.57400       -3.66350
C         -1.20970        5.80380       -4.36660
C         -2.54620        5.35160       -3.91990
O         -2.79840        4.68690       -2.93480
C         -3.51220        6.02220       -4.80920
C         -4.89990        5.90940       -4.78060
C         -5.54660        6.66240       -5.73070
C         -4.86510        7.50210       -6.62220
C         -3.49770        7.63270       -6.65640
C         -2.82050        6.85030       -5.71700
C         -1.38900        6.71700       -5.47260
C         -0.37830        7.25980       -6.22420
C         -0.57120        8.12600       -7.31860
N         -0.66190        8.84180       -8.21190
C          0.98940        6.98520       -6.01560
N          2.11500        6.78010       -5.91610
C         -6.14000        7.98990       -7.26400
C         -6.51030        7.42900       -8.65790
C         -5.85540        6.07330       -8.75870
C         -6.49140        5.25530       -7.93130
C         -7.58690        6.04170       -7.25620
C         -7.96430        7.00780       -8.39080
C         -6.89730        7.03510       -6.28780
C          0.18010        4.45630       -2.82380
C          0.04690        3.10460       -3.13700
N         -0.42330        2.58860       -4.34140
C          0.47130        1.83960       -5.11100
C          0.03900        0.76300       -5.88090
C          0.93350        0.03260       -6.63840
C          2.28330        0.35660       -6.63030
S          3.51950       -0.50330       -7.54900
C          2.61950       -1.88210       -8.31380
C          2.72060        1.43390       -5.86140
C          1.82900        2.16950       -5.11580
C         -1.80160        2.55250       -4.60410
C         -2.29000        2.89070       -5.86440
C         -3.64600        2.88110       -6.10350
C         -4.53780        2.52760       -5.09100
S         -6.25460        2.55820       -5.50510
C         -7.09300        2.16880       -3.94340
C         -4.05330        2.17880       -3.83990
C         -2.69240        2.19670       -3.59830
C          0.65440        2.29640       -2.15020
S          0.82010        0.58900       -1.96590
C          1.56710        0.82680       -0.40130
C          1.75370        2.16260       -0.07920
N          2.44570        2.64140        1.01850
C          3.47650        1.89410        1.59910
C          4.34270        1.13850        0.81160
C          5.26300        0.28620        1.38900
C          5.34060        0.17880        2.77070
S          6.41390       -0.94420        3.61180
C          6.89950       -2.11990        2.31900
C          4.54120        1.00020        3.56290
C          3.62570        1.85150        2.98640
C          2.00750        3.82880        1.62270
C          2.93100        4.75240        2.11260
C          2.49700        5.92970        2.67830
C          1.13500        6.21530        2.76170
S          0.69470        7.75930        3.49700
C         -1.05730        7.95470        3.06150
C          0.21280        5.28990        2.29320
C          0.64810        4.10510        1.73170
C          1.21010        2.99470       -1.08940
S          1.05130        4.70020       -1.31610
C          1.91370       -0.30120        0.43140
C          1.62940       -0.29590        1.81380
N          0.96080        0.59170        2.56360
N          1.01150        0.09580        3.76720
C          0.38670        0.76400        4.87470
C          1.35410        0.89030        6.04320
N          1.63820       -1.03560        3.91320
C          2.05950       -1.34240        2.67820
C          2.76240       -2.46510        2.19820
C          2.99610       -2.46460        0.83770
C          2.57950       -1.42580       -0.01660
F          2.92350       -1.51960       -1.31330
F          3.73580       -3.44230        0.28630
C          3.18990       -3.53070        3.10470
C          2.98500       -4.87900        2.80700
F          2.36710       -5.21910        1.66290
C          3.35210       -5.88620        3.67280
C          3.96320       -5.56370        4.88430
C          4.20690       -4.21780        5.18000
C          3.79840       -3.22210        4.32160
C          4.37290       -6.58210        5.82830
C          3.67600       -7.69060        6.16550
C          2.23280       -7.93220        5.86290
O          1.50490       -7.29670        5.13490
C          1.83860       -9.07070        6.71050
C          0.55990       -9.61670        6.81690
C          0.47380      -10.67300        7.69010
C          1.57660      -11.14870        8.41510
C          2.83980      -10.61650        8.32560
C          2.95270       -9.54310        7.43370
C          4.11540       -8.74030        7.07860
C          5.40540       -8.97640        7.46730
C          6.52720       -8.22960        7.04500
N          7.48960       -7.68370        6.73840
C          5.80230      -10.02520        8.32490
N          6.19300      -10.85180        9.01860
C          0.76560      -12.22270        9.09600
C          0.93500      -13.65960        8.55800
C         -0.29360      -14.38140        9.06300
C         -1.33650      -13.93190        8.37680
C         -0.83040      -12.89870        7.39610
C          0.55120      -13.48690        7.08260
C         -0.46220      -11.69330        8.28730
H          0.75430        6.28200       -3.73670
H         -5.38820        5.27240       -4.06070
H         -2.98540        8.28900       -7.34040
H         -6.33220        9.05770       -7.17930
H         -6.32970        8.11290       -9.48290
H         -4.98920        5.87140       -9.36140
H         -6.27290        4.22990       -7.70070
H         -8.38480        5.45600       -6.80780
H         -8.60200        7.83000       -8.06850
H         -8.41860        6.50110       -9.24080
H         -7.59960        7.47660       -5.58280
H         -1.00550        0.48960       -5.88140
H          0.56140       -0.79390       -7.22200
H          2.16300       -2.49720       -7.54390
H          3.36840       -2.45710       -8.84950
H          1.87800       -1.50390       -9.01170
H          3.76860        1.69030       -5.86450
H          2.17980        3.01300       -4.54050
H         -1.59820        3.17090       -6.64520
H         -4.02970        3.16090       -7.07290
H         -8.15500        2.24270       -4.15620
H         -6.81680        2.89350       -3.18300
H         -6.85060        1.15720       -3.63060
H         -4.71710        1.89960       -3.03850
H         -2.31850        1.93540       -2.62060
H          4.28690        1.20800       -0.26450
H          5.91020       -0.29190        0.74940
H          6.01640       -2.49060        1.80800
H          7.59100       -1.65230        1.62420
H          7.39530       -2.93550        2.83610
H          4.63590        0.94320        4.63680
H          2.99070        2.46850        3.60450
H          3.98730        4.54260        2.03600
H          3.20760        6.65110        3.05090
H         -1.18410        7.81830        1.99180
H         -1.66790        7.25450        3.62450
H         -1.31670        8.97140        3.33940
H         -0.84700        5.47360        2.36470
H         -0.07090        3.37800        1.38520
H         -0.48990        0.18340        5.17980
H          0.06260        1.73920        4.50650
H          0.84910        1.34320        6.89150
H          1.71420       -0.09460        6.32770
H          2.20510        1.50920        5.77220
H          3.17230       -6.90960        3.38910
H          4.69160       -3.95770        6.10890
H          3.96470       -2.18660        4.57050
H          5.31240       -6.38530        6.33120
H         -0.26140       -9.21400        6.24520
H          3.67410      -10.98410        8.89920
H          0.73430      -12.17610       10.18270
H          1.89610      -14.11640        8.77640
H         -0.28550      -15.08100        9.87800
H         -2.37360      -14.18080        8.50390
H         -1.47790      -12.66280        6.55590
H          1.20500      -12.81550        6.52880
H          0.48330      -14.44020        6.56140
H         -1.31360      -11.29260        8.83400
