
  xtb     02152216403D
 energy: -286.622944208994 gnorm: 0.000500640481 xtb: 6.4.1 (unknown)
177196  0     0  0            999 V2000
    3.7250    2.8974   -6.4881 C   0  0  0  0  0  0  0  0  0  0  0  0
    3.7614    2.3058   -7.7218 C   0  0  0  0  0  0  0  0  0  0  0  0
    4.8505    2.6112   -8.6804 C   0  0  0  0  0  0  0  0  0  0  0  0
    5.6485    3.5210   -8.6077 O   0  0  0  0  0  0  0  0  0  0  0  0
    4.7748    1.5475   -9.7053 C   0  0  0  0  0  0  0  0  0  0  0  0
    5.6840    1.2810  -10.7255 C   0  0  0  0  0  0  0  0  0  0  0  0
    5.3611    0.1861  -11.4932 C   0  0  0  0  0  0  0  0  0  0  0  0
    4.2121   -0.5840  -11.2735 C   0  0  0  0  0  0  0  0  0  0  0  0
    3.3043   -0.3322  -10.2731 C   0  0  0  0  0  0  0  0  0  0  0  0
    3.6204    0.7695   -9.4784 C   0  0  0  0  0  0  0  0  0  0  0  0
    2.9076    1.3205   -8.3300 C   0  0  0  0  0  0  0  0  0  0  0  0
    1.5714    1.1275   -8.0654 C   0  0  0  0  0  0  0  0  0  0  0  0
    0.8541    1.8269   -7.0784 C   0  0  0  0  0  0  0  0  0  0  0  0
    0.2072    2.3954   -6.3168 N   0  0  0  0  0  0  0  0  0  0  0  0
    0.7302    0.3040   -8.8295 C   0  0  0  0  0  0  0  0  0  0  0  0
   -0.0190   -0.3414   -9.4172 N   0  0  0  0  0  0  0  0  0  0  0  0
    4.5338   -1.5350  -12.3979 C   0  0  0  0  0  0  0  0  0  0  0  0
    5.0954   -2.9264  -12.0176 C   0  0  0  0  0  0  0  0  0  0  0  0
    5.7709   -2.7586  -10.6794 C   0  0  0  0  0  0  0  0  0  0  0  0
    6.8681   -2.0380  -10.8703 C   0  0  0  0  0  0  0  0  0  0  0  0
    6.9540   -1.7063  -12.3401 C   0  0  0  0  0  0  0  0  0  0  0  0
    6.3236   -2.9733  -12.9400 C   0  0  0  0  0  0  0  0  0  0  0  0
    5.8237   -0.6873  -12.6332 C   0  0  0  0  0  0  0  0  0  0  0  0
    3.0810    2.3811   -5.3494 C   0  0  0  0  0  0  0  0  0  0  0  0
    2.5197    3.0527   -4.2540 C   0  0  0  0  0  0  0  0  0  0  0  0
    2.5126    4.4075   -4.0598 N   0  0  0  0  0  0  0  0  0  0  0  0
    1.4052    5.0009   -3.4232 C   0  0  0  0  0  0  0  0  0  0  0  0
    0.1086    4.6270   -3.7771 C   0  0  0  0  0  0  0  0  0  0  0  0
   -0.9667    5.1826   -3.1214 C   0  0  0  0  0  0  0  0  0  0  0  0
   -0.7724    6.1223   -2.1098 C   0  0  0  0  0  0  0  0  0  0  0  0
   -2.2252    6.7471   -1.3288 S   0  0  0  0  0  0  0  0  0  0  0  0
   -1.5877    7.7155    0.0691 C   0  0  0  0  0  0  0  0  0  0  0  0
    0.5174    6.5183   -1.7811 C   0  0  0  0  0  0  0  0  0  0  0  0
    1.5984    5.9576   -2.4331 C   0  0  0  0  0  0  0  0  0  0  0  0
    3.6015    5.2089   -4.4266 C   0  0  0  0  0  0  0  0  0  0  0  0
    4.9106    4.7672   -4.2237 C   0  0  0  0  0  0  0  0  0  0  0  0
    5.9742    5.5621   -4.5864 C   0  0  0  0  0  0  0  0  0  0  0  0
    5.7580    6.8163   -5.1561 C   0  0  0  0  0  0  0  0  0  0  0  0
    7.1933    7.7494   -5.5721 S   0  0  0  0  0  0  0  0  0  0  0  0
    6.5467    9.0980   -6.6015 C   0  0  0  0  0  0  0  0  0  0  0  0
    4.4563    7.2653   -5.3436 C   0  0  0  0  0  0  0  0  0  0  0  0
    3.3890    6.4670   -4.9827 C   0  0  0  0  0  0  0  0  0  0  0  0
    1.8667    2.1424   -3.3900 C   0  0  0  0  0  0  0  0  0  0  0  0
    0.9779    2.3079   -1.9163 S   0  0  0  0  0  0  0  0  0  0  0  0
    0.7784    0.5662   -1.8076 C   0  0  0  0  0  0  0  0  0  0  0  0
    1.4318   -0.1069   -2.8338 C   0  0  0  0  0  0  0  0  0  0  0  0
    1.5756   -1.4787   -2.9653 N   0  0  0  0  0  0  0  0  0  0  0  0
    1.8229   -2.3083   -1.8705 C   0  0  0  0  0  0  0  0  0  0  0  0
    1.4760   -3.6605   -1.9365 C   0  0  0  0  0  0  0  0  0  0  0  0
    1.6658   -4.4830   -0.8498 C   0  0  0  0  0  0  0  0  0  0  0  0
    2.1963   -3.9797    0.3371 C   0  0  0  0  0  0  0  0  0  0  0  0
    2.3359   -5.1177    1.6813 S   0  0  0  0  0  0  0  0  0  0  0  0
    2.9718   -4.1037    3.0460 C   0  0  0  0  0  0  0  0  0  0  0  0
    2.5662   -2.6446    0.4007 C   0  0  0  0  0  0  0  0  0  0  0  0
    2.3866   -1.8219   -0.6941 C   0  0  0  0  0  0  0  0  0  0  0  0
    1.7004   -1.9898   -4.2739 C   0  0  0  0  0  0  0  0  0  0  0  0
    0.7459   -1.6745   -5.2364 C   0  0  0  0  0  0  0  0  0  0  0  0
    0.8717   -2.1415   -6.5305 C   0  0  0  0  0  0  0  0  0  0  0  0
    1.9665   -2.9197   -6.8825 C   0  0  0  0  0  0  0  0  0  0  0  0
    2.2529   -3.5139   -8.5202 S   0  0  0  0  0  0  0  0  0  0  0  0
    0.5990   -3.5063   -9.2727 C   0  0  0  0  0  0  0  0  0  0  0  0
    2.9213   -3.2405   -5.9196 C   0  0  0  0  0  0  0  0  0  0  0  0
    2.7885   -2.7865   -4.6266 C   0  0  0  0  0  0  0  0  0  0  0  0
    2.0057    0.8104   -3.7442 C   0  0  0  0  0  0  0  0  0  0  0  0
    2.8880    0.6285   -5.2142 S   0  0  0  0  0  0  0  0  0  0  0  0
   -0.0217    0.0365   -0.7545 C   0  0  0  0  0  0  0  0  0  0  0  0
   -0.6967   -1.1576   -0.6927 C   0  0  0  0  0  0  0  0  0  0  0  0
   -1.4364   -1.3412    0.4901 C   0  0  0  0  0  0  0  0  0  0  0  0
   -2.2686   -2.5692    0.6978 C   0  0  0  0  0  0  0  0  0  0  0  0
   -1.4058   -3.7632    1.1100 C   0  0  0  0  0  0  0  0  0  0  0  0
   -1.3346   -0.2704    1.3508 C   0  0  0  0  0  0  0  0  0  0  0  0
   -0.3145    0.9729    0.6805 S   0  0  0  0  0  0  0  0  0  0  0  0
   -1.9859   -0.0273    2.6242 C   0  0  0  0  0  0  0  0  0  0  0  0
   -2.2148   -1.0609    3.5282 C   0  0  0  0  0  0  0  0  0  0  0  0
   -2.9030   -0.7790    4.6981 C   0  0  0  0  0  0  0  0  0  0  0  0
   -3.2919   -1.6235    5.7063 N   0  0  0  0  0  0  0  0  0  0  0  0
   -2.9806   -3.0245    5.8223 C   0  0  0  0  0  0  0  0  0  0  0  0
   -1.7826   -3.2614    6.7402 C   0  0  0  0  0  0  0  0  0  0  0  0
   -3.9419   -0.8851    6.6651 C   0  0  0  0  0  0  0  0  0  0  0  0
   -3.9962    0.4739    6.2575 C   0  0  0  0  0  0  0  0  0  0  0  0
   -3.3355    0.5398    4.9951 C   0  0  0  0  0  0  0  0  0  0  0  0
   -3.0638    1.5729    4.1020 C   0  0  0  0  0  0  0  0  0  0  0  0
   -2.4006    1.2826    2.9348 C   0  0  0  0  0  0  0  0  0  0  0  0
   -4.6386    1.4114    7.0642 C   0  0  0  0  0  0  0  0  0  0  0  0
   -5.1955    0.9933    8.2467 C   0  0  0  0  0  0  0  0  0  0  0  0
   -5.1130   -0.3522    8.6741 C   0  0  0  0  0  0  0  0  0  0  0  0
   -4.5009   -1.3050    7.8560 C   0  0  0  0  0  0  0  0  0  0  0  0
   -5.7226   -0.6907    9.9275 C   0  0  0  0  0  0  0  0  0  0  0  0
   -5.4213   -1.6931   10.7981 C   0  0  0  0  0  0  0  0  0  0  0  0
   -4.1821   -2.5122   10.8442 C   0  0  0  0  0  0  0  0  0  0  0  0
   -3.2975   -2.6037   10.0177 O   0  0  0  0  0  0  0  0  0  0  0  0
   -4.1905   -3.1737   12.1628 C   0  0  0  0  0  0  0  0  0  0  0  0
   -3.1961   -4.0031   12.6799 C   0  0  0  0  0  0  0  0  0  0  0  0
   -3.4681   -4.4866   13.9365 C   0  0  0  0  0  0  0  0  0  0  0  0
   -4.6429   -4.1678   14.6320 C   0  0  0  0  0  0  0  0  0  0  0  0
   -5.6307   -3.3526   14.1350 C   0  0  0  0  0  0  0  0  0  0  0  0
   -5.3736   -2.8500   12.8548 C   0  0  0  0  0  0  0  0  0  0  0  0
   -6.1778   -1.9754   12.0101 C   0  0  0  0  0  0  0  0  0  0  0  0
   -7.4578   -1.5669   12.2765 C   0  0  0  0  0  0  0  0  0  0  0  0
   -8.2749   -0.8153   11.4044 C   0  0  0  0  0  0  0  0  0  0  0  0
   -9.0173   -0.2277   10.7541 N   0  0  0  0  0  0  0  0  0  0  0  0
   -8.1656   -1.8769   13.4570 C   0  0  0  0  0  0  0  0  0  0  0  0
   -8.7977   -2.0844   14.3928 N   0  0  0  0  0  0  0  0  0  0  0  0
   -4.2518   -4.9926   15.8325 C   0  0  0  0  0  0  0  0  0  0  0  0
   -3.7245   -4.2187   17.0592 C   0  0  0  0  0  0  0  0  0  0  0  0
   -2.9884   -5.2686   17.8597 C   0  0  0  0  0  0  0  0  0  0  0  0
   -1.8763   -5.5712   17.2022 C   0  0  0  0  0  0  0  0  0  0  0  0
   -1.8418   -4.7305   15.9462 C   0  0  0  0  0  0  0  0  0  0  0  0
   -2.5330   -3.4607   16.4597 C   0  0  0  0  0  0  0  0  0  0  0  0
   -2.9425   -5.3485   15.0577 C   0  0  0  0  0  0  0  0  0  0  0  0
    4.3159    3.8003   -6.3815 H   0  0  0  0  0  0  0  0  0  0  0  0
    6.5577    1.8980  -10.8667 H   0  0  0  0  0  0  0  0  0  0  0  0
    2.4385   -0.9469  -10.0949 H   0  0  0  0  0  0  0  0  0  0  0  0
    3.8041   -1.5844  -13.2038 H   0  0  0  0  0  0  0  0  0  0  0  0
    4.3785   -3.7396  -12.0921 H   0  0  0  0  0  0  0  0  0  0  0  0
    5.3562   -3.1166   -9.7554 H   0  0  0  0  0  0  0  0  0  0  0  0
    7.5611   -1.6745  -10.1341 H   0  0  0  0  0  0  0  0  0  0  0  0
    7.9331   -1.4116  -12.7094 H   0  0  0  0  0  0  0  0  0  0  0  0
    6.9340   -3.8617  -12.7843 H   0  0  0  0  0  0  0  0  0  0  0  0
    6.0771   -2.8766  -13.9967 H   0  0  0  0  0  0  0  0  0  0  0  0
    5.9465   -0.1986  -13.5981 H   0  0  0  0  0  0  0  0  0  0  0  0
   -0.0445    3.9058   -4.5654 H   0  0  0  0  0  0  0  0  0  0  0  0
   -1.9727    4.8958   -3.3855 H   0  0  0  0  0  0  0  0  0  0  0  0
   -0.9499    7.0907    0.6872 H   0  0  0  0  0  0  0  0  0  0  0  0
   -2.4624    8.0238    0.6332 H   0  0  0  0  0  0  0  0  0  0  0  0
   -1.0561    8.5919   -0.2902 H   0  0  0  0  0  0  0  0  0  0  0  0
    0.6976    7.2548   -1.0149 H   0  0  0  0  0  0  0  0  0  0  0  0
    2.6016    6.2569   -2.1668 H   0  0  0  0  0  0  0  0  0  0  0  0
    5.0836    3.7971   -3.7818 H   0  0  0  0  0  0  0  0  0  0  0  0
    6.9867    5.2219   -4.4350 H   0  0  0  0  0  0  0  0  0  0  0  0
    5.9611    9.7872   -5.9996 H   0  0  0  0  0  0  0  0  0  0  0  0
    5.9599    8.6838   -7.4157 H   0  0  0  0  0  0  0  0  0  0  0  0
    7.4197    9.6081   -6.9967 H   0  0  0  0  0  0  0  0  0  0  0  0
    4.2589    8.2331   -5.7751 H   0  0  0  0  0  0  0  0  0  0  0  0
    2.3785    6.8146   -5.1380 H   0  0  0  0  0  0  0  0  0  0  0  0
    1.0468   -4.0572   -2.8445 H   0  0  0  0  0  0  0  0  0  0  0  0
    1.3910   -5.5257   -0.9011 H   0  0  0  0  0  0  0  0  0  0  0  0
    3.0256   -4.7679    3.9030 H   0  0  0  0  0  0  0  0  0  0  0  0
    3.9642   -3.7337    2.8053 H   0  0  0  0  0  0  0  0  0  0  0  0
    2.2859   -3.2873    3.2533 H   0  0  0  0  0  0  0  0  0  0  0  0
    3.0000   -2.2262    1.2943 H   0  0  0  0  0  0  0  0  0  0  0  0
    2.6954   -0.7898   -0.6308 H   0  0  0  0  0  0  0  0  0  0  0  0
   -0.0961   -1.0522   -4.9690 H   0  0  0  0  0  0  0  0  0  0  0  0
    0.1164   -1.8860   -7.2556 H   0  0  0  0  0  0  0  0  0  0  0  0
    0.7030   -4.0412  -10.2116 H   0  0  0  0  0  0  0  0  0  0  0  0
   -0.0916   -4.0308   -8.6194 H   0  0  0  0  0  0  0  0  0  0  0  0
    0.2657   -2.4885   -9.4622 H   0  0  0  0  0  0  0  0  0  0  0  0
    3.7703   -3.8440   -6.2014 H   0  0  0  0  0  0  0  0  0  0  0  0
    3.5294   -3.0364   -3.8818 H   0  0  0  0  0  0  0  0  0  0  0  0
   -0.7022   -1.8722   -1.4951 H   0  0  0  0  0  0  0  0  0  0  0  0
   -2.7692   -2.8098   -0.2432 H   0  0  0  0  0  0  0  0  0  0  0  0
   -3.0375   -2.3774    1.4479 H   0  0  0  0  0  0  0  0  0  0  0  0
   -0.8527   -3.5512    2.0228 H   0  0  0  0  0  0  0  0  0  0  0  0
   -0.6829   -3.9924    0.3310 H   0  0  0  0  0  0  0  0  0  0  0  0
   -2.0263   -4.6406    1.2772 H   0  0  0  0  0  0  0  0  0  0  0  0
   -1.8396   -2.0507    3.3300 H   0  0  0  0  0  0  0  0  0  0  0  0
   -3.8588   -3.5449    6.2161 H   0  0  0  0  0  0  0  0  0  0  0  0
   -2.7767   -3.4141    4.8222 H   0  0  0  0  0  0  0  0  0  0  0  0
   -2.0055   -2.9211    7.7484 H   0  0  0  0  0  0  0  0  0  0  0  0
   -1.5448   -4.3213    6.7738 H   0  0  0  0  0  0  0  0  0  0  0  0
   -0.9142   -2.7189    6.3724 H   0  0  0  0  0  0  0  0  0  0  0  0
   -3.3782    2.5815    4.3219 H   0  0  0  0  0  0  0  0  0  0  0  0
   -2.1985    2.0672    2.2210 H   0  0  0  0  0  0  0  0  0  0  0  0
   -4.7009    2.4443    6.7572 H   0  0  0  0  0  0  0  0  0  0  0  0
   -5.6951    1.7061    8.8862 H   0  0  0  0  0  0  0  0  0  0  0  0
   -4.4927   -2.3418    8.1414 H   0  0  0  0  0  0  0  0  0  0  0  0
   -6.5120   -0.0106   10.2280 H   0  0  0  0  0  0  0  0  0  0  0  0
   -2.3085   -4.2250   12.1082 H   0  0  0  0  0  0  0  0  0  0  0  0
   -6.5270   -3.1154   14.6831 H   0  0  0  0  0  0  0  0  0  0  0  0
   -4.9355   -5.7965   16.0981 H   0  0  0  0  0  0  0  0  0  0  0  0
   -4.4751   -3.6370   17.5872 H   0  0  0  0  0  0  0  0  0  0  0  0
   -3.3674   -5.7089   18.7633 H   0  0  0  0  0  0  0  0  0  0  0  0
   -1.1407   -6.3148   17.4467 H   0  0  0  0  0  0  0  0  0  0  0  0
   -0.8762   -4.6145   15.4614 H   0  0  0  0  0  0  0  0  0  0  0  0
   -2.8041   -2.7551   15.6765 H   0  0  0  0  0  0  0  0  0  0  0  0
   -1.9445   -2.9512   17.2208 H   0  0  0  0  0  0  0  0  0  0  0  0
   -2.7524   -6.3906   14.8075 H   0  0  0  0  0  0  0  0  0  0  0  0
  1  2  2  0  0  0  0
  2  3  1  0  0  0  0
  3  4  2  0  0  0  0
  3  5  1  0  0  0  0
  5  6  2  0  0  0  0
  6  7  1  0  0  0  0
  7  8  2  0  0  0  0
  8  9  1  0  0  0  0
  9 10  2  0  0  0  0
 10 11  1  0  0  0  0
 11 12  2  0  0  0  0
 12 13  1  0  0  0  0
 13 14  3  0  0  0  0
 12 15  1  0  0  0  0
 15 16  3  0  0  0  0
  8 17  1  0  0  0  0
 17 18  1  0  0  0  0
 18 19  1  0  0  0  0
 19 20  2  0  0  0  0
 20 21  1  0  0  0  0
 21 22  1  0  0  0  0
 21 23  1  0  0  0  0
  1 24  1  0  0  0  0
 24 25  2  0  0  0  0
 25 26  1  0  0  0  0
 26 27  1  0  0  0  0
 27 28  2  0  0  0  0
 28 29  1  0  0  0  0
 29 30  2  0  0  0  0
 30 31  1  0  0  0  0
 31 32  1  0  0  0  0
 30 33  1  0  0  0  0
 33 34  2  0  0  0  0
 26 35  1  0  0  0  0
 35 36  2  0  0  0  0
 36 37  1  0  0  0  0
 37 38  2  0  0  0  0
 38 39  1  0  0  0  0
 39 40  1  0  0  0  0
 38 41  1  0  0  0  0
 41 42  2  0  0  0  0
 25 43  1  0  0  0  0
 43 44  1  0  0  0  0
 44 45  1  0  0  0  0
 45 46  2  0  0  0  0
 46 47  1  0  0  0  0
 47 48  1  0  0  0  0
 48 49  2  0  0  0  0
 49 50  1  0  0  0  0
 50 51  2  0  0  0  0
 51 52  1  0  0  0  0
 52 53  1  0  0  0  0
 51 54  1  0  0  0  0
 54 55  2  0  0  0  0
 47 56  1  0  0  0  0
 56 57  2  0  0  0  0
 57 58  1  0  0  0  0
 58 59  2  0  0  0  0
 59 60  1  0  0  0  0
 60 61  1  0  0  0  0
 59 62  1  0  0  0  0
 62 63  2  0  0  0  0
 46 64  1  0  0  0  0
 64 65  1  0  0  0  0
 45 66  1  0  0  0  0
 66 67  2  0  0  0  0
 67 68  1  0  0  0  0
 68 69  1  0  0  0  0
 69 70  1  0  0  0  0
 68 71  2  0  0  0  0
 71 72  1  0  0  0  0
 71 73  1  0  0  0  0
 73 74  2  0  0  0  0
 74 75  1  0  0  0  0
 75 76  1  0  0  0  0
 76 77  1  0  0  0  0
 77 78  1  0  0  0  0
 76 79  1  0  0  0  0
 79 80  2  0  0  0  0
 80 81  1  0  0  0  0
 81 82  1  0  0  0  0
 82 83  2  0  0  0  0
 80 84  1  0  0  0  0
 84 85  2  0  0  0  0
 85 86  1  0  0  0  0
 86 87  2  0  0  0  0
 86 88  1  0  0  0  0
 88 89  2  0  0  0  0
 89 90  1  0  0  0  0
 90 91  2  0  0  0  0
 90 92  1  0  0  0  0
 92 93  2  0  0  0  0
 93 94  1  0  0  0  0
 94 95  2  0  0  0  0
 95 96  1  0  0  0  0
 96 97  2  0  0  0  0
 97 98  1  0  0  0  0
 98 99  2  0  0  0  0
 99100  1  0  0  0  0
100101  3  0  0  0  0
 99102  1  0  0  0  0
102103  3  0  0  0  0
 95104  1  0  0  0  0
104105  1  0  0  0  0
105106  1  0  0  0  0
106107  2  0  0  0  0
107108  1  0  0  0  0
108109  1  0  0  0  0
108110  1  0  0  0  0
 11  2  1  0  0  0  0
 23 17  1  0  0  0  0
 65 24  1  0  0  0  0
 72 66  1  0  0  0  0
 83 73  1  0  0  0  0
 98 89  1  0  0  0  0
110104  1  0  0  0  0
 10  5  1  0  0  0  0
 22 18  1  0  0  0  0
 34 27  1  0  0  0  0
 42 35  1  0  0  0  0
 64 43  2  0  0  0  0
 81 75  2  0  0  0  0
 97 92  1  0  0  0  0
109105  1  0  0  0  0
 23  7  1  0  0  0  0
 55 48  1  0  0  0  0
 63 56  1  0  0  0  0
 87 79  1  0  0  0  0
110 94  1  0  0  0  0
  1111  1  0  0  0  0
  6112  1  0  0  0  0
  9113  1  0  0  0  0
 17114  1  0  0  0  0
 18115  1  0  0  0  0
 19116  1  0  0  0  0
 20117  1  0  0  0  0
 21118  1  0  0  0  0
 22119  1  0  0  0  0
 22120  1  0  0  0  0
 23121  1  0  0  0  0
 28122  1  0  0  0  0
 29123  1  0  0  0  0
 32124  1  0  0  0  0
 32125  1  0  0  0  0
 32126  1  0  0  0  0
 33127  1  0  0  0  0
 34128  1  0  0  0  0
 36129  1  0  0  0  0
 37130  1  0  0  0  0
 40131  1  0  0  0  0
 40132  1  0  0  0  0
 40133  1  0  0  0  0
 41134  1  0  0  0  0
 42135  1  0  0  0  0
 49136  1  0  0  0  0
 50137  1  0  0  0  0
 53138  1  0  0  0  0
 53139  1  0  0  0  0
 53140  1  0  0  0  0
 54141  1  0  0  0  0
 55142  1  0  0  0  0
 57143  1  0  0  0  0
 58144  1  0  0  0  0
 61145  1  0  0  0  0
 61146  1  0  0  0  0
 61147  1  0  0  0  0
 62148  1  0  0  0  0
 63149  1  0  0  0  0
 67150  1  0  0  0  0
 69151  1  0  0  0  0
 69152  1  0  0  0  0
 70153  1  0  0  0  0
 70154  1  0  0  0  0
 70155  1  0  0  0  0
 74156  1  0  0  0  0
 77157  1  0  0  0  0
 77158  1  0  0  0  0
 78159  1  0  0  0  0
 78160  1  0  0  0  0
 78161  1  0  0  0  0
 82162  1  0  0  0  0
 83163  1  0  0  0  0
 84164  1  0  0  0  0
 85165  1  0  0  0  0
 87166  1  0  0  0  0
 88167  1  0  0  0  0
 93168  1  0  0  0  0
 96169  1  0  0  0  0
104170  1  0  0  0  0
105171  1  0  0  0  0
106172  1  0  0  0  0
107173  1  0  0  0  0
108174  1  0  0  0  0
109175  1  0  0  0  0
109176  1  0  0  0  0
110177  1  0  0  0  0
M  END
