
  xtb     02082204523D
 energy: -308.762862018428 gnorm: 0.000427414066 xtb: 6.4.1 (unknown)
186206  0     0  0            999 V2000
    1.0773   -4.8347   -5.6418 C   0  0  0  0  0  0  0  0  0  0  0  0
    0.0809   -5.0831   -4.7270 C   0  0  0  0  0  0  0  0  0  0  0  0
   -0.1347   -4.1854   -3.5714 C   0  0  0  0  0  0  0  0  0  0  0  0
    0.4872   -3.1765   -3.2891 O   0  0  0  0  0  0  0  0  0  0  0  0
   -1.3621   -4.6586   -2.9157 C   0  0  0  0  0  0  0  0  0  0  0  0
   -1.9522   -4.1173   -1.7769 C   0  0  0  0  0  0  0  0  0  0  0  0
   -3.0844   -4.7780   -1.3662 C   0  0  0  0  0  0  0  0  0  0  0  0
   -3.5963   -5.8921   -2.0452 C   0  0  0  0  0  0  0  0  0  0  0  0
   -3.0369   -6.4165   -3.1898 C   0  0  0  0  0  0  0  0  0  0  0  0
   -1.8814   -5.7601   -3.6248 C   0  0  0  0  0  0  0  0  0  0  0  0
   -1.0226   -6.0064   -4.7861 C   0  0  0  0  0  0  0  0  0  0  0  0
   -1.2063   -6.9731   -5.7457 C   0  0  0  0  0  0  0  0  0  0  0  0
   -2.2751   -7.8900   -5.7575 C   0  0  0  0  0  0  0  0  0  0  0  0
   -3.1222   -8.6632   -5.8180 N   0  0  0  0  0  0  0  0  0  0  0  0
   -0.3459   -7.1628   -6.8424 C   0  0  0  0  0  0  0  0  0  0  0  0
    0.3189   -7.3748   -7.7565 N   0  0  0  0  0  0  0  0  0  0  0  0
   -4.7519   -6.0385   -1.0837 C   0  0  0  0  0  0  0  0  0  0  0  0
   -4.6790   -7.1432   -0.0007 C   0  0  0  0  0  0  0  0  0  0  0  0
   -3.2171   -7.3945    0.2729 C   0  0  0  0  0  0  0  0  0  0  0  0
   -2.7335   -6.3335    0.9055 C   0  0  0  0  0  0  0  0  0  0  0  0
   -3.8610   -5.3447    1.0743 C   0  0  0  0  0  0  0  0  0  0  0  0
   -5.0437   -6.3127    1.2413 C   0  0  0  0  0  0  0  0  0  0  0  0
   -4.1827   -4.7912   -0.3356 C   0  0  0  0  0  0  0  0  0  0  0  0
    2.2112   -4.1065   -5.1976 C   0  0  0  0  0  0  0  0  0  0  0  0
    2.6999   -2.8602   -5.6082 C   0  0  0  0  0  0  0  0  0  0  0  0
    2.3244   -2.2253   -6.7631 N   0  0  0  0  0  0  0  0  0  0  0  0
    2.0895   -0.8349   -6.7403 C   0  0  0  0  0  0  0  0  0  0  0  0
    2.5392   -0.0370   -7.7849 C   0  0  0  0  0  0  0  0  0  0  0  0
    2.3219    1.3273   -7.7675 C   0  0  0  0  0  0  0  0  0  0  0  0
    1.6534    1.9097   -6.6983 C   0  0  0  0  0  0  0  0  0  0  0  0
    1.3285    3.6364   -6.5537 S   0  0  0  0  0  0  0  0  0  0  0  0
    2.1040    4.3578   -8.0277 C   0  0  0  0  0  0  0  0  0  0  0  0
    1.1889    1.1065   -5.6573 C   0  0  0  0  0  0  0  0  0  0  0  0
    1.3990   -0.2537   -5.6772 C   0  0  0  0  0  0  0  0  0  0  0  0
    1.9399   -2.9728   -7.8824 C   0  0  0  0  0  0  0  0  0  0  0  0
    2.6100   -4.1517   -8.2075 C   0  0  0  0  0  0  0  0  0  0  0  0
    2.1897   -4.9352   -9.2627 C   0  0  0  0  0  0  0  0  0  0  0  0
    1.0922   -4.5483  -10.0231 C   0  0  0  0  0  0  0  0  0  0  0  0
    0.4566   -5.4991  -11.3603 S   0  0  0  0  0  0  0  0  0  0  0  0
    1.0688   -7.1697  -10.9980 C   0  0  0  0  0  0  0  0  0  0  0  0
    0.4544   -3.3421   -9.7354 C   0  0  0  0  0  0  0  0  0  0  0  0
    0.8677   -2.5644   -8.6776 C   0  0  0  0  0  0  0  0  0  0  0  0
    3.4671   -2.2690   -4.5739 C   0  0  0  0  0  0  0  0  0  0  0  0
    4.0819   -0.6717   -4.2782 S   0  0  0  0  0  0  0  0  0  0  0  0
    4.3604   -1.0650   -2.5855 C   0  0  0  0  0  0  0  0  0  0  0  0
    4.1894   -2.4250   -2.3343 C   0  0  0  0  0  0  0  0  0  0  0  0
    4.4805   -3.0463   -1.1331 N   0  0  0  0  0  0  0  0  0  0  0  0
    3.6587   -4.0972   -0.6974 C   0  0  0  0  0  0  0  0  0  0  0  0
    2.2759   -4.0061   -0.8511 C   0  0  0  0  0  0  0  0  0  0  0  0
    1.4683   -5.0784   -0.5334 C   0  0  0  0  0  0  0  0  0  0  0  0
    2.0322   -6.2534   -0.0593 C   0  0  0  0  0  0  0  0  0  0  0  0
    1.0341   -7.6928    0.2206 S   0  0  0  0  0  0  0  0  0  0  0  0
    0.0443   -7.6846   -1.3080 C   0  0  0  0  0  0  0  0  0  0  0  0
    3.4007   -6.3205    0.1749 C   0  0  0  0  0  0  0  0  0  0  0  0
    4.2105   -5.2503   -0.1413 C   0  0  0  0  0  0  0  0  0  0  0  0
    5.5744   -2.6295   -0.3633 C   0  0  0  0  0  0  0  0  0  0  0  0
    5.4993   -2.6477    1.0299 C   0  0  0  0  0  0  0  0  0  0  0  0
    6.5682   -2.2285    1.7886 C   0  0  0  0  0  0  0  0  0  0  0  0
    7.7355   -1.7740    1.1782 C   0  0  0  0  0  0  0  0  0  0  0  0
    9.0314   -1.2508    2.2562 S   0  0  0  0  0  0  0  0  0  0  0  0
   10.3938   -0.8268    1.1341 C   0  0  0  0  0  0  0  0  0  0  0  0
    7.8147   -1.7549   -0.2077 C   0  0  0  0  0  0  0  0  0  0  0  0
    6.7442   -2.1816   -0.9683 C   0  0  0  0  0  0  0  0  0  0  0  0
    3.6427   -3.0794   -3.4583 C   0  0  0  0  0  0  0  0  0  0  0  0
    2.9123   -4.6235   -3.6694 S   0  0  0  0  0  0  0  0  0  0  0  0
    4.3383   -0.0125   -1.6211 C   0  0  0  0  0  0  0  0  0  0  0  0
    3.7158   -0.2068   -0.4359 C   0  0  0  0  0  0  0  0  0  0  0  0
    3.2447    0.7589    0.4889 C   0  0  0  0  0  0  0  0  0  0  0  0
    2.1841    0.5025    1.3185 C   0  0  0  0  0  0  0  0  0  0  0  0
    1.7028    1.6299    2.0099 C   0  0  0  0  0  0  0  0  0  0  0  0
    0.5495    1.7169    2.8220 C   0  0  0  0  0  0  0  0  0  0  0  0
   -0.4219    0.6517    2.8595 C   0  0  0  0  0  0  0  0  0  0  0  0
   -0.7429   -0.1981    1.8297 C   0  0  0  0  0  0  0  0  0  0  0  0
   -1.7178   -1.1699    2.1047 C   0  0  0  0  0  0  0  0  0  0  0  0
   -2.2271   -1.1310    3.3742 C   0  0  0  0  0  0  0  0  0  0  0  0
   -3.4868   -2.2177    3.9173 S   0  0  0  0  0  0  0  0  0  0  0  0
   -3.6992   -1.7200    5.6600 C   0  0  0  0  0  0  0  0  0  0  0  0
   -2.6160   -2.2873    6.5550 C   0  0  0  0  0  0  0  0  0  0  0  0
   -1.4685    0.2731    4.3797 Se  0  0  0  0  0  2  0  0  0  0  0  0
    0.4000    2.9043    3.5328 C   0  0  0  0  0  0  0  0  0  0  0  0
    1.2716    4.0152    3.3842 C   0  0  0  0  0  0  0  0  0  0  0  0
    2.3248    3.9844    2.4273 C   0  0  0  0  0  0  0  0  0  0  0  0
    3.1248    5.1500    2.1551 C   0  0  0  0  0  0  0  0  0  0  0  0
    2.7215    6.4607    2.1619 C   0  0  0  0  0  0  0  0  0  0  0  0
    3.7196    7.4188    1.9173 C   0  0  0  0  0  0  0  0  0  0  0  0
    4.9720    6.9096    1.7085 C   0  0  0  0  0  0  0  0  0  0  0  0
    6.3567    7.8994    1.3186 S   0  0  0  0  0  0  0  0  0  0  0  0
    7.7346    6.7316    1.5922 C   0  0  0  0  0  0  0  0  0  0  0  0
    7.9869    6.4781    3.0645 C   0  0  0  0  0  0  0  0  0  0  0  0
    4.9653    5.0250    1.7602 Se  0  0  0  0  0  2  0  0  0  0  0  0
    2.5208    2.7673    1.7884 C   0  0  0  0  0  0  0  0  0  0  0  0
    3.7564    2.4277    0.5941 S   0  0  0  0  0  0  0  0  0  0  0  0
    0.9373    5.0384    4.2815 C   0  0  0  0  0  0  0  0  0  0  0  0
   -0.1704    4.7706    5.0682 C   0  0  0  0  0  0  0  0  0  0  0  0
   -0.8435    3.1950    4.7076 S   0  0  0  0  0  0  0  0  0  0  0  0
   -0.6660    5.6935    6.0085 C   0  0  0  0  0  0  0  0  0  0  0  0
   -1.7474    5.6162    6.8428 C   0  0  0  0  0  0  0  0  0  0  0  0
   -2.6627    4.4712    6.9878 C   0  0  0  0  0  0  0  0  0  0  0  0
   -2.6317    3.4075    6.3964 O   0  0  0  0  0  0  0  0  0  0  0  0
   -3.6463    4.8569    8.0124 C   0  0  0  0  0  0  0  0  0  0  0  0
   -4.7093    4.0871    8.4786 C   0  0  0  0  0  0  0  0  0  0  0  0
   -5.4743    4.7112    9.4337 C   0  0  0  0  0  0  0  0  0  0  0  0
   -5.1968    6.0047    9.8962 C   0  0  0  0  0  0  0  0  0  0  0  0
   -4.1480    6.7719    9.4482 C   0  0  0  0  0  0  0  0  0  0  0  0
   -3.3601    6.1588    8.4694 C   0  0  0  0  0  0  0  0  0  0  0  0
   -2.1872    6.6579    7.7540 C   0  0  0  0  0  0  0  0  0  0  0  0
   -1.6329    7.9016    7.9197 C   0  0  0  0  0  0  0  0  0  0  0  0
   -2.1121    8.8778    8.8186 C   0  0  0  0  0  0  0  0  0  0  0  0
   -2.4383    9.7247    9.5222 N   0  0  0  0  0  0  0  0  0  0  0  0
   -0.5158    8.4144    7.2277 C   0  0  0  0  0  0  0  0  0  0  0  0
    0.3793    8.9205    6.7144 N   0  0  0  0  0  0  0  0  0  0  0  0
   -6.3762    6.0075   10.8358 C   0  0  0  0  0  0  0  0  0  0  0  0
   -7.6341    6.8030   10.4073 C   0  0  0  0  0  0  0  0  0  0  0  0
   -7.6245    6.8416    8.8992 C   0  0  0  0  0  0  0  0  0  0  0  0
   -7.8878    5.6177    8.4610 C   0  0  0  0  0  0  0  0  0  0  0  0
   -8.0801    4.7292    9.6653 C   0  0  0  0  0  0  0  0  0  0  0  0
   -8.7114    5.7324   10.6437 C   0  0  0  0  0  0  0  0  0  0  0  0
   -6.6857    4.5666   10.3202 C   0  0  0  0  0  0  0  0  0  0  0  0
    0.9802   -5.1359   -6.6754 H   0  0  0  0  0  0  0  0  0  0  0  0
   -1.5271   -3.2534   -1.2888 H   0  0  0  0  0  0  0  0  0  0  0  0
   -3.4564   -7.2586   -3.7153 H   0  0  0  0  0  0  0  0  0  0  0  0
   -5.7436   -5.9592   -1.5248 H   0  0  0  0  0  0  0  0  0  0  0  0
   -5.2838   -8.0210   -0.2123 H   0  0  0  0  0  0  0  0  0  0  0  0
   -2.6930   -8.2750   -0.0493 H   0  0  0  0  0  0  0  0  0  0  0  0
   -1.7220   -6.1499    1.2190 H   0  0  0  0  0  0  0  0  0  0  0  0
   -3.7250   -4.5834    1.8389 H   0  0  0  0  0  0  0  0  0  0  0  0
   -6.0152   -5.8259    1.1701 H   0  0  0  0  0  0  0  0  0  0  0  0
   -4.9875   -6.8890    2.1633 H   0  0  0  0  0  0  0  0  0  0  0  0
   -4.8013   -3.8966   -0.2949 H   0  0  0  0  0  0  0  0  0  0  0  0
    3.0618   -0.4902   -8.6142 H   0  0  0  0  0  0  0  0  0  0  0  0
    2.6840    1.9216   -8.5903 H   0  0  0  0  0  0  0  0  0  0  0  0
    3.1693    4.1469   -8.0271 H   0  0  0  0  0  0  0  0  0  0  0  0
    1.6245    3.9794   -8.9258 H   0  0  0  0  0  0  0  0  0  0  0  0
    1.9407    5.4280   -7.9473 H   0  0  0  0  0  0  0  0  0  0  0  0
    0.6578    1.5651   -4.8376 H   0  0  0  0  0  0  0  0  0  0  0  0
    1.0264   -0.8757   -4.8764 H   0  0  0  0  0  0  0  0  0  0  0  0
    3.4622   -4.4601   -7.6200 H   0  0  0  0  0  0  0  0  0  0  0  0
    2.7201   -5.8471   -9.4811 H   0  0  0  0  0  0  0  0  0  0  0  0
    2.1245   -7.2465  -11.2423 H   0  0  0  0  0  0  0  0  0  0  0  0
    0.4968   -7.8368  -11.6354 H   0  0  0  0  0  0  0  0  0  0  0  0
    0.8801   -7.3959   -9.9524 H   0  0  0  0  0  0  0  0  0  0  0  0
   -0.3867   -3.0373  -10.3387 H   0  0  0  0  0  0  0  0  0  0  0  0
    0.3451   -1.6495   -8.4420 H   0  0  0  0  0  0  0  0  0  0  0  0
    1.8350   -3.1044   -1.2503 H   0  0  0  0  0  0  0  0  0  0  0  0
    0.4010   -5.0017   -0.6694 H   0  0  0  0  0  0  0  0  0  0  0  0
    0.6838   -7.3968   -2.1373 H   0  0  0  0  0  0  0  0  0  0  0  0
   -0.3132   -8.6998   -1.4476 H   0  0  0  0  0  0  0  0  0  0  0  0
   -0.7987   -7.0067   -1.2136 H   0  0  0  0  0  0  0  0  0  0  0  0
    3.8249   -7.2285    0.5741 H   0  0  0  0  0  0  0  0  0  0  0  0
    5.2784   -5.3124    0.0062 H   0  0  0  0  0  0  0  0  0  0  0  0
    4.5973   -2.9927    1.5131 H   0  0  0  0  0  0  0  0  0  0  0  0
    6.5093   -2.2392    2.8660 H   0  0  0  0  0  0  0  0  0  0  0  0
   11.2189   -0.5346    1.7762 H   0  0  0  0  0  0  0  0  0  0  0  0
   10.6747   -1.6958    0.5464 H   0  0  0  0  0  0  0  0  0  0  0  0
   10.1090    0.0067    0.4987 H   0  0  0  0  0  0  0  0  0  0  0  0
    8.7054   -1.4158   -0.7112 H   0  0  0  0  0  0  0  0  0  0  0  0
    6.8202   -2.1701   -2.0454 H   0  0  0  0  0  0  0  0  0  0  0  0
    4.6403    0.9764   -1.9356 H   0  0  0  0  0  0  0  0  0  0  0  0
    3.3400   -1.1961   -0.2137 H   0  0  0  0  0  0  0  0  0  0  0  0
    1.7653   -0.4816    1.4218 H   0  0  0  0  0  0  0  0  0  0  0  0
   -0.3166   -0.0915    0.8465 H   0  0  0  0  0  0  0  0  0  0  0  0
   -2.0524   -1.8872    1.3747 H   0  0  0  0  0  0  0  0  0  0  0  0
   -3.7111   -0.6261    5.6811 H   0  0  0  0  0  0  0  0  0  0  0  0
   -4.6823   -2.0979    5.9396 H   0  0  0  0  0  0  0  0  0  0  0  0
   -2.6125   -3.3739    6.5075 H   0  0  0  0  0  0  0  0  0  0  0  0
   -2.7904   -1.9796    7.5837 H   0  0  0  0  0  0  0  0  0  0  0  0
   -1.6353   -1.9220    6.2482 H   0  0  0  0  0  0  0  0  0  0  0  0
    1.6913    6.7413    2.3019 H   0  0  0  0  0  0  0  0  0  0  0  0
    3.5212    8.4764    1.8996 H   0  0  0  0  0  0  0  0  0  0  0  0
    7.4862    5.8091    1.0576 H   0  0  0  0  0  0  0  0  0  0  0  0
    8.5949    7.2018    1.1169 H   0  0  0  0  0  0  0  0  0  0  0  0
    8.8288    5.7996    3.1834 H   0  0  0  0  0  0  0  0  0  0  0  0
    7.1118    6.0258    3.5314 H   0  0  0  0  0  0  0  0  0  0  0  0
    8.2107    7.4104    3.5775 H   0  0  0  0  0  0  0  0  0  0  0  0
    1.5000    5.9485    4.3921 H   0  0  0  0  0  0  0  0  0  0  0  0
   -0.0816    6.6049    6.0479 H   0  0  0  0  0  0  0  0  0  0  0  0
   -4.8835    3.0941    8.0945 H   0  0  0  0  0  0  0  0  0  0  0  0
   -3.9502    7.7637    9.8184 H   0  0  0  0  0  0  0  0  0  0  0  0
   -6.1455    6.1332   11.8917 H   0  0  0  0  0  0  0  0  0  0  0  0
   -7.7570    7.7580   10.9108 H   0  0  0  0  0  0  0  0  0  0  0  0
   -7.3783    7.7151    8.3243 H   0  0  0  0  0  0  0  0  0  0  0  0
   -7.9054    5.2641    7.4467 H   0  0  0  0  0  0  0  0  0  0  0  0
   -8.6100    3.7958    9.4937 H   0  0  0  0  0  0  0  0  0  0  0  0
   -8.7478    5.3726   11.6711 H   0  0  0  0  0  0  0  0  0  0  0  0
   -9.7031    6.0570   10.3321 H   0  0  0  0  0  0  0  0  0  0  0  0
   -6.6575    3.7504   11.0396 H   0  0  0  0  0  0  0  0  0  0  0  0
  1  2  2  0  0  0  0
  2  3  1  0  0  0  0
  3  4  2  0  0  0  0
  3  5  1  0  0  0  0
  5  6  2  0  0  0  0
  6  7  1  0  0  0  0
  7  8  2  0  0  0  0
  8  9  1  0  0  0  0
  9 10  2  0  0  0  0
 10 11  1  0  0  0  0
 11 12  2  0  0  0  0
 12 13  1  0  0  0  0
 13 14  3  0  0  0  0
 12 15  1  0  0  0  0
 15 16  3  0  0  0  0
  8 17  1  0  0  0  0
 17 18  1  0  0  0  0
 18 19  1  0  0  0  0
 19 20  2  0  0  0  0
 20 21  1  0  0  0  0
 21 22  1  0  0  0  0
 21 23  1  0  0  0  0
  1 24  1  0  0  0  0
 24 25  2  0  0  0  0
 25 26  1  0  0  0  0
 26 27  1  0  0  0  0
 27 28  2  0  0  0  0
 28 29  1  0  0  0  0
 29 30  2  0  0  0  0
 30 31  1  0  0  0  0
 31 32  1  0  0  0  0
 30 33  1  0  0  0  0
 33 34  2  0  0  0  0
 26 35  1  0  0  0  0
 35 36  2  0  0  0  0
 36 37  1  0  0  0  0
 37 38  2  0  0  0  0
 38 39  1  0  0  0  0
 39 40  1  0  0  0  0
 38 41  1  0  0  0  0
 41 42  2  0  0  0  0
 25 43  1  0  0  0  0
 43 44  1  0  0  0  0
 44 45  1  0  0  0  0
 45 46  2  0  0  0  0
 46 47  1  0  0  0  0
 47 48  1  0  0  0  0
 48 49  2  0  0  0  0
 49 50  1  0  0  0  0
 50 51  2  0  0  0  0
 51 52  1  0  0  0  0
 52 53  1  0  0  0  0
 51 54  1  0  0  0  0
 54 55  2  0  0  0  0
 47 56  1  0  0  0  0
 56 57  2  0  0  0  0
 57 58  1  0  0  0  0
 58 59  2  0  0  0  0
 59 60  1  0  0  0  0
 60 61  1  0  0  0  0
 59 62  1  0  0  0  0
 62 63  2  0  0  0  0
 46 64  1  0  0  0  0
 64 65  1  0  0  0  0
 45 66  1  0  0  0  0
 66 67  2  0  0  0  0
 67 68  1  0  0  0  0
 68 69  2  0  0  0  0
 69 70  1  0  0  0  0
 70 71  2  0  0  0  0
 71 72  1  0  0  0  0
 72 73  2  0  0  0  0
 73 74  1  0  0  0  0
 74 75  2  0  0  0  0
 75 76  1  0  0  0  0
 76 77  1  0  0  0  0
 77 78  1  0  0  0  0
 75 79  1  0  0  0  0
 71 80  1  0  0  0  0
 80 81  2  0  0  0  0
 81 82  1  0  0  0  0
 82 83  1  0  0  0  0
 83 84  2  0  0  0  0
 84 85  1  0  0  0  0
 85 86  2  0  0  0  0
 86 87  1  0  0  0  0
 87 88  1  0  0  0  0
 88 89  1  0  0  0  0
 86 90  1  0  0  0  0
 82 91  2  0  0  0  0
 91 92  1  0  0  0  0
 81 93  1  0  0  0  0
 93 94  2  0  0  0  0
 94 95  1  0  0  0  0
 94 96  1  0  0  0  0
 96 97  2  0  0  0  0
 97 98  1  0  0  0  0
 98 99  2  0  0  0  0
 98100  1  0  0  0  0
100101  2  0  0  0  0
101102  1  0  0  0  0
102103  2  0  0  0  0
103104  1  0  0  0  0
104105  2  0  0  0  0
105106  1  0  0  0  0
106107  2  0  0  0  0
107108  1  0  0  0  0
108109  3  0  0  0  0
107110  1  0  0  0  0
110111  3  0  0  0  0
103112  1  0  0  0  0
112113  1  0  0  0  0
113114  1  0  0  0  0
114115  2  0  0  0  0
115116  1  0  0  0  0
116117  1  0  0  0  0
116118  1  0  0  0  0
 11  2  1  0  0  0  0
 23 17  1  0  0  0  0
 65 24  1  0  0  0  0
 92 68  1  0  0  0  0
106 97  1  0  0  0  0
118112  1  0  0  0  0
 10  5  1  0  0  0  0
 22 18  1  0  0  0  0
 34 27  1  0  0  0  0
 42 35  1  0  0  0  0
 64 43  2  0  0  0  0
 91 70  1  0  0  0  0
105100  1  0  0  0  0
117113  1  0  0  0  0
 23  7  1  0  0  0  0
 55 48  1  0  0  0  0
 63 56  1  0  0  0  0
 79 72  1  0  0  0  0
 95 80  1  0  0  0  0
118102  1  0  0  0  0
 90 83  1  0  0  0  0
  1119  1  0  0  0  0
  6120  1  0  0  0  0
  9121  1  0  0  0  0
 17122  1  0  0  0  0
 18123  1  0  0  0  0
 19124  1  0  0  0  0
 20125  1  0  0  0  0
 21126  1  0  0  0  0
 22127  1  0  0  0  0
 22128  1  0  0  0  0
 23129  1  0  0  0  0
 28130  1  0  0  0  0
 29131  1  0  0  0  0
 32132  1  0  0  0  0
 32133  1  0  0  0  0
 32134  1  0  0  0  0
 33135  1  0  0  0  0
 34136  1  0  0  0  0
 36137  1  0  0  0  0
 37138  1  0  0  0  0
 40139  1  0  0  0  0
 40140  1  0  0  0  0
 40141  1  0  0  0  0
 41142  1  0  0  0  0
 42143  1  0  0  0  0
 49144  1  0  0  0  0
 50145  1  0  0  0  0
 53146  1  0  0  0  0
 53147  1  0  0  0  0
 53148  1  0  0  0  0
 54149  1  0  0  0  0
 55150  1  0  0  0  0
 57151  1  0  0  0  0
 58152  1  0  0  0  0
 61153  1  0  0  0  0
 61154  1  0  0  0  0
 61155  1  0  0  0  0
 62156  1  0  0  0  0
 63157  1  0  0  0  0
 66158  1  0  0  0  0
 67159  1  0  0  0  0
 69160  1  0  0  0  0
 73161  1  0  0  0  0
 74162  1  0  0  0  0
 77163  1  0  0  0  0
 77164  1  0  0  0  0
 78165  1  0  0  0  0
 78166  1  0  0  0  0
 78167  1  0  0  0  0
 84168  1  0  0  0  0
 85169  1  0  0  0  0
 88170  1  0  0  0  0
 88171  1  0  0  0  0
 89172  1  0  0  0  0
 89173  1  0  0  0  0
 89174  1  0  0  0  0
 93175  1  0  0  0  0
 96176  1  0  0  0  0
101177  1  0  0  0  0
104178  1  0  0  0  0
112179  1  0  0  0  0
113180  1  0  0  0  0
114181  1  0  0  0  0
115182  1  0  0  0  0
116183  1  0  0  0  0
117184  1  0  0  0  0
117185  1  0  0  0  0
118186  1  0  0  0  0
M  END
