
  xtb     02052207293D
 energy: -216.459471260543 gnorm: 0.000273190449 xtb: 6.4.1 (unknown)
110127  0     0  0            999 V2000
   -2.1051   -6.2844    3.3106 C   0  0  0  0  0  0  0  0  0  0  0  0
   -1.1309   -7.0365    2.7342 C   0  0  0  0  0  0  0  0  0  0  0  0
   -0.2657   -6.5865    1.6086 C   0  0  0  0  0  0  0  0  0  0  0  0
   -0.2416   -5.5005    1.0708 O   0  0  0  0  0  0  0  0  0  0  0  0
    0.4690   -7.7860    1.1695 C   0  0  0  0  0  0  0  0  0  0  0  0
    1.3948   -7.8560    0.1298 C   0  0  0  0  0  0  0  0  0  0  0  0
    1.9036   -9.1139   -0.0826 C   0  0  0  0  0  0  0  0  0  0  0  0
    1.5128  -10.2269    0.6753 C   0  0  0  0  0  0  0  0  0  0  0  0
    0.6021  -10.1725    1.7030 C   0  0  0  0  0  0  0  0  0  0  0  0
    0.0765   -8.8976    1.9419 C   0  0  0  0  0  0  0  0  0  0  0  0
   -0.8918   -8.4540    2.9389 C   0  0  0  0  0  0  0  0  0  0  0  0
   -1.4135   -9.2165    3.9499 C   0  0  0  0  0  0  0  0  0  0  0  0
   -1.1441  -10.5884    4.1372 C   0  0  0  0  0  0  0  0  0  0  0  0
   -0.9747  -11.7052    4.3431 N   0  0  0  0  0  0  0  0  0  0  0  0
   -2.2655   -8.7337    4.9666 C   0  0  0  0  0  0  0  0  0  0  0  0
   -2.9374   -8.4207    5.8434 N   0  0  0  0  0  0  0  0  0  0  0  0
    2.4023  -11.1667   -0.1002 C   0  0  0  0  0  0  0  0  0  0  0  0
    1.7100  -12.0610   -1.1508 C   0  0  0  0  0  0  0  0  0  0  0  0
    2.8400  -12.4969   -2.0556 C   0  0  0  0  0  0  0  0  0  0  0  0
    3.2154  -11.4429   -2.7690 C   0  0  0  0  0  0  0  0  0  0  0  0
    2.3451  -10.2770   -2.3588 C   0  0  0  0  0  0  0  0  0  0  0  0
    1.0373  -11.0186   -2.0534 C   0  0  0  0  0  0  0  0  0  0  0  0
    2.8422   -9.9250   -0.9404 C   0  0  0  0  0  0  0  0  0  0  0  0
   -2.2058   -4.8637    3.1969 C   0  0  0  0  0  0  0  0  0  0  0  0
   -1.0949   -4.0012    3.1962 C   0  0  0  0  0  0  0  0  0  0  0  0
   -1.2167   -2.5770    2.9458 C   0  0  0  0  0  0  0  0  0  0  0  0
   -0.0190   -1.9792    2.9318 N   0  0  0  0  0  0  0  0  0  0  0  0
    1.1038   -3.0649    3.2553 S   0  0  0  0  0  4  0  0  0  0  0  0
    0.1737   -4.3535    3.4210 N   0  0  0  0  0  0  0  0  0  0  0  0
   -2.4554   -1.9633    2.7058 C   0  0  0  0  0  0  0  0  0  0  0  0
   -3.5732   -2.7991    2.8296 C   0  0  0  0  0  0  0  0  0  0  0  0
   -4.8560   -2.4254    2.7445 N   0  0  0  0  0  0  0  0  0  0  0  0
   -5.7873   -3.7058    2.9337 S   0  0  0  0  0  0  0  0  0  0  0  0
   -4.6495   -4.8138    3.1458 N   0  0  0  0  0  0  0  0  0  0  0  0
   -3.4527   -4.2219    3.0892 C   0  0  0  0  0  0  0  0  0  0  0  0
   -2.5382   -0.5736    2.2966 C   0  0  0  0  0  0  0  0  0  0  0  0
   -1.7615    0.4332    2.9078 C   0  0  0  0  0  0  0  0  0  0  0  0
   -0.9944    0.4033    4.0048 N   0  0  0  0  0  0  0  0  0  0  0  0
   -0.5430    1.6196    4.1126 N   0  0  0  0  0  0  0  0  0  0  0  0
    0.2997    2.0101    5.2063 C   0  0  0  0  0  0  0  0  0  0  0  0
   -0.5462    2.4145    6.4103 C   0  0  0  0  0  0  0  0  0  0  0  0
   -0.9287    2.4777    3.2114 N   0  0  0  0  0  0  0  0  0  0  0  0
   -1.7201    1.7659    2.3982 C   0  0  0  0  0  0  0  0  0  0  0  0
   -2.4597    2.1519    1.2605 C   0  0  0  0  0  0  0  0  0  0  0  0
   -3.2743    1.1674    0.7295 C   0  0  0  0  0  0  0  0  0  0  0  0
   -3.3081   -0.1494    1.2280 C   0  0  0  0  0  0  0  0  0  0  0  0
   -4.0514   -1.0318    0.5434 F   0  0  0  0  0  0  0  0  0  0  0  0
   -3.9961    1.4117   -0.3719 F   0  0  0  0  0  0  0  0  0  0  0  0
   -2.2977    3.4575    0.6493 C   0  0  0  0  0  0  0  0  0  0  0  0
   -3.3641    4.2371    0.1867 C   0  0  0  0  0  0  0  0  0  0  0  0
   -3.1602    5.4884   -0.5189 C   0  0  0  0  0  0  0  0  0  0  0  0
   -4.3224    6.0538   -0.8578 N   0  0  0  0  0  0  0  0  0  0  0  0
   -5.5220    5.1294   -0.3373 S   0  0  0  0  0  4  0  0  0  0  0  0
   -4.6668    3.9711    0.3453 N   0  0  0  0  0  0  0  0  0  0  0  0
   -1.8810    5.9837   -0.8368 C   0  0  0  0  0  0  0  0  0  0  0  0
   -0.8144    5.2310   -0.3073 C   0  0  0  0  0  0  0  0  0  0  0  0
    0.4860    5.5264   -0.4067 N   0  0  0  0  0  0  0  0  0  0  0  0
    1.3401    4.3702    0.3061 S   0  0  0  0  0  0  0  0  0  0  0  0
    0.1399    3.4404    0.7890 N   0  0  0  0  0  0  0  0  0  0  0  0
   -1.0218    3.9971    0.4283 C   0  0  0  0  0  0  0  0  0  0  0  0
   -1.7407    7.1747   -1.6087 C   0  0  0  0  0  0  0  0  0  0  0  0
   -0.7078    7.5729   -2.3934 C   0  0  0  0  0  0  0  0  0  0  0  0
   -0.5941    9.0061   -2.7941 C   0  0  0  0  0  0  0  0  0  0  0  0
   -1.4490    9.8553   -2.6929 O   0  0  0  0  0  0  0  0  0  0  0  0
    0.7897    9.1655   -3.2805 C   0  0  0  0  0  0  0  0  0  0  0  0
    1.4186   10.3482   -3.6645 C   0  0  0  0  0  0  0  0  0  0  0  0
    2.7236   10.1858   -4.0633 C   0  0  0  0  0  0  0  0  0  0  0  0
    3.3677    8.9405   -4.0637 C   0  0  0  0  0  0  0  0  0  0  0  0
    2.7613    7.7657   -3.6891 C   0  0  0  0  0  0  0  0  0  0  0  0
    1.4270    7.9065   -3.2996 C   0  0  0  0  0  0  0  0  0  0  0  0
    0.4611    6.8880   -2.9008 C   0  0  0  0  0  0  0  0  0  0  0  0
    0.5596    5.5511   -3.1812 C   0  0  0  0  0  0  0  0  0  0  0  0
   -0.5003    4.6361   -3.0223 C   0  0  0  0  0  0  0  0  0  0  0  0
   -1.3343    3.8517   -2.9369 N   0  0  0  0  0  0  0  0  0  0  0  0
    1.7059    4.9315   -3.7169 C   0  0  0  0  0  0  0  0  0  0  0  0
    2.6155    4.3603   -4.1232 N   0  0  0  0  0  0  0  0  0  0  0  0
    4.6602    9.5194   -4.5810 C   0  0  0  0  0  0  0  0  0  0  0  0
    4.9969    9.2971   -6.0763 C   0  0  0  0  0  0  0  0  0  0  0  0
    3.6793    9.1247   -6.7908 C   0  0  0  0  0  0  0  0  0  0  0  0
    3.0665   10.3010   -6.7986 C   0  0  0  0  0  0  0  0  0  0  0  0
    3.9586   11.2899   -6.0896 C   0  0  0  0  0  0  0  0  0  0  0  0
    5.3388   10.7394   -6.4828 C   0  0  0  0  0  0  0  0  0  0  0  0
    3.9407   10.9050   -4.5890 C   0  0  0  0  0  0  0  0  0  0  0  0
   -2.9107   -6.7617    3.8544 H   0  0  0  0  0  0  0  0  0  0  0  0
    1.6632   -6.9746   -0.4314 H   0  0  0  0  0  0  0  0  0  0  0  0
    0.3097  -11.0371    2.2751 H   0  0  0  0  0  0  0  0  0  0  0  0
    3.1542  -11.6972    0.4808 H   0  0  0  0  0  0  0  0  0  0  0  0
    1.0830  -12.8462   -0.7376 H   0  0  0  0  0  0  0  0  0  0  0  0
    3.2723  -13.4801   -2.0443 H   0  0  0  0  0  0  0  0  0  0  0  0
    4.0238  -11.3697   -3.4726 H   0  0  0  0  0  0  0  0  0  0  0  0
    2.2965   -9.4366   -3.0460 H   0  0  0  0  0  0  0  0  0  0  0  0
    0.6009  -11.4666   -2.9446 H   0  0  0  0  0  0  0  0  0  0  0  0
    0.2893  -10.4099   -1.5488 H   0  0  0  0  0  0  0  0  0  0  0  0
    3.8881   -9.6246   -0.9176 H   0  0  0  0  0  0  0  0  0  0  0  0
    0.9088    2.8485    4.8650 H   0  0  0  0  0  0  0  0  0  0  0  0
    0.9333    1.1570    5.4548 H   0  0  0  0  0  0  0  0  0  0  0  0
   -1.1675    1.5808    6.7273 H   0  0  0  0  0  0  0  0  0  0  0  0
   -1.1873    3.2543    6.1543 H   0  0  0  0  0  0  0  0  0  0  0  0
    0.0989    2.7046    7.2345 H   0  0  0  0  0  0  0  0  0  0  0  0
   -2.5680    7.8731   -1.5284 H   0  0  0  0  0  0  0  0  0  0  0  0
    0.8913   11.2891   -3.6422 H   0  0  0  0  0  0  0  0  0  0  0  0
    3.2672    6.8143   -3.6855 H   0  0  0  0  0  0  0  0  0  0  0  0
    5.5292    9.3997   -3.9370 H   0  0  0  0  0  0  0  0  0  0  0  0
    5.7466    8.5325   -6.2614 H   0  0  0  0  0  0  0  0  0  0  0  0
    3.3148    8.1820   -7.1545 H   0  0  0  0  0  0  0  0  0  0  0  0
    2.0870   10.5377   -7.1707 H   0  0  0  0  0  0  0  0  0  0  0  0
    3.7636   12.3406   -6.2880 H   0  0  0  0  0  0  0  0  0  0  0  0
    6.1579   11.1698   -5.9082 H   0  0  0  0  0  0  0  0  0  0  0  0
    5.5440   10.8393   -7.5475 H   0  0  0  0  0  0  0  0  0  0  0  0
    4.3423   11.6928   -3.9545 H   0  0  0  0  0  0  0  0  0  0  0  0
  1  2  2  0  0  0  0
  2  3  1  0  0  0  0
  3  4  2  0  0  0  0
  3  5  1  0  0  0  0
  5  6  2  0  0  0  0
  6  7  1  0  0  0  0
  7  8  2  0  0  0  0
  8  9  1  0  0  0  0
  9 10  2  0  0  0  0
 10 11  1  0  0  0  0
 11 12  2  0  0  0  0
 12 13  1  0  0  0  0
 13 14  3  0  0  0  0
 12 15  1  0  0  0  0
 15 16  3  0  0  0  0
  8 17  1  0  0  0  0
 17 18  1  0  0  0  0
 18 19  1  0  0  0  0
 19 20  2  0  0  0  0
 20 21  1  0  0  0  0
 21 22  1  0  0  0  0
 21 23  1  0  0  0  0
  1 24  1  0  0  0  0
 24 25  2  0  0  0  0
 25 26  1  0  0  0  0
 26 27  1  0  0  0  0
 27 28  2  0  0  0  0
 28 29  2  0  0  0  0
 26 30  2  0  0  0  0
 30 31  1  0  0  0  0
 31 32  2  0  0  0  0
 32 33  1  0  0  0  0
 33 34  1  0  0  0  0
 34 35  2  0  0  0  0
 30 36  1  0  0  0  0
 36 37  1  0  0  0  0
 37 38  2  0  0  0  0
 38 39  1  0  0  0  0
 39 40  1  0  0  0  0
 40 41  1  0  0  0  0
 39 42  1  0  0  0  0
 42 43  2  0  0  0  0
 43 44  1  0  0  0  0
 44 45  2  0  0  0  0
 45 46  1  0  0  0  0
 46 47  1  0  0  0  0
 45 48  1  0  0  0  0
 44 49  1  0  0  0  0
 49 50  2  0  0  0  0
 50 51  1  0  0  0  0
 51 52  1  0  0  0  0
 52 53  2  0  0  0  0
 53 54  2  0  0  0  0
 51 55  2  0  0  0  0
 55 56  1  0  0  0  0
 56 57  2  0  0  0  0
 57 58  1  0  0  0  0
 58 59  1  0  0  0  0
 59 60  2  0  0  0  0
 55 61  1  0  0  0  0
 61 62  2  0  0  0  0
 62 63  1  0  0  0  0
 63 64  2  0  0  0  0
 63 65  1  0  0  0  0
 65 66  2  0  0  0  0
 66 67  1  0  0  0  0
 67 68  2  0  0  0  0
 68 69  1  0  0  0  0
 69 70  2  0  0  0  0
 70 71  1  0  0  0  0
 71 72  2  0  0  0  0
 72 73  1  0  0  0  0
 73 74  3  0  0  0  0
 72 75  1  0  0  0  0
 75 76  3  0  0  0  0
 68 77  1  0  0  0  0
 77 78  1  0  0  0  0
 78 79  1  0  0  0  0
 79 80  2  0  0  0  0
 80 81  1  0  0  0  0
 81 82  1  0  0  0  0
 81 83  1  0  0  0  0
 11  2  1  0  0  0  0
 23 17  1  0  0  0  0
 35 24  1  0  0  0  0
 46 36  2  0  0  0  0
 60 49  1  0  0  0  0
 71 62  1  0  0  0  0
 83 77  1  0  0  0  0
 10  5  1  0  0  0  0
 22 18  1  0  0  0  0
 29 25  1  0  0  0  0
 35 31  1  0  0  0  0
 43 37  1  0  0  0  0
 54 50  1  0  0  0  0
 60 56  1  0  0  0  0
 70 65  1  0  0  0  0
 82 78  1  0  0  0  0
 23  7  1  0  0  0  0
 83 67  1  0  0  0  0
  1 84  1  0  0  0  0
  6 85  1  0  0  0  0
  9 86  1  0  0  0  0
 17 87  1  0  0  0  0
 18 88  1  0  0  0  0
 19 89  1  0  0  0  0
 20 90  1  0  0  0  0
 21 91  1  0  0  0  0
 22 92  1  0  0  0  0
 22 93  1  0  0  0  0
 23 94  1  0  0  0  0
 40 95  1  0  0  0  0
 40 96  1  0  0  0  0
 41 97  1  0  0  0  0
 41 98  1  0  0  0  0
 41 99  1  0  0  0  0
 61100  1  0  0  0  0
 66101  1  0  0  0  0
 69102  1  0  0  0  0
 77103  1  0  0  0  0
 78104  1  0  0  0  0
 79105  1  0  0  0  0
 80106  1  0  0  0  0
 81107  1  0  0  0  0
 82108  1  0  0  0  0
 82109  1  0  0  0  0
 83110  1  0  0  0  0
M  END
