190

C         -0.97290       -2.17310       -8.14500
C         -0.54580       -3.35110       -8.65820
C          0.52190       -4.22190       -8.09250
O          1.30750       -3.95660       -7.20980
C          0.39500       -5.51040       -8.79580
C          1.13490       -6.66480       -8.54940
C          0.76520       -7.74100       -9.31740
C         -0.26540       -7.67670      -10.26630
C         -0.99470       -6.54330      -10.52850
C         -0.63620       -5.43340       -9.75350
C         -1.20020       -4.09090       -9.72950
C         -2.15730       -3.60380      -10.57920
C         -2.75550       -4.34840      -11.61810
N         -3.28990       -4.89210      -12.47660
C         -2.68360       -2.29390      -10.56110
N         -3.17240       -1.25660      -10.62770
C         -0.11690       -9.12980      -10.64310
C         -1.16960      -10.09850      -10.06320
C         -0.51780      -11.45680      -10.18680
C          0.46100      -11.51740       -9.29280
C          0.48650      -10.20140       -8.54990
C         -1.01050       -9.86550       -8.55490
C          1.03430       -9.19980       -9.58930
C         -0.43450       -1.46460       -7.01610
C          0.90690       -1.32340       -6.68830
F          1.86060       -1.58950       -7.58250
C          1.29700       -0.80460       -5.44790
F          2.60740       -0.79400       -5.14810
C          0.39210       -0.28630       -4.53620
C         -0.96510       -0.19700       -4.95540
N         -1.85980        0.43590       -4.18380
C         -3.12000        0.46170       -4.54670
C         -4.04940        1.21670       -3.64870
C         -4.69820        0.28040       -2.62670
C         -3.54790       -0.23960       -5.70840
N         -2.68110       -0.86990       -6.46560
C         -1.37570       -0.83180       -6.14960
C         -4.96710       -0.27140       -6.18680
C         -5.17770        0.81880       -7.24170
C          0.77530        0.09280       -3.20170
C          1.56360       -0.65550       -2.33870
N          1.98420       -1.95270       -2.56710
C          3.21670       -2.35010       -2.02380
C          3.36000       -3.58580       -1.40190
C          4.56900       -3.95540       -0.84560
C          5.65220       -3.08730       -0.89410
S          7.24000       -3.44450       -0.21550
C          6.99930       -5.01660        0.66090
C          5.51230       -1.85090       -1.52240
C          4.31040       -1.48610       -2.08410
C          1.17030       -2.85560       -3.25900
C         -0.22070       -2.73880       -3.21530
C         -1.02270       -3.53200       -4.00820
C         -0.45210       -4.50060       -4.82270
S         -1.38740       -5.48120       -5.95850
C         -2.91710       -4.52430       -6.17920
C          0.92170       -4.71550       -4.76600
C          1.72730       -3.88640       -4.01470
C          1.75560        0.03400       -1.11540
S          2.66930       -0.28390        0.31340
C          2.05230        1.18110        1.05020
C          1.22320        1.90190        0.20640
N          0.67810        3.14760        0.47150
C         -0.62610        3.40980        0.04210
C         -1.57760        2.38890        0.00310
C         -2.85540        2.64730       -0.43810
C         -3.21480        3.92720       -0.85420
S         -4.87900        4.13080       -1.41730
C         -4.91530        5.82210       -2.07180
C         -2.27810        4.95020       -0.79990
C         -0.99560        4.69120       -0.35640
C          1.34340        4.03370        1.32870
C          0.64940        4.75360        2.30220
C          1.33740        5.47310        3.25250
C          2.73090        5.50260        3.25230
S          3.50490        6.30640        4.61830
C          5.27590        6.01570        4.35360
C          3.41910        4.88660        2.21510
C          2.72850        4.16320        1.26320
C          1.06240        1.23220       -1.03340
S          0.14500        1.54850       -2.46750
C          2.44930        1.54640        2.39230
C          3.77230        1.54610        2.79410
F          4.73490        1.17250        1.93420
C          4.16290        2.00340        4.05690
F          5.47420        2.02490        4.35010
C          3.25110        2.43480        5.00020
C          1.87610        2.41850        4.62900
N          0.95400        2.88420        5.48400
C         -0.31370        2.81320        5.17370
C         -1.27110        3.37580        6.18060
C         -1.57470        4.84420        5.87500
C         -0.71900        2.25720        3.92620
N          0.17320        1.87490        3.04780
C          1.47920        1.95660        3.35170
C         -2.15410        2.06060        3.54300
C         -2.60890        0.65310        3.93680
C          3.65120        2.98430        6.27220
C          2.95800        2.76810        7.41160
C          1.94880        1.68200        7.58390
O          1.76840        0.71970        6.86980
C          1.34120        1.91770        8.90620
C          0.29800        1.19790        9.48520
C         -0.03180        1.60760       10.75400
C          0.62790        2.66100       11.40350
C          1.66030        3.37620       10.84780
C          2.01770        2.97060        9.55670
C          3.06430        3.47960        8.67630
C          3.95950        4.46790        8.98290
C          4.02400        5.13400       10.22620
N          4.13790        5.71420       11.21020
C          4.96570        4.95620        8.12280
N          5.81120        5.41440        7.49540
C         -0.20490        2.51780       12.65270
C          0.44560        1.82200       13.87390
C          1.50230        0.89500       13.32600
C          0.88430       -0.10490       12.71150
C         -0.60170        0.12760       12.83360
C         -0.65680        0.80560       14.21190
C         -0.93590        1.34180       11.93120
H         -1.90570       -1.75510       -8.50220
H          1.92100       -6.67170       -7.81110
H         -1.78390       -6.50920      -11.26090
H          0.11750       -9.33040      -11.68670
H         -2.16550       -9.99360      -10.48500
H         -0.78980      -12.18800      -10.92520
H          1.16950      -12.30960       -9.13560
H          0.99890      -10.18920       -7.59180
H         -1.59220      -10.57330       -7.96660
H         -1.23790       -8.85110       -8.23220
H          2.03850       -9.44490       -9.92970
H         -3.46230        1.96530       -3.11620
H         -4.82080        1.71950       -4.23160
H         -3.93070       -0.19630       -2.02150
H         -5.35890        0.84980       -1.97760
H         -5.28010       -0.49800       -3.11620
H         -5.15230       -1.24330       -6.64700
H         -5.66260       -0.13000       -5.36100
H         -4.51660        0.64880       -8.08740
H         -4.96760        1.80300       -6.82790
H         -6.20550        0.80150       -7.59440
H          2.51710       -4.25930       -1.34980
H          4.64830       -4.92010       -0.37130
H          6.77390       -5.81040       -0.04550
H          6.21200       -4.90860        1.40110
H          7.94390       -5.22240        1.15460
H          6.36020       -1.18540       -1.56560
H          4.21020       -0.53600       -2.58600
H         -0.68070       -2.00350       -2.57180
H         -2.09190       -3.39100       -3.97640
H         -3.55370       -4.62420       -5.30460
H         -2.67730       -3.48240       -6.37540
H         -3.41400       -4.96000       -7.04090
H          1.35680       -5.51690       -5.33920
H          2.79780       -4.01610       -4.03670
H         -1.30610        1.39750        0.33160
H         -3.59420        1.86200       -0.45630
H         -5.90070        5.94610       -2.51030
H         -4.15280        5.93620       -2.83660
H         -4.77930        6.53900       -1.26710
H         -2.52890        5.95340       -1.10460
H         -0.26900        5.48930       -0.32240
H         -0.42900        4.70730        2.33360
H          0.80450        5.99960        4.02880
H          5.46220        4.95630        4.20680
H          5.76290        6.34670        5.26620
H          5.62650        6.59870        3.50690
H          4.49240        4.95240        2.14160
H          3.27280        3.66750        0.47300
H         -2.19480        2.79690        6.19320
H         -0.80210        3.30720        7.16370
H         -1.99250        4.95710        4.87670
H         -2.28690        5.23710        6.59630
H         -0.66100        5.42990        5.93540
H         -2.23740        2.17340        2.46100
H         -2.78930        2.80440        4.02270
H         -3.64570        0.49990        3.64760
H         -1.99150       -0.08850        3.43650
H         -2.51990        0.50370        5.01090
H          4.51260        3.63830        6.26420
H         -0.18080        0.39300        8.94930
H          2.15950        4.17930       11.36350
H         -0.79430        3.38760       12.93560
H          0.76270        2.49860       14.66270
H          2.55750        1.08550       13.39040
H          1.32020       -0.91660       12.15910
H         -1.23750       -0.73990       12.67640
H         -1.61930        1.26560       14.43150
H         -0.37630        0.13470       15.02230
H         -2.00430        1.43980       11.74780
