189

C         -5.90650       -4.39510        1.38030
C         -6.69230       -4.51220        2.50560
C         -6.92060       -3.42700        3.47460
O         -6.44860       -2.30520        3.44780
C         -7.94330       -3.93580        4.41310
C         -8.47670       -3.27490        5.51490
C         -9.37040       -4.02620        6.24180
C         -9.71620       -5.33690        5.89170
C         -9.21460       -5.99360        4.79290
C         -8.30120       -5.24770        4.04620
C         -7.52900       -5.62320        2.86530
C         -7.46710       -6.87710        2.30730
C         -8.23880       -7.97920        2.71810
N         -8.81980       -8.93000        3.00070
C         -6.54490       -7.24690        1.30850
N         -5.78350       -7.63950        0.54250
C        -10.64100       -5.49430        7.07150
C        -10.12830       -6.30660        8.28610
C         -8.62410       -6.18780        8.28810
C         -8.31860       -4.94190        8.62600
C         -9.60950       -4.19450        8.84940
C        -10.48030       -5.32670        9.41710
C        -10.26670       -4.02830        7.45690
C         -4.79690       -3.55400        1.23500
C         -3.92230       -3.00180        2.18940
N         -3.93360       -3.18740        3.54890
C         -4.37070       -4.37050        4.14510
C         -5.03570       -4.33760        5.37410
C         -5.52780       -5.49650        5.92970
C         -5.36870       -6.71960        5.27940
S         -6.11660       -8.11860        6.04110
C         -5.69140       -9.50640        4.95450
C         -4.65580       -6.76650        4.08640
C         -4.16460       -5.60420        3.52880
C         -3.46040       -2.13370        4.35590
C         -3.85430       -0.82590        4.08790
C         -3.37930        0.22070        4.85140
C         -2.50570       -0.02930        5.90180
S         -1.81840        1.23830        6.92270
C         -2.93450        2.64900        6.65660
C         -2.11940       -1.33880        6.17950
C         -2.59100       -2.38390        5.41520
C         -2.89110       -2.26990        1.55560
S         -1.50540       -1.42300        2.15990
C         -0.97290       -1.13460        0.53010
C         -1.86670       -1.57000       -0.43270
N         -1.75130       -1.18690       -1.75820
C         -2.10650       -2.03060       -2.80620
C         -2.03300       -3.41640       -2.65740
C         -2.42360       -4.24470       -3.68480
C         -2.87940       -3.71330       -4.88930
S         -3.35060       -4.87500       -6.13450
C         -4.07140       -3.84290       -7.44340
C         -2.92520       -2.33560       -5.05190
C         -2.54850       -1.50300       -4.01660
C         -1.31100        0.13840       -1.96860
C         -1.90180        1.16910       -1.23590
C         -1.39850        2.44670       -1.30210
C         -0.28700        2.72570       -2.09560
S          0.31150        4.38500       -2.03420
C          1.94130        4.28470       -2.81400
C          0.26680        1.71630       -2.87240
C         -0.24810        0.43330       -2.81450
C         -2.94470       -2.26650        0.16740
S         -4.28010       -3.18460       -0.41970
C          0.28860       -0.47300        0.26290
C          1.22280       -1.02560       -0.58900
F          0.98460       -2.22380       -1.15000
C          2.44640       -0.39670       -0.86740
F          3.34480       -1.06460       -1.60770
C          2.74650        0.84580       -0.35930
C          1.77080        1.47440        0.45930
N          1.96130        2.74070        0.85840
C          1.09610        3.29560        1.66860
C          1.38940        4.71380        2.04690
C          2.46700        4.73880        3.13480
C         -0.00400        2.54370        2.17420
N         -0.25070        1.33930        1.72290
C          0.59190        0.78740        0.83690
C         -0.96870        3.06420        3.19510
C         -2.16540        3.71870        2.50040
C          3.98180        1.57090       -0.67130
C          4.78630        2.15720        0.28350
O          4.66650        2.01340        1.62610
C          4.36830        0.74950        2.19640
C          5.31250       -0.35030        1.72730
C          5.87710        3.03550       -0.08360
O          6.46690        3.57190        0.99500
C          7.27140        4.73880        0.94220
C          7.02180        5.52510        2.22150
C          6.20090        3.28050       -1.40910
C          5.41950        2.62320       -2.39630
C          4.31670        1.78370       -2.03010
N          3.69160        1.28510       -3.09310
S          4.45260        1.78320       -4.42180
N          5.59680        2.66960       -3.71250
C          7.34050        4.05770       -1.85510
C          7.31660        4.90270       -2.90800
C          6.09720        5.33670       -3.64480
O          4.95310        5.32690       -3.24680
C          6.59490        5.90440       -4.91140
C          5.83750        6.30540       -6.00940
C          6.58150        6.79270       -7.05670
C          7.98000        6.89050       -7.01370
C          8.74000        6.51400       -5.93340
C          8.00190        6.00500       -4.86000
C          8.46220        5.50960       -3.56930
C          9.71910        5.64840       -3.04660
C         10.79860        6.26400       -3.71480
N         11.71540        6.75050       -4.20470
C         10.07770        5.25490       -1.74030
N         10.41210        4.98060       -0.67620
C          8.06380        7.44880       -8.41170
C          8.51330        6.48990       -9.54190
C          8.13840        5.09780       -9.09720
C          6.81620        5.00200       -9.13800
C          6.27290        6.32750       -9.61190
C          7.39890        6.75610      -10.56640
C          6.50730        7.33760       -8.46080
H         -6.15350       -4.99440        0.51170
H         -8.17940       -2.26550        5.75450
H         -9.49910       -6.99830        4.52780
H        -11.68200       -5.71150        6.83970
H        -10.52690       -7.31510        8.35400
H         -7.96210       -6.98270        7.99690
H         -7.34860       -4.48280        8.68610
H         -9.54040       -3.27780        9.42960
H        -10.14050       -5.66970       10.39330
H        -11.53990       -5.07860        9.46260
H        -11.06290       -3.28600        7.45950
H         -5.18150       -3.39220        5.87380
H         -6.06870       -5.46850        6.86210
H         -6.13150       -9.36300        3.97210
H         -4.61240       -9.61570        4.89710
H         -6.12780      -10.38340        5.42220
H         -4.48550       -7.69840        3.57190
H         -3.62080       -5.65660        2.59760
H         -4.55610       -0.64210        3.29020
H         -3.70070        1.22340        4.62030
H         -2.67680        3.37440        7.42200
H         -2.77440        3.08150        5.67370
H         -3.96310        2.32590        6.78300
H         -1.44140       -1.52430        6.99830
H         -2.28700       -3.39720        5.63190
H         -1.65120       -3.83740       -1.74060
H         -2.37390       -5.31620       -3.56910
H         -4.45250       -4.53710       -8.18580
H         -4.88670       -3.25060       -7.03850
H         -3.30730       -3.21220       -7.88890
H         -3.25990       -1.89320       -5.97640
H         -2.60230       -0.43180       -4.14440
H         -2.74380        0.95150       -0.59570
H         -1.84760        3.24430       -0.73040
H          2.52790        3.53020       -2.30190
H          1.84090        4.06270       -3.87260
H          2.41010        5.25470       -2.68720
H          1.11840        1.90290       -3.50590
H          0.19720       -0.35130       -3.40790
H          0.49040        5.22460        2.38900
H          1.76920        5.22340        1.16030
H          2.72770        5.76530        3.38080
H          3.35560        4.22060        2.78210
H          2.11550        4.24410        4.03840
H         -0.47840        3.77720        3.85820
H         -1.31470        2.21050        3.78040
H         -2.86380        4.11580        3.23410
H         -2.68120        2.98280        1.88860
H         -1.84140        4.53510        1.85810
H          4.49320        0.92260        3.26880
H          3.32730        0.45790        2.01460
H          6.34440       -0.05500        1.90180
H          5.18240       -0.54980        0.66590
H          5.10700       -1.26290        2.27950
H          7.00830        5.34120        0.06460
H          8.33050        4.46200        0.87740
H          5.97850        5.82380        2.28150
H          7.65150        6.40970        2.23460
H          7.25560        4.90750        3.08380
H          8.28420        3.84030       -1.37390
H          4.76230        6.21850       -6.00240
H          9.81440        6.59250       -5.91210
H          8.50830        8.43750       -8.50450
H          9.53980        6.62920       -9.86990
H          8.84740        4.36700       -8.75490
H          6.20040        4.17530       -8.83540
H          5.25980        6.31850      -10.00520
H          7.33330        7.79840      -10.87520
H          7.47280        6.11620      -11.44430
H          5.93380        8.25350       -8.58900
