
  xtb     02122213543D
 energy: -358.429797786748 gnorm: 0.000569085655 xtb: 6.4.1 (unknown)
207228  0     0  0            999 V2000
   -3.0265    1.2335   -5.6094 C   0  0  0  0  0  0  0  0  0  0  0  0
   -3.1837    2.4259   -6.2722 C   0  0  0  0  0  0  0  0  0  0  0  0
   -2.6298    3.7209   -5.8670 C   0  0  0  0  0  0  0  0  0  0  0  0
   -2.1677    4.0252   -4.7806 O   0  0  0  0  0  0  0  0  0  0  0  0
   -2.7331    4.5978   -7.0472 C   0  0  0  0  0  0  0  0  0  0  0  0
   -2.2772    5.9088   -7.1627 C   0  0  0  0  0  0  0  0  0  0  0  0
   -2.4952    6.4700   -8.3984 C   0  0  0  0  0  0  0  0  0  0  0  0
   -3.1242    5.7797   -9.4422 C   0  0  0  0  0  0  0  0  0  0  0  0
   -3.5813    4.4864   -9.3406 C   0  0  0  0  0  0  0  0  0  0  0  0
   -3.3670    3.8951   -8.0922 C   0  0  0  0  0  0  0  0  0  0  0  0
   -3.7153    2.5588   -7.6094 C   0  0  0  0  0  0  0  0  0  0  0  0
   -4.4165    1.6116   -8.3157 C   0  0  0  0  0  0  0  0  0  0  0  0
   -4.8853    0.3934   -7.7874 C   0  0  0  0  0  0  0  0  0  0  0  0
   -5.3294   -0.6015   -7.4213 N   0  0  0  0  0  0  0  0  0  0  0  0
   -4.7860    1.7409   -9.6691 C   0  0  0  0  0  0  0  0  0  0  0  0
   -5.0787    1.7706  -10.7793 N   0  0  0  0  0  0  0  0  0  0  0  0
   -3.0154    6.9490  -10.3891 C   0  0  0  0  0  0  0  0  0  0  0  0
   -4.2990    7.7749  -10.6177 C   0  0  0  0  0  0  0  0  0  0  0  0
   -3.7905    9.0845  -11.1762 C   0  0  0  0  0  0  0  0  0  0  0  0
   -3.1919    9.7389  -10.1893 C   0  0  0  0  0  0  0  0  0  0  0  0
   -3.2859    8.8827   -8.9469 C   0  0  0  0  0  0  0  0  0  0  0  0
   -4.6453    8.2142   -9.1892 C   0  0  0  0  0  0  0  0  0  0  0  0
   -2.3118    7.7186   -9.2254 C   0  0  0  0  0  0  0  0  0  0  0  0
   -2.3512    0.9447   -4.4198 C   0  0  0  0  0  0  0  0  0  0  0  0
   -1.9773   -0.3671   -4.0328 C   0  0  0  0  0  0  0  0  0  0  0  0
   -2.0738   -1.4866   -4.8227 N   0  0  0  0  0  0  0  0  0  0  0  0
   -1.9559   -1.4085   -6.2244 C   0  0  0  0  0  0  0  0  0  0  0  0
   -2.7823   -2.1753   -7.0453 C   0  0  0  0  0  0  0  0  0  0  0  0
   -2.7313   -2.0214   -8.4133 C   0  0  0  0  0  0  0  0  0  0  0  0
   -1.8699   -1.0906   -8.9885 C   0  0  0  0  0  0  0  0  0  0  0  0
   -1.9529   -0.8916  -10.7394 S   0  0  0  0  0  0  0  0  0  0  0  0
   -1.2624    0.7691  -10.9957 C   0  0  0  0  0  0  0  0  0  0  0  0
   -0.9942   -0.3776   -8.1766 C   0  0  0  0  0  0  0  0  0  0  0  0
   -1.0289   -0.5464   -6.8078 C   0  0  0  0  0  0  0  0  0  0  0  0
   -2.2595   -2.7454   -4.2279 C   0  0  0  0  0  0  0  0  0  0  0  0
   -3.0708   -2.8901   -3.1018 C   0  0  0  0  0  0  0  0  0  0  0  0
   -3.2453   -4.1294   -2.5283 C   0  0  0  0  0  0  0  0  0  0  0  0
   -2.6376   -5.2567   -3.0772 C   0  0  0  0  0  0  0  0  0  0  0  0
   -2.9367   -6.7890   -2.2620 S   0  0  0  0  0  0  0  0  0  0  0  0
   -2.2300   -8.0313   -3.3815 C   0  0  0  0  0  0  0  0  0  0  0  0
   -1.8490   -5.1211   -4.2125 C   0  0  0  0  0  0  0  0  0  0  0  0
   -1.6540   -3.8748   -4.7722 C   0  0  0  0  0  0  0  0  0  0  0  0
   -1.4359   -0.3627   -2.7363 C   0  0  0  0  0  0  0  0  0  0  0  0
   -0.7527   -1.5518   -1.6759 S   0  0  0  0  0  0  0  0  0  0  0  0
   -0.4311   -0.3327   -0.4280 C   0  0  0  0  0  0  0  0  0  0  0  0
   -0.7951    0.9338   -0.8667 C   0  0  0  0  0  0  0  0  0  0  0  0
   -0.7405    2.1670   -0.1933 N   0  0  0  0  0  0  0  0  0  0  0  0
    0.4692    2.8467   -0.0819 C   0  0  0  0  0  0  0  0  0  0  0  0
    1.6222    2.3451   -0.6855 C   0  0  0  0  0  0  0  0  0  0  0  0
    2.8476    2.9646   -0.5260 C   0  0  0  0  0  0  0  0  0  0  0  0
    2.9536    4.1115    0.2452 C   0  0  0  0  0  0  0  0  0  0  0  0
    4.4569    4.9733    0.5789 S   0  0  0  0  0  0  0  0  0  0  0  0
    5.7249    4.0236   -0.3015 C   0  0  0  0  0  0  0  0  0  0  0  0
    1.8015    4.6433    0.8172 C   0  0  0  0  0  0  0  0  0  0  0  0
    0.5810    4.0309    0.6522 C   0  0  0  0  0  0  0  0  0  0  0  0
   -2.0067    2.7628   -0.0625 C   0  0  0  0  0  0  0  0  0  0  0  0
   -2.2572    4.1146   -0.2841 C   0  0  0  0  0  0  0  0  0  0  0  0
   -3.5182    4.6397   -0.0809 C   0  0  0  0  0  0  0  0  0  0  0  0
   -4.5692    3.8185    0.3028 C   0  0  0  0  0  0  0  0  0  0  0  0
   -6.2054    4.4059    0.6136 S   0  0  0  0  0  0  0  0  0  0  0  0
   -5.9187    6.1311    1.0999 C   0  0  0  0  0  0  0  0  0  0  0  0
   -4.3488    2.4504    0.4215 C   0  0  0  0  0  0  0  0  0  0  0  0
   -3.0860    1.9329    0.2543 C   0  0  0  0  0  0  0  0  0  0  0  0
   -1.3756    0.8957   -2.1564 C   0  0  0  0  0  0  0  0  0  0  0  0
   -1.9214    2.1501   -3.2072 S   0  0  0  0  0  0  0  0  0  0  0  0
    0.1202   -0.8642    0.7740 C   0  0  0  0  0  0  0  0  0  0  0  0
    0.6062   -0.3247    1.9613 C   0  0  0  0  0  0  0  0  0  0  0  0
    0.6627    1.0148    2.3790 N   0  0  0  0  0  0  0  0  0  0  0  0
    1.9692    1.4371    2.6793 C   0  0  0  0  0  0  0  0  0  0  0  0
    2.3031    2.2003    3.7947 C   0  0  0  0  0  0  0  0  0  0  0  0
    3.6009    2.6302    3.9921 C   0  0  0  0  0  0  0  0  0  0  0  0
    4.6044    2.2693    3.1040 C   0  0  0  0  0  0  0  0  0  0  0  0
    6.2816    2.8004    3.2515 S   0  0  0  0  0  0  0  0  0  0  0  0
    6.1280    4.3429    4.1957 C   0  0  0  0  0  0  0  0  0  0  0  0
    4.2965    1.4175    2.0482 C   0  0  0  0  0  0  0  0  0  0  0  0
    2.9987    1.0184    1.8320 C   0  0  0  0  0  0  0  0  0  0  0  0
   -0.4951    1.6524    2.8215 C   0  0  0  0  0  0  0  0  0  0  0  0
   -0.5025    3.0099    3.1534 C   0  0  0  0  0  0  0  0  0  0  0  0
   -1.6725    3.6408    3.5080 C   0  0  0  0  0  0  0  0  0  0  0  0
   -2.8751    2.9428    3.5626 C   0  0  0  0  0  0  0  0  0  0  0  0
   -4.3062    3.8878    3.9799 S   0  0  0  0  0  0  0  0  0  0  0  0
   -5.6607    2.6837    3.9649 C   0  0  0  0  0  0  0  0  0  0  0  0
   -2.8713    1.5846    3.2863 C   0  0  0  0  0  0  0  0  0  0  0  0
   -1.6967    0.9522    2.9234 C   0  0  0  0  0  0  0  0  0  0  0  0
    1.1651   -1.3230    2.7910 C   0  0  0  0  0  0  0  0  0  0  0  0
    1.8870   -1.2719    4.3623 S   0  0  0  0  0  0  0  0  0  0  0  0
    2.1654   -3.0126    4.3069 C   0  0  0  0  0  0  0  0  0  0  0  0
    1.5828   -3.6101    3.1719 C   0  0  0  0  0  0  0  0  0  0  0  0
    1.4039   -4.9460    2.9010 N   0  0  0  0  0  0  0  0  0  0  0  0
    1.3499   -5.3053    1.5393 C   0  0  0  0  0  0  0  0  0  0  0  0
    0.3105   -6.0894    1.0436 C   0  0  0  0  0  0  0  0  0  0  0  0
    0.2325   -6.3565   -0.3061 C   0  0  0  0  0  0  0  0  0  0  0  0
    1.1897   -5.8438   -1.1765 C   0  0  0  0  0  0  0  0  0  0  0  0
    1.0156   -6.1838   -2.9001 S   0  0  0  0  0  0  0  0  0  0  0  0
    1.7097   -4.6871   -3.6576 C   0  0  0  0  0  0  0  0  0  0  0  0
    2.2540   -5.1031   -0.6798 C   0  0  0  0  0  0  0  0  0  0  0  0
    2.3315   -4.8351    0.6707 C   0  0  0  0  0  0  0  0  0  0  0  0
    1.2649   -5.9272    3.8774 C   0  0  0  0  0  0  0  0  0  0  0  0
    0.7863   -5.6236    5.1530 C   0  0  0  0  0  0  0  0  0  0  0  0
    0.7899   -6.5730    6.1525 C   0  0  0  0  0  0  0  0  0  0  0  0
    1.2434   -7.8629    5.8920 C   0  0  0  0  0  0  0  0  0  0  0  0
    1.3912   -9.1124    7.1163 S   0  0  0  0  0  0  0  0  0  0  0  0
    1.4100   -8.1768    8.6687 C   0  0  0  0  0  0  0  0  0  0  0  0
    1.6070   -8.2012    4.5868 C   0  0  0  0  0  0  0  0  0  0  0  0
    1.6165   -7.2515    3.5938 C   0  0  0  0  0  0  0  0  0  0  0  0
    1.0706   -2.6153    2.3074 C   0  0  0  0  0  0  0  0  0  0  0  0
    0.2795   -2.6265    0.7694 S   0  0  0  0  0  0  0  0  0  0  0  0
    2.9309   -3.5668    5.3587 C   0  0  0  0  0  0  0  0  0  0  0  0
    3.6365   -4.7922    5.3193 C   0  0  0  0  0  0  0  0  0  0  0  0
    4.3007   -5.3369    6.4847 C   0  0  0  0  0  0  0  0  0  0  0  0
    4.9141   -6.4863    6.2119 N   0  0  0  0  0  0  0  0  0  0  0  0
    4.7133   -6.8364    4.6557 S   0  0  0  0  0  4  0  0  0  0  0  0
    3.8261   -5.5593    4.2443 N   0  0  0  0  0  0  0  0  0  0  0  0
    4.3681   -4.6659    7.7289 C   0  0  0  0  0  0  0  0  0  0  0  0
    3.7177   -3.4106    7.7501 C   0  0  0  0  0  0  0  0  0  0  0  0
    3.5661   -2.6180    8.8092 N   0  0  0  0  0  0  0  0  0  0  0  0
    2.7557   -1.3035    8.3809 S   0  0  0  0  0  0  0  0  0  0  0  0
    2.4942   -1.6888    6.8399 N   0  0  0  0  0  0  0  0  0  0  0  0
    3.0526   -2.8717    6.5880 C   0  0  0  0  0  0  0  0  0  0  0  0
    5.0107   -5.2527    8.8388 C   0  0  0  0  0  0  0  0  0  0  0  0
    5.6329   -4.5710    9.8555 C   0  0  0  0  0  0  0  0  0  0  0  0
    6.1977   -3.2094    9.7223 C   0  0  0  0  0  0  0  0  0  0  0  0
    6.1559   -2.4751    8.7593 O   0  0  0  0  0  0  0  0  0  0  0  0
    6.9770   -2.9904   10.9638 C   0  0  0  0  0  0  0  0  0  0  0  0
    7.7120   -1.8884   11.3640 C   0  0  0  0  0  0  0  0  0  0  0  0
    7.7765   -0.4707   10.3975 Cl  0  0  0  0  0  0  0  0  0  0  0  0
    8.3975   -1.9382   12.5765 C   0  0  0  0  0  0  0  0  0  0  0  0
    8.3465   -3.0795   13.3561 C   0  0  0  0  0  0  0  0  0  0  0  0
    7.6110   -4.1939   12.9679 C   0  0  0  0  0  0  0  0  0  0  0  0
    6.9226   -4.1434   11.7689 C   0  0  0  0  0  0  0  0  0  0  0  0
    6.0593   -5.1243   11.1120 C   0  0  0  0  0  0  0  0  0  0  0  0
    5.6275   -6.3096   11.6575 C   0  0  0  0  0  0  0  0  0  0  0  0
    4.6471   -7.1325   11.0705 C   0  0  0  0  0  0  0  0  0  0  0  0
    3.8140   -7.8221   10.6811 N   0  0  0  0  0  0  0  0  0  0  0  0
    6.0580   -6.8198   12.8971 C   0  0  0  0  0  0  0  0  0  0  0  0
    6.3781   -7.2936   13.8934 N   0  0  0  0  0  0  0  0  0  0  0  0
   -3.4282    0.3627   -6.1101 H   0  0  0  0  0  0  0  0  0  0  0  0
   -1.7965    6.4034   -6.3331 H   0  0  0  0  0  0  0  0  0  0  0  0
   -4.0607    3.9688  -10.1547 H   0  0  0  0  0  0  0  0  0  0  0  0
   -2.4582    6.7672  -11.3063 H   0  0  0  0  0  0  0  0  0  0  0  0
   -5.0718    7.2665  -11.1876 H   0  0  0  0  0  0  0  0  0  0  0  0
   -3.8673    9.3661  -12.2100 H   0  0  0  0  0  0  0  0  0  0  0  0
   -2.6686   10.6760  -10.2339 H   0  0  0  0  0  0  0  0  0  0  0  0
   -3.1361    9.3841   -7.9945 H   0  0  0  0  0  0  0  0  0  0  0  0
   -5.4655    8.9297   -9.1664 H   0  0  0  0  0  0  0  0  0  0  0  0
   -4.8619    7.3904   -8.5116 H   0  0  0  0  0  0  0  0  0  0  0  0
   -1.2838    8.0479   -9.3663 H   0  0  0  0  0  0  0  0  0  0  0  0
   -3.4917   -2.8580   -6.6051 H   0  0  0  0  0  0  0  0  0  0  0  0
   -3.3913   -2.5902   -9.0485 H   0  0  0  0  0  0  0  0  0  0  0  0
   -0.1800    0.7524  -10.9051 H   0  0  0  0  0  0  0  0  0  0  0  0
   -1.5430    1.0489  -12.0061 H   0  0  0  0  0  0  0  0  0  0  0  0
   -1.7062    1.4614  -10.2861 H   0  0  0  0  0  0  0  0  0  0  0  0
   -0.2789    0.3079   -8.6026 H   0  0  0  0  0  0  0  0  0  0  0  0
   -0.3519    0.0159   -6.1814 H   0  0  0  0  0  0  0  0  0  0  0  0
   -3.5800   -2.0304   -2.6931 H   0  0  0  0  0  0  0  0  0  0  0  0
   -3.8700   -4.2422   -1.6559 H   0  0  0  0  0  0  0  0  0  0  0  0
   -2.4778   -8.9929   -2.9427 H   0  0  0  0  0  0  0  0  0  0  0  0
   -1.1512   -7.9151   -3.4350 H   0  0  0  0  0  0  0  0  0  0  0  0
   -2.6902   -7.9434   -4.3609 H   0  0  0  0  0  0  0  0  0  0  0  0
   -1.3703   -5.9752   -4.6615 H   0  0  0  0  0  0  0  0  0  0  0  0
   -1.0295   -3.7739   -5.6477 H   0  0  0  0  0  0  0  0  0  0  0  0
    1.5646    1.4529   -1.2918 H   0  0  0  0  0  0  0  0  0  0  0  0
    3.7115    2.5369   -1.0089 H   0  0  0  0  0  0  0  0  0  0  0  0
    6.6602    4.5416   -0.1142 H   0  0  0  0  0  0  0  0  0  0  0  0
    5.5110    4.0180   -1.3663 H   0  0  0  0  0  0  0  0  0  0  0  0
    5.7766    3.0181    0.1034 H   0  0  0  0  0  0  0  0  0  0  0  0
    1.8766    5.5487    1.4007 H   0  0  0  0  0  0  0  0  0  0  0  0
   -0.2889    4.4629    1.1151 H   0  0  0  0  0  0  0  0  0  0  0  0
   -1.4752    4.7595   -0.6512 H   0  0  0  0  0  0  0  0  0  0  0  0
   -3.6764    5.6929   -0.2497 H   0  0  0  0  0  0  0  0  0  0  0  0
   -6.8452    6.4709    1.5520 H   0  0  0  0  0  0  0  0  0  0  0  0
   -5.6917    6.7391    0.2290 H   0  0  0  0  0  0  0  0  0  0  0  0
   -5.1143    6.1620    1.8286 H   0  0  0  0  0  0  0  0  0  0  0  0
   -5.1775    1.7986    0.6548 H   0  0  0  0  0  0  0  0  0  0  0  0
   -2.9271    0.8727    0.3777 H   0  0  0  0  0  0  0  0  0  0  0  0
    1.5549    2.4391    4.5337 H   0  0  0  0  0  0  0  0  0  0  0  0
    3.8234    3.2312    4.8593 H   0  0  0  0  0  0  0  0  0  0  0  0
    5.9287    4.1299    5.2420 H   0  0  0  0  0  0  0  0  0  0  0  0
    7.0851    4.8461    4.1008 H   0  0  0  0  0  0  0  0  0  0  0  0
    5.3423    4.9491    3.7547 H   0  0  0  0  0  0  0  0  0  0  0  0
    5.0861    1.0794    1.3939 H   0  0  0  0  0  0  0  0  0  0  0  0
    2.7721    0.3790    0.9927 H   0  0  0  0  0  0  0  0  0  0  0  0
    0.4088    3.5803    3.1122 H   0  0  0  0  0  0  0  0  0  0  0  0
   -1.6670    4.6942    3.7453 H   0  0  0  0  0  0  0  0  0  0  0  0
   -5.7717    2.2688    2.9682 H   0  0  0  0  0  0  0  0  0  0  0  0
   -6.5521    3.2437    4.2293 H   0  0  0  0  0  0  0  0  0  0  0  0
   -5.4766    1.9095    4.7040 H   0  0  0  0  0  0  0  0  0  0  0  0
   -3.7764    1.0017    3.3457 H   0  0  0  0  0  0  0  0  0  0  0  0
   -1.7203   -0.1072    2.7143 H   0  0  0  0  0  0  0  0  0  0  0  0
   -0.4464   -6.4633    1.7162 H   0  0  0  0  0  0  0  0  0  0  0  0
   -0.5863   -6.9389   -0.6973 H   0  0  0  0  0  0  0  0  0  0  0  0
    2.7950   -4.7102   -3.6244 H   0  0  0  0  0  0  0  0  0  0  0  0
    1.3766   -4.6906   -4.6903 H   0  0  0  0  0  0  0  0  0  0  0  0
    1.3138   -3.8182   -3.1403 H   0  0  0  0  0  0  0  0  0  0  0  0
    3.0255   -4.7348   -1.3369 H   0  0  0  0  0  0  0  0  0  0  0  0
    3.1548   -4.2593    1.0665 H   0  0  0  0  0  0  0  0  0  0  0  0
    0.4230   -4.6305    5.3697 H   0  0  0  0  0  0  0  0  0  0  0  0
    0.4370   -6.3004    7.1344 H   0  0  0  0  0  0  0  0  0  0  0  0
    0.4063   -7.8521    8.9284 H   0  0  0  0  0  0  0  0  0  0  0  0
    2.0890   -7.3351    8.5758 H   0  0  0  0  0  0  0  0  0  0  0  0
    1.7880   -8.8561    9.4256 H   0  0  0  0  0  0  0  0  0  0  0  0
    1.9147   -9.2136    4.3766 H   0  0  0  0  0  0  0  0  0  0  0  0
    1.9588   -7.5126    2.6047 H   0  0  0  0  0  0  0  0  0  0  0  0
    5.0485   -6.3359    8.8328 H   0  0  0  0  0  0  0  0  0  0  0  0
    8.9674   -1.0805   12.8966 H   0  0  0  0  0  0  0  0  0  0  0  0
    8.8896   -3.1055   14.2885 H   0  0  0  0  0  0  0  0  0  0  0  0
    7.5911   -5.0717   13.5925 H   0  0  0  0  0  0  0  0  0  0  0  0
  1  2  2  0  0  0  0
  2  3  1  0  0  0  0
  3  4  2  0  0  0  0
  3  5  1  0  0  0  0
  5  6  2  0  0  0  0
  6  7  1  0  0  0  0
  7  8  2  0  0  0  0
  8  9  1  0  0  0  0
  9 10  2  0  0  0  0
 10 11  1  0  0  0  0
 11 12  2  0  0  0  0
 12 13  1  0  0  0  0
 13 14  3  0  0  0  0
 12 15  1  0  0  0  0
 15 16  3  0  0  0  0
  8 17  1  0  0  0  0
 17 18  1  0  0  0  0
 18 19  1  0  0  0  0
 19 20  2  0  0  0  0
 20 21  1  0  0  0  0
 21 22  1  0  0  0  0
 21 23  1  0  0  0  0
  1 24  1  0  0  0  0
 24 25  2  0  0  0  0
 25 26  1  0  0  0  0
 26 27  1  0  0  0  0
 27 28  2  0  0  0  0
 28 29  1  0  0  0  0
 29 30  2  0  0  0  0
 30 31  1  0  0  0  0
 31 32  1  0  0  0  0
 30 33  1  0  0  0  0
 33 34  2  0  0  0  0
 26 35  1  0  0  0  0
 35 36  2  0  0  0  0
 36 37  1  0  0  0  0
 37 38  2  0  0  0  0
 38 39  1  0  0  0  0
 39 40  1  0  0  0  0
 38 41  1  0  0  0  0
 41 42  2  0  0  0  0
 25 43  1  0  0  0  0
 43 44  1  0  0  0  0
 44 45  1  0  0  0  0
 45 46  2  0  0  0  0
 46 47  1  0  0  0  0
 47 48  1  0  0  0  0
 48 49  2  0  0  0  0
 49 50  1  0  0  0  0
 50 51  2  0  0  0  0
 51 52  1  0  0  0  0
 52 53  1  0  0  0  0
 51 54  1  0  0  0  0
 54 55  2  0  0  0  0
 47 56  1  0  0  0  0
 56 57  2  0  0  0  0
 57 58  1  0  0  0  0
 58 59  2  0  0  0  0
 59 60  1  0  0  0  0
 60 61  1  0  0  0  0
 59 62  1  0  0  0  0
 62 63  2  0  0  0  0
 46 64  1  0  0  0  0
 64 65  1  0  0  0  0
 45 66  1  0  0  0  0
 66 67  2  0  0  0  0
 67 68  1  0  0  0  0
 68 69  1  0  0  0  0
 69 70  2  0  0  0  0
 70 71  1  0  0  0  0
 71 72  2  0  0  0  0
 72 73  1  0  0  0  0
 73 74  1  0  0  0  0
 72 75  1  0  0  0  0
 75 76  2  0  0  0  0
 68 77  1  0  0  0  0
 77 78  2  0  0  0  0
 78 79  1  0  0  0  0
 79 80  2  0  0  0  0
 80 81  1  0  0  0  0
 81 82  1  0  0  0  0
 80 83  1  0  0  0  0
 83 84  2  0  0  0  0
 67 85  1  0  0  0  0
 85 86  1  0  0  0  0
 86 87  1  0  0  0  0
 87 88  2  0  0  0  0
 88 89  1  0  0  0  0
 89 90  1  0  0  0  0
 90 91  2  0  0  0  0
 91 92  1  0  0  0  0
 92 93  2  0  0  0  0
 93 94  1  0  0  0  0
 94 95  1  0  0  0  0
 93 96  1  0  0  0  0
 96 97  2  0  0  0  0
 89 98  1  0  0  0  0
 98 99  2  0  0  0  0
 99100  1  0  0  0  0
100101  2  0  0  0  0
101102  1  0  0  0  0
102103  1  0  0  0  0
101104  1  0  0  0  0
104105  2  0  0  0  0
 88106  1  0  0  0  0
106107  1  0  0  0  0
 87108  1  0  0  0  0
108109  2  0  0  0  0
109110  1  0  0  0  0
110111  1  0  0  0  0
111112  2  0  0  0  0
112113  2  0  0  0  0
110114  2  0  0  0  0
114115  1  0  0  0  0
115116  2  0  0  0  0
116117  1  0  0  0  0
117118  1  0  0  0  0
118119  2  0  0  0  0
114120  1  0  0  0  0
120121  2  0  0  0  0
121122  1  0  0  0  0
122123  2  0  0  0  0
122124  1  0  0  0  0
124125  2  0  0  0  0
125126  1  0  0  0  0
125127  1  0  0  0  0
127128  2  0  0  0  0
128129  1  0  0  0  0
129130  2  0  0  0  0
130131  1  0  0  0  0
131132  2  0  0  0  0
132133  1  0  0  0  0
133134  3  0  0  0  0
132135  1  0  0  0  0
135136  3  0  0  0  0
 11  2  1  0  0  0  0
 23 17  1  0  0  0  0
 65 24  1  0  0  0  0
107 66  1  0  0  0  0
119108  1  0  0  0  0
131121  1  0  0  0  0
 10  5  1  0  0  0  0
 22 18  1  0  0  0  0
 34 27  1  0  0  0  0
 42 35  1  0  0  0  0
 64 43  2  0  0  0  0
 76 69  1  0  0  0  0
 84 77  1  0  0  0  0
106 85  2  0  0  0  0
113109  1  0  0  0  0
119115  1  0  0  0  0
130124  1  0  0  0  0
 23  7  1  0  0  0  0
 55 48  1  0  0  0  0
 63 56  1  0  0  0  0
 97 90  1  0  0  0  0
105 98  1  0  0  0  0
  1137  1  0  0  0  0
  6138  1  0  0  0  0
  9139  1  0  0  0  0
 17140  1  0  0  0  0
 18141  1  0  0  0  0
 19142  1  0  0  0  0
 20143  1  0  0  0  0
 21144  1  0  0  0  0
 22145  1  0  0  0  0
 22146  1  0  0  0  0
 23147  1  0  0  0  0
 28148  1  0  0  0  0
 29149  1  0  0  0  0
 32150  1  0  0  0  0
 32151  1  0  0  0  0
 32152  1  0  0  0  0
 33153  1  0  0  0  0
 34154  1  0  0  0  0
 36155  1  0  0  0  0
 37156  1  0  0  0  0
 40157  1  0  0  0  0
 40158  1  0  0  0  0
 40159  1  0  0  0  0
 41160  1  0  0  0  0
 42161  1  0  0  0  0
 49162  1  0  0  0  0
 50163  1  0  0  0  0
 53164  1  0  0  0  0
 53165  1  0  0  0  0
 53166  1  0  0  0  0
 54167  1  0  0  0  0
 55168  1  0  0  0  0
 57169  1  0  0  0  0
 58170  1  0  0  0  0
 61171  1  0  0  0  0
 61172  1  0  0  0  0
 61173  1  0  0  0  0
 62174  1  0  0  0  0
 63175  1  0  0  0  0
 70176  1  0  0  0  0
 71177  1  0  0  0  0
 74178  1  0  0  0  0
 74179  1  0  0  0  0
 74180  1  0  0  0  0
 75181  1  0  0  0  0
 76182  1  0  0  0  0
 78183  1  0  0  0  0
 79184  1  0  0  0  0
 82185  1  0  0  0  0
 82186  1  0  0  0  0
 82187  1  0  0  0  0
 83188  1  0  0  0  0
 84189  1  0  0  0  0
 91190  1  0  0  0  0
 92191  1  0  0  0  0
 95192  1  0  0  0  0
 95193  1  0  0  0  0
 95194  1  0  0  0  0
 96195  1  0  0  0  0
 97196  1  0  0  0  0
 99197  1  0  0  0  0
100198  1  0  0  0  0
103199  1  0  0  0  0
103200  1  0  0  0  0
103201  1  0  0  0  0
104202  1  0  0  0  0
105203  1  0  0  0  0
120204  1  0  0  0  0
127205  1  0  0  0  0
128206  1  0  0  0  0
129207  1  0  0  0  0
M  END
