122

C         -5.47470       -2.16670        3.17130
C         -4.92390       -3.03460        4.05930
C         -3.46530       -3.30560        4.19120
O         -2.54150       -2.74000        3.64550
C         -3.36340       -4.51580        5.02650
C         -2.19150       -5.18130        5.38090
C         -2.39450       -6.31510        6.12890
C         -3.67190       -6.75990        6.49790
C         -4.83560       -6.11220        6.15910
C         -4.65090       -4.95490        5.39600
C         -5.63380       -4.02780        4.84700
C         -6.98030       -4.03930        5.09250
C         -7.64130       -5.01010        5.87410
N         -8.24030       -5.77260        6.48870
C         -7.89010       -3.06440        4.62780
N         -8.68960       -2.30370        4.31220
C         -3.13000       -7.97330        7.21040
C         -3.23720       -9.33890        6.48680
C         -3.26020       -9.04110        5.00810
C         -2.05160       -8.61930        4.66100
C         -1.18930       -8.62410        5.89930
C         -1.78860       -9.82930        6.64140
C         -1.70740       -7.47660        6.80190
C         -4.74750       -1.14400        2.48660
C         -4.97320       -0.87140        1.12600
C         -4.10330       -0.00020        0.35530
N         -4.43160       -0.00990       -0.94240
S         -5.69870       -0.95510       -1.15690
N         -5.89620       -1.45210        0.35310
C         -3.01730        0.66980        0.93540
C         -2.90000        0.53200        2.32580
N         -2.03390        1.17960        3.11480
S         -2.26320        0.71160        4.62330
N         -3.46740       -0.31390        4.39480
C         -3.74790       -0.36210        3.09030
C         -1.98820        1.32220        0.14330
C         -2.24860        2.16490       -0.91810
F         -3.50320        2.54140       -1.19570
C         -1.22340        2.67810       -1.72880
F         -1.58010        3.38550       -2.81090
C          0.11070        2.40570       -1.48690
C          0.40620        1.52930       -0.40200
N          1.68380        1.21080       -0.14960
C          1.97080        0.36890        0.81050
C          3.41910        0.04210        0.99520
C          3.81480       -1.10890        0.06510
C          0.92280       -0.22830        1.57220
N         -0.32390        0.09480        1.34960
C         -0.62730        0.98750        0.39610
C          1.15030       -1.19320        2.69480
C          1.41180       -0.42630        3.99460
C          1.19300        2.86130       -2.31820
S          2.45480        1.73780       -2.67520
C          3.24600        2.85560       -3.77160
C          2.54140        4.06120       -3.76970
S          2.82610        5.56200       -4.56470
C          1.44990        6.29080       -3.73520
C          1.11660        7.65750       -3.96080
C          1.74530        8.56170       -4.80550
C          1.15630        9.83250       -4.81810
C          0.07360        9.91150       -3.98270
C         -0.78300       11.07580       -3.75610
O         -0.63970       12.14220       -4.30110
O         -1.73590       10.79560       -2.85810
C         -2.67700       11.82900       -2.56790
C         -3.80070       11.85510       -3.59390
S         -0.23130        8.42200       -3.16920
Cl         3.11710        8.18050       -5.76180
C          0.81800        5.38880       -2.90830
C          1.39810        4.09080       -2.94090
Cl        -0.45630        5.82870       -1.85700
C          4.40110        2.65580       -4.53510
C          5.22650        1.56120       -4.60810
C          5.04970        0.31760       -3.85630
O          4.15230        0.03960       -3.07710
C          6.17680       -0.55290       -4.22990
C          6.46400       -1.82840       -3.78530
C          7.58740       -2.48470       -4.27530
C          7.96180       -3.86400       -3.84210
C          8.37460       -1.80420       -5.20640
F          9.46340       -2.43170       -5.68740
C          8.10840       -0.52440       -5.66720
C          6.98540        0.11400       -5.16620
C          6.41850        1.43780       -5.42440
C          6.94200        2.36660       -6.28470
C          6.40770        3.64690       -6.54320
N          6.04260        4.70280       -6.80920
C          8.11310        2.16200       -7.04550
N          9.05800        2.05730       -7.68860
H         -6.51220       -2.27340        2.88000
H         -1.22790       -4.80730        5.07170
H         -5.81110       -6.46950        6.44410
H         -3.36030       -8.04720        8.27120
H         -4.02750       -9.98520        6.85840
H         -4.14060       -9.11160        4.39670
H         -1.72090       -8.26620        3.70170
H         -0.11470       -8.62060        5.73610
H         -1.60660      -10.77230        6.12830
H         -1.46440       -9.90590        7.67830
H         -1.00770       -7.22490        7.59640
H          3.62580       -0.22580        2.03080
H          4.00460        0.92300        0.73030
H          3.69000       -0.80560       -0.97080
H          3.19860       -1.98640        0.25050
H          4.85640       -1.37420        0.23060
H          0.24180       -1.78580        2.81290
H          1.98730       -1.85620        2.47540
H          1.51220       -1.12150        4.82400
H          0.58090        0.24470        4.19940
H          2.32100        0.16750        3.92630
H          1.50610       10.65600       -5.41240
H         -3.05630       11.59400       -1.57150
H         -2.15310       12.79040       -2.55370
H         -4.28300       10.88190       -3.64650
H         -3.40270       12.10680       -4.57400
H         -4.53590       12.60230       -3.31020
H          4.65560        3.51430       -5.14620
H          5.81620       -2.30460       -3.06490
H          7.24710       -4.25030       -3.12130
H          7.99780       -4.53110       -4.70260
H          8.95520       -3.86060       -3.39470
H          8.77230       -0.07640       -6.38760
