
  xtb     02072221573D
 energy: -318.288451613759 gnorm: 0.000531518011 xtb: 6.4.1 (unknown)
181198  0     0  0            999 V2000
   -5.0369   -2.4590    4.3963 C   0  0  0  0  0  0  0  0  0  0  0  0
   -5.5423   -1.5034    5.2096 C   0  0  0  0  0  0  0  0  0  0  0  0
   -5.3660   -0.0348    5.0513 C   0  0  0  0  0  0  0  0  0  0  0  0
   -4.6947    0.5553    4.2306 O   0  0  0  0  0  0  0  0  0  0  0  0
   -6.0965    0.5798    6.1723 C   0  0  0  0  0  0  0  0  0  0  0  0
   -6.2705    1.9435    6.4013 C   0  0  0  0  0  0  0  0  0  0  0  0
   -6.9755    2.2349    7.5426 C   0  0  0  0  0  0  0  0  0  0  0  0
   -7.4646    1.2406    8.4017 C   0  0  0  0  0  0  0  0  0  0  0  0
   -7.3102   -0.1066    8.1824 C   0  0  0  0  0  0  0  0  0  0  0  0
   -6.6000   -0.4268    7.0201 C   0  0  0  0  0  0  0  0  0  0  0  0
   -6.2445   -1.7291    6.4676 C   0  0  0  0  0  0  0  0  0  0  0  0
   -6.5123   -2.9399    7.0447 C   0  0  0  0  0  0  0  0  0  0  0  0
   -7.1847   -3.1063    8.2754 C   0  0  0  0  0  0  0  0  0  0  0  0
   -7.7246   -3.3234    9.2650 N   0  0  0  0  0  0  0  0  0  0  0  0
   -6.1546   -4.2063    6.5314 C   0  0  0  0  0  0  0  0  0  0  0  0
   -5.9149   -5.2824    6.2096 N   0  0  0  0  0  0  0  0  0  0  0  0
   -8.0479    2.2465    9.3611 C   0  0  0  0  0  0  0  0  0  0  0  0
   -7.2645    2.5327   10.6664 C   0  0  0  0  0  0  0  0  0  0  0  0
   -5.8117    2.2501   10.3729 C   0  0  0  0  0  0  0  0  0  0  0  0
   -5.3708    3.1999    9.5588 C   0  0  0  0  0  0  0  0  0  0  0  0
   -6.5191    4.1379    9.2815 C   0  0  0  0  0  0  0  0  0  0  0  0
   -7.2547    4.0695   10.6292 C   0  0  0  0  0  0  0  0  0  0  0  0
   -7.5188    3.3539    8.3959 C   0  0  0  0  0  0  0  0  0  0  0  0
   -4.3023   -2.2421    3.1801 C   0  0  0  0  0  0  0  0  0  0  0  0
   -4.5771   -1.2889    2.2139 C   0  0  0  0  0  0  0  0  0  0  0  0
   -5.7368   -0.6217    2.2266 F   0  0  0  0  0  0  0  0  0  0  0  0
   -3.6763   -1.0157    1.1796 C   0  0  0  0  0  0  0  0  0  0  0  0
   -3.9779   -0.0128    0.3362 F   0  0  0  0  0  0  0  0  0  0  0  0
   -2.4640   -1.6773    1.0579 C   0  0  0  0  0  0  0  0  0  0  0  0
   -2.2717   -2.8169    1.8959 C   0  0  0  0  0  0  0  0  0  0  0  0
   -1.2446   -3.6522    1.6656 N   0  0  0  0  0  0  0  0  0  0  0  0
   -1.0821   -4.6980    2.4401 C   0  0  0  0  0  0  0  0  0  0  0  0
    0.0454   -5.6191    2.0857 C   0  0  0  0  0  0  0  0  0  0  0  0
   -0.4312   -6.6761    1.0862 C   0  0  0  0  0  0  0  0  0  0  0  0
   -1.9744   -4.9477    3.5214 C   0  0  0  0  0  0  0  0  0  0  0  0
   -2.9837   -4.1448    3.7477 N   0  0  0  0  0  0  0  0  0  0  0  0
   -3.1790   -3.0873    2.9453 C   0  0  0  0  0  0  0  0  0  0  0  0
   -1.8331   -6.0979    4.4702 C   0  0  0  0  0  0  0  0  0  0  0  0
   -0.9306   -5.7114    5.6445 C   0  0  0  0  0  0  0  0  0  0  0  0
   -1.4226   -1.2416    0.1666 C   0  0  0  0  0  0  0  0  0  0  0  0
   -0.0609   -1.2092    0.4471 C   0  0  0  0  0  0  0  0  0  0  0  0
    0.5237   -1.4752    1.6716 N   0  0  0  0  0  0  0  0  0  0  0  0
    1.7883   -2.0753    1.6965 C   0  0  0  0  0  0  0  0  0  0  0  0
    2.1388   -3.0253    0.7352 C   0  0  0  0  0  0  0  0  0  0  0  0
    3.3902   -3.5997    0.7515 C   0  0  0  0  0  0  0  0  0  0  0  0
    4.3188   -3.2472    1.7292 C   0  0  0  0  0  0  0  0  0  0  0  0
    5.8837   -4.0590    1.6547 S   0  0  0  0  0  0  0  0  0  0  0  0
    6.8646   -3.2413    2.9444 C   0  0  0  0  0  0  0  0  0  0  0  0
    3.9708   -2.3085    2.6919 C   0  0  0  0  0  0  0  0  0  0  0  0
    2.7191   -1.7257    2.6706 C   0  0  0  0  0  0  0  0  0  0  0  0
   -0.1514   -1.1863    2.8639 C   0  0  0  0  0  0  0  0  0  0  0  0
   -0.0605   -2.0404    3.9637 C   0  0  0  0  0  0  0  0  0  0  0  0
   -0.7972   -1.7928    5.1016 C   0  0  0  0  0  0  0  0  0  0  0  0
   -1.6322   -0.6824    5.1743 C   0  0  0  0  0  0  0  0  0  0  0  0
   -2.6071   -0.4826    6.6381 S   0  0  0  0  0  0  0  0  0  0  0  0
   -2.7601    1.3230    6.7680 C   0  0  0  0  0  0  0  0  0  0  0  0
   -1.6896    0.2002    4.1041 C   0  0  0  0  0  0  0  0  0  0  0  0
   -0.9526   -0.0496    2.9654 C   0  0  0  0  0  0  0  0  0  0  0  0
    0.6670   -0.7382   -0.6729 C   0  0  0  0  0  0  0  0  0  0  0  0
    2.3422   -0.4225   -0.9721 S   0  0  0  0  0  0  0  0  0  0  0  0
    1.9611    0.1651   -2.5816 C   0  0  0  0  0  0  0  0  0  0  0  0
    0.5932    0.1869   -2.8310 C   0  0  0  0  0  0  0  0  0  0  0  0
   -0.0094    0.8035   -3.9097 N   0  0  0  0  0  0  0  0  0  0  0  0
    0.5906    1.9163   -4.5163 C   0  0  0  0  0  0  0  0  0  0  0  0
    0.5814    2.0638   -5.9035 C   0  0  0  0  0  0  0  0  0  0  0  0
    1.3085    3.0671   -6.5028 C   0  0  0  0  0  0  0  0  0  0  0  0
    2.0507    3.9621   -5.7348 C   0  0  0  0  0  0  0  0  0  0  0  0
    3.0477    5.1193   -6.6157 S   0  0  0  0  0  0  0  0  0  0  0  0
    3.9195    6.0316   -5.3138 C   0  0  0  0  0  0  0  0  0  0  0  0
    1.9760    3.8848   -4.3499 C   0  0  0  0  0  0  0  0  0  0  0  0
    1.2515    2.8741   -3.7504 C   0  0  0  0  0  0  0  0  0  0  0  0
   -1.1618    0.2276   -4.4580 C   0  0  0  0  0  0  0  0  0  0  0  0
   -2.1943    1.0281   -4.9375 C   0  0  0  0  0  0  0  0  0  0  0  0
   -3.3305    0.4599   -5.4790 C   0  0  0  0  0  0  0  0  0  0  0  0
   -3.4562   -0.9223   -5.5409 C   0  0  0  0  0  0  0  0  0  0  0  0
   -4.8529   -1.7618   -6.2156 S   0  0  0  0  0  0  0  0  0  0  0  0
   -6.0579   -0.4381   -6.5152 C   0  0  0  0  0  0  0  0  0  0  0  0
   -2.4212   -1.7262   -5.0651 C   0  0  0  0  0  0  0  0  0  0  0  0
   -1.2845   -1.1607   -4.5332 C   0  0  0  0  0  0  0  0  0  0  0  0
   -0.1276   -0.3681   -1.7469 C   0  0  0  0  0  0  0  0  0  0  0  0
   -1.8053   -0.6017   -1.4200 S   0  0  0  0  0  0  0  0  0  0  0  0
    2.9629    0.5743   -3.5219 C   0  0  0  0  0  0  0  0  0  0  0  0
    4.0261    1.4453   -3.2373 C   0  0  0  0  0  0  0  0  0  0  0  0
    4.3879    1.9878   -1.9754 C   0  0  0  0  0  0  0  0  0  0  0  0
    5.3996    2.8916   -2.0510 C   0  0  0  0  0  0  0  0  0  0  0  0
    6.0027    3.6291   -0.9387 C   0  0  0  0  0  0  0  0  0  0  0  0
    5.6540    3.5243    0.2122 O   0  0  0  0  0  0  0  0  0  0  0  0
    6.9904    4.4189   -1.3727 O   0  0  0  0  0  0  0  0  0  0  0  0
    7.6650    5.2174   -0.4014 C   0  0  0  0  0  0  0  0  0  0  0  0
    6.9387    6.5347   -0.1712 C   0  0  0  0  0  0  0  0  0  0  0  0
    5.9753    3.1359   -3.6774 S   0  0  0  0  0  0  0  0  0  0  0  0
    4.8114    1.9992   -4.2852 C   0  0  0  0  0  0  0  0  0  0  0  0
    4.6653    1.6928   -5.6434 C   0  0  0  0  0  0  0  0  0  0  0  0
    3.6547    0.7415   -5.9132 C   0  0  0  0  0  0  0  0  0  0  0  0
    2.8384    0.1991   -4.8738 C   0  0  0  0  0  0  0  0  0  0  0  0
    1.9903   -0.6720   -5.4460 N   0  0  0  0  0  0  0  0  0  0  0  0
    2.2804   -0.6151   -6.7111 N   0  0  0  0  0  0  0  0  0  0  0  0
    1.6449   -1.4670   -7.6767 C   0  0  0  0  0  0  0  0  0  0  0  0
    0.2527   -0.9694   -8.0478 C   0  0  0  0  0  0  0  0  0  0  0  0
    3.2255    0.2091   -7.0635 N   0  0  0  0  0  0  0  0  0  0  0  0
    5.4048    2.3883   -6.6379 C   0  0  0  0  0  0  0  0  0  0  0  0
    5.7047    1.9336   -7.8882 C   0  0  0  0  0  0  0  0  0  0  0  0
    5.6640    0.5134   -8.3117 C   0  0  0  0  0  0  0  0  0  0  0  0
    5.6184   -0.4682   -7.6067 O   0  0  0  0  0  0  0  0  0  0  0  0
    5.8777    0.5406   -9.7767 C   0  0  0  0  0  0  0  0  0  0  0  0
    5.8127   -0.4899  -10.7003 C   0  0  0  0  0  0  0  0  0  0  0  0
    5.3933   -2.0806  -10.2177 Cl  0  0  0  0  0  0  0  0  0  0  0  0
    6.0744   -0.2167  -12.0396 C   0  0  0  0  0  0  0  0  0  0  0  0
    6.4024    1.0759  -12.4146 C   0  0  0  0  0  0  0  0  0  0  0  0
    6.7605    1.4249  -14.2431 Br  0  0  0  0  0  0  0  0  0  0  0  0
    6.4748    2.1274  -11.5073 C   0  0  0  0  0  0  0  0  0  0  0  0
    6.2050    1.8485  -10.1787 C   0  0  0  0  0  0  0  0  0  0  0  0
    6.1769    2.7246   -9.0037 C   0  0  0  0  0  0  0  0  0  0  0  0
    6.5238    4.0499   -8.9993 C   0  0  0  0  0  0  0  0  0  0  0  0
    6.5353    4.8943   -7.8696 C   0  0  0  0  0  0  0  0  0  0  0  0
    6.5980    5.6545   -7.0110 N   0  0  0  0  0  0  0  0  0  0  0  0
    6.9640    4.7612  -10.1359 C   0  0  0  0  0  0  0  0  0  0  0  0
    7.3325    5.3966  -11.0180 N   0  0  0  0  0  0  0  0  0  0  0  0
   -5.0581   -3.4943    4.7083 H   0  0  0  0  0  0  0  0  0  0  0  0
   -5.8804    2.6774    5.7128 H   0  0  0  0  0  0  0  0  0  0  0  0
   -7.7036   -0.8561    8.8482 H   0  0  0  0  0  0  0  0  0  0  0  0
   -9.1210    2.1829    9.5291 H   0  0  0  0  0  0  0  0  0  0  0  0
   -7.6751    2.0552   11.5518 H   0  0  0  0  0  0  0  0  0  0  0  0
   -5.2860    1.3847   10.7320 H   0  0  0  0  0  0  0  0  0  0  0  0
   -4.4010    3.2930    9.1050 H   0  0  0  0  0  0  0  0  0  0  0  0
   -6.2553    5.1224    8.9040 H   0  0  0  0  0  0  0  0  0  0  0  0
   -6.6808    4.5075   11.4444 H   0  0  0  0  0  0  0  0  0  0  0  0
   -8.2508    4.5091   10.6028 H   0  0  0  0  0  0  0  0  0  0  0  0
   -8.2502    4.0030    7.9184 H   0  0  0  0  0  0  0  0  0  0  0  0
    0.4394   -6.1040    2.9784 H   0  0  0  0  0  0  0  0  0  0  0  0
    0.8401   -5.0284    1.6279 H   0  0  0  0  0  0  0  0  0  0  0  0
   -0.8004   -6.1941    0.1845 H   0  0  0  0  0  0  0  0  0  0  0  0
    0.3915   -7.3345    0.8191 H   0  0  0  0  0  0  0  0  0  0  0  0
   -1.2347   -7.2765    1.5078 H   0  0  0  0  0  0  0  0  0  0  0  0
   -2.8254   -6.3355    4.8554 H   0  0  0  0  0  0  0  0  0  0  0  0
   -1.4296   -6.9728    3.9611 H   0  0  0  0  0  0  0  0  0  0  0  0
   -1.3703   -4.8781    6.1865 H   0  0  0  0  0  0  0  0  0  0  0  0
   -0.8271   -6.5518    6.3258 H   0  0  0  0  0  0  0  0  0  0  0  0
    0.0596   -5.4187    5.3001 H   0  0  0  0  0  0  0  0  0  0  0  0
    1.4193   -3.3099   -0.0175 H   0  0  0  0  0  0  0  0  0  0  0  0
    3.6638   -4.3341    0.0095 H   0  0  0  0  0  0  0  0  0  0  0  0
    6.9154   -2.1744    2.7480 H   0  0  0  0  0  0  0  0  0  0  0  0
    6.4413   -3.4449    3.9239 H   0  0  0  0  0  0  0  0  0  0  0  0
    7.8566   -3.6770    2.8761 H   0  0  0  0  0  0  0  0  0  0  0  0
    4.6666   -2.0131    3.4601 H   0  0  0  0  0  0  0  0  0  0  0  0
    2.4610   -0.9864    3.4141 H   0  0  0  0  0  0  0  0  0  0  0  0
    0.5763   -2.9110    3.9111 H   0  0  0  0  0  0  0  0  0  0  0  0
   -0.7411   -2.4654    5.9431 H   0  0  0  0  0  0  0  0  0  0  0  0
   -1.7693    1.7666    6.7453 H   0  0  0  0  0  0  0  0  0  0  0  0
   -3.3791    1.7060    5.9632 H   0  0  0  0  0  0  0  0  0  0  0  0
   -3.2387    1.5098    7.7245 H   0  0  0  0  0  0  0  0  0  0  0  0
   -2.3223    1.0708    4.1370 H   0  0  0  0  0  0  0  0  0  0  0  0
   -1.0057    0.6423    2.1383 H   0  0  0  0  0  0  0  0  0  0  0  0
    0.0246    1.3654   -6.5074 H   0  0  0  0  0  0  0  0  0  0  0  0
    1.3336    3.1542   -7.5782 H   0  0  0  0  0  0  0  0  0  0  0  0
    4.6287    6.6674   -5.8345 H   0  0  0  0  0  0  0  0  0  0  0  0
    4.4594    5.3395   -4.6744 H   0  0  0  0  0  0  0  0  0  0  0  0
    3.2157    6.6350   -4.7477 H   0  0  0  0  0  0  0  0  0  0  0  0
    2.4862    4.5989   -3.7240 H   0  0  0  0  0  0  0  0  0  0  0  0
    1.2169    2.8144   -2.6727 H   0  0  0  0  0  0  0  0  0  0  0  0
   -2.1048    2.1027   -4.8823 H   0  0  0  0  0  0  0  0  0  0  0  0
   -4.1120    1.1071   -5.8422 H   0  0  0  0  0  0  0  0  0  0  0  0
   -6.9646   -0.9379   -6.8415 H   0  0  0  0  0  0  0  0  0  0  0  0
   -6.2456    0.1026   -5.5924 H   0  0  0  0  0  0  0  0  0  0  0  0
   -5.7019    0.2245   -7.2988 H   0  0  0  0  0  0  0  0  0  0  0  0
   -2.5207   -2.7989   -5.1272 H   0  0  0  0  0  0  0  0  0  0  0  0
   -0.4728   -1.7831   -4.1892 H   0  0  0  0  0  0  0  0  0  0  0  0
    3.9270    1.7190   -1.0426 H   0  0  0  0  0  0  0  0  0  0  0  0
    8.6621    5.3836   -0.8136 H   0  0  0  0  0  0  0  0  0  0  0  0
    7.7336    4.6518    0.5338 H   0  0  0  0  0  0  0  0  0  0  0  0
    5.9522    6.3476    0.2465 H   0  0  0  0  0  0  0  0  0  0  0  0
    7.5054    7.1452    0.5257 H   0  0  0  0  0  0  0  0  0  0  0  0
    6.8310    7.0727   -1.1100 H   0  0  0  0  0  0  0  0  0  0  0  0
    2.2972   -1.4850   -8.5514 H   0  0  0  0  0  0  0  0  0  0  0  0
    1.5780   -2.4668   -7.2417 H   0  0  0  0  0  0  0  0  0  0  0  0
   -0.1897   -1.6428   -8.7766 H   0  0  0  0  0  0  0  0  0  0  0  0
    0.3083    0.0246   -8.4854 H   0  0  0  0  0  0  0  0  0  0  0  0
   -0.3868   -0.9446   -7.1680 H   0  0  0  0  0  0  0  0  0  0  0  0
    5.7244    3.3841   -6.3540 H   0  0  0  0  0  0  0  0  0  0  0  0
    6.0215   -1.0045  -12.7741 H   0  0  0  0  0  0  0  0  0  0  0  0
    6.7305    3.1168  -11.8486 H   0  0  0  0  0  0  0  0  0  0  0  0
  1  2  2  0  0  0  0
  2  3  1  0  0  0  0
  3  4  2  0  0  0  0
  3  5  1  0  0  0  0
  5  6  2  0  0  0  0
  6  7  1  0  0  0  0
  7  8  2  0  0  0  0
  8  9  1  0  0  0  0
  9 10  2  0  0  0  0
 10 11  1  0  0  0  0
 11 12  2  0  0  0  0
 12 13  1  0  0  0  0
 13 14  3  0  0  0  0
 12 15  1  0  0  0  0
 15 16  3  0  0  0  0
  8 17  1  0  0  0  0
 17 18  1  0  0  0  0
 18 19  1  0  0  0  0
 19 20  2  0  0  0  0
 20 21  1  0  0  0  0
 21 22  1  0  0  0  0
 21 23  1  0  0  0  0
  1 24  1  0  0  0  0
 24 25  2  0  0  0  0
 25 26  1  0  0  0  0
 25 27  1  0  0  0  0
 27 28  1  0  0  0  0
 27 29  2  0  0  0  0
 29 30  1  0  0  0  0
 30 31  2  0  0  0  0
 31 32  1  0  0  0  0
 32 33  1  0  0  0  0
 33 34  1  0  0  0  0
 32 35  2  0  0  0  0
 35 36  1  0  0  0  0
 36 37  2  0  0  0  0
 35 38  1  0  0  0  0
 38 39  1  0  0  0  0
 29 40  1  0  0  0  0
 40 41  2  0  0  0  0
 41 42  1  0  0  0  0
 42 43  1  0  0  0  0
 43 44  2  0  0  0  0
 44 45  1  0  0  0  0
 45 46  2  0  0  0  0
 46 47  1  0  0  0  0
 47 48  1  0  0  0  0
 46 49  1  0  0  0  0
 49 50  2  0  0  0  0
 42 51  1  0  0  0  0
 51 52  2  0  0  0  0
 52 53  1  0  0  0  0
 53 54  2  0  0  0  0
 54 55  1  0  0  0  0
 55 56  1  0  0  0  0
 54 57  1  0  0  0  0
 57 58  2  0  0  0  0
 41 59  1  0  0  0  0
 59 60  1  0  0  0  0
 60 61  1  0  0  0  0
 61 62  2  0  0  0  0
 62 63  1  0  0  0  0
 63 64  1  0  0  0  0
 64 65  2  0  0  0  0
 65 66  1  0  0  0  0
 66 67  2  0  0  0  0
 67 68  1  0  0  0  0
 68 69  1  0  0  0  0
 67 70  1  0  0  0  0
 70 71  2  0  0  0  0
 63 72  1  0  0  0  0
 72 73  2  0  0  0  0
 73 74  1  0  0  0  0
 74 75  2  0  0  0  0
 75 76  1  0  0  0  0
 76 77  1  0  0  0  0
 75 78  1  0  0  0  0
 78 79  2  0  0  0  0
 62 80  1  0  0  0  0
 80 81  1  0  0  0  0
 61 82  1  0  0  0  0
 82 83  2  0  0  0  0
 83 84  1  0  0  0  0
 84 85  2  0  0  0  0
 85 86  1  0  0  0  0
 86 87  2  0  0  0  0
 86 88  1  0  0  0  0
 88 89  1  0  0  0  0
 89 90  1  0  0  0  0
 85 91  1  0  0  0  0
 91 92  1  0  0  0  0
 92 93  2  0  0  0  0
 93 94  1  0  0  0  0
 94 95  1  0  0  0  0
 95 96  2  0  0  0  0
 96 97  1  0  0  0  0
 97 98  1  0  0  0  0
 98 99  1  0  0  0  0
 97100  1  0  0  0  0
 93101  1  0  0  0  0
101102  2  0  0  0  0
102103  1  0  0  0  0
103104  2  0  0  0  0
103105  1  0  0  0  0
105106  2  0  0  0  0
106107  1  0  0  0  0
106108  1  0  0  0  0
108109  2  0  0  0  0
109110  1  0  0  0  0
109111  1  0  0  0  0
111112  2  0  0  0  0
112113  1  0  0  0  0
113114  2  0  0  0  0
114115  1  0  0  0  0
115116  3  0  0  0  0
114117  1  0  0  0  0
117118  3  0  0  0  0
 11  2  1  0  0  0  0
 23 17  1  0  0  0  0
 37 24  1  0  0  0  0
 81 40  1  0  0  0  0
 95 82  1  0  0  0  0
113102  1  0  0  0  0
 10  5  1  0  0  0  0
 22 18  1  0  0  0  0
 37 30  1  0  0  0  0
 50 43  1  0  0  0  0
 58 51  1  0  0  0  0
 80 59  2  0  0  0  0
 92 83  1  0  0  0  0
100 94  2  0  0  0  0
112105  1  0  0  0  0
 23  7  1  0  0  0  0
 71 64  1  0  0  0  0
 79 72  1  0  0  0  0
  1119  1  0  0  0  0
  6120  1  0  0  0  0
  9121  1  0  0  0  0
 17122  1  0  0  0  0
 18123  1  0  0  0  0
 19124  1  0  0  0  0
 20125  1  0  0  0  0
 21126  1  0  0  0  0
 22127  1  0  0  0  0
 22128  1  0  0  0  0
 23129  1  0  0  0  0
 33130  1  0  0  0  0
 33131  1  0  0  0  0
 34132  1  0  0  0  0
 34133  1  0  0  0  0
 34134  1  0  0  0  0
 38135  1  0  0  0  0
 38136  1  0  0  0  0
 39137  1  0  0  0  0
 39138  1  0  0  0  0
 39139  1  0  0  0  0
 44140  1  0  0  0  0
 45141  1  0  0  0  0
 48142  1  0  0  0  0
 48143  1  0  0  0  0
 48144  1  0  0  0  0
 49145  1  0  0  0  0
 50146  1  0  0  0  0
 52147  1  0  0  0  0
 53148  1  0  0  0  0
 56149  1  0  0  0  0
 56150  1  0  0  0  0
 56151  1  0  0  0  0
 57152  1  0  0  0  0
 58153  1  0  0  0  0
 65154  1  0  0  0  0
 66155  1  0  0  0  0
 69156  1  0  0  0  0
 69157  1  0  0  0  0
 69158  1  0  0  0  0
 70159  1  0  0  0  0
 71160  1  0  0  0  0
 73161  1  0  0  0  0
 74162  1  0  0  0  0
 77163  1  0  0  0  0
 77164  1  0  0  0  0
 77165  1  0  0  0  0
 78166  1  0  0  0  0
 79167  1  0  0  0  0
 84168  1  0  0  0  0
 89169  1  0  0  0  0
 89170  1  0  0  0  0
 90171  1  0  0  0  0
 90172  1  0  0  0  0
 90173  1  0  0  0  0
 98174  1  0  0  0  0
 98175  1  0  0  0  0
 99176  1  0  0  0  0
 99177  1  0  0  0  0
 99178  1  0  0  0  0
101179  1  0  0  0  0
108180  1  0  0  0  0
111181  1  0  0  0  0
M  END
