167

C         -2.11790        3.64100        6.80430
C         -3.09760        2.78880        6.40660
C         -2.89710        1.78350        5.32380
O         -1.89370        1.58670        4.66680
C         -4.11560        0.97090        5.29360
C         -4.36940       -0.09750        4.43550
C         -5.60600       -0.66620        4.61160
C         -6.52180       -0.20820        5.57060
C         -6.27120        0.82860        6.43900
C         -5.01550        1.42460        6.28030
C         -4.40170        2.54010        6.99640
C         -4.97880        3.27260        7.99840
C         -6.26240        3.02850        8.52980
N         -7.29550        2.88040        9.00800
C         -4.37170        4.38020        8.62830
N         -3.94830        5.29500        9.17710
C         -7.56870       -1.21420        5.16090
C         -8.73870       -0.71320        4.27650
C         -8.22050        0.47600        3.50590
C         -7.34940        0.03030        2.61050
C         -7.26180       -1.46840        2.75940
C         -8.70780       -1.78410        3.17380
C         -6.54200       -1.73150        4.10440
C         -0.99050        3.88540        5.94440
C          0.34780        3.75980        6.33890
C          1.41870        3.57550        5.36620
N          2.58970        3.33670        5.97200
S          2.36900        3.34830        7.55460
N          0.79760        3.63260        7.59090
C          1.17680        3.58350        3.99160
C         -0.11480        3.97580        3.60920
N         -0.55650        4.11690        2.35440
S         -2.12880        4.42180        2.39120
N         -2.35200        4.37500        3.97590
C         -1.18800        4.10940        4.57040
C          1.97330        2.92100        2.96590
C          1.86390        1.56390        2.76250
N          1.20540        0.66820        3.60900
C          1.66250        0.47810        4.91210
C          0.76680        0.26930        5.96170
C          1.23440        0.11180        7.24660
C          2.60340        0.15060        7.51310
S          3.07680       -0.03000        9.20650
C          4.87930        0.18540        9.18100
C          3.49750        0.34780        6.47020
C          3.02790        0.51560        5.18240
C          0.12660       -0.02580        3.06560
C         -0.64320        0.56830        2.06270
C         -1.63640       -0.14440        1.42790
C         -1.88000       -1.46390        1.78330
S         -3.09530       -2.39560        0.87660
C         -2.07480       -3.81900        0.35420
C         -1.16080       -2.04440        2.81940
C         -0.16180       -1.33450        3.45280
C          2.33080        1.19790        1.47960
S          2.24330       -0.27120        0.58670
C          2.79580        0.56650       -0.85780
C          3.03690        1.91520       -0.64010
N          3.33580        2.83730       -1.62710
C          2.77140        2.67990       -2.90290
C          1.45470        2.24580       -3.03710
C          0.93330        1.94000       -4.27800
C          1.71790        2.08580       -5.41430
S          1.19910        1.61450       -7.03400
C         -0.58970        1.35590       -6.86600
C          3.00950        2.59620       -5.29190
C          3.53430        2.88800       -4.05200
C          4.13970        3.93990       -1.32460
C          5.18110        3.82600       -0.40220
C          5.95730        4.91950       -0.09360
C          5.72330        6.15000       -0.70440
S          6.78710        7.47560       -0.22930
C          6.17840        8.89330       -1.18560
C          4.69730        6.26430       -1.63300
C          3.91140        5.17010       -1.93500
C          2.77610        2.26040        0.71360
S          2.68310        3.74840        1.60350
C          2.71560       -0.17790       -2.07800
C          1.65150       -0.97790       -2.41890
C          1.73740       -1.54180       -3.69840
C          0.60470       -2.24040       -4.30260
C          0.25490       -2.01500       -5.62880
C         -0.80460       -2.70600       -6.20540
C         -1.55140       -3.60060       -5.44070
C         -1.23130       -3.79020       -4.10050
O         -1.91440       -4.60860       -3.25710
C         -3.01280       -5.35330       -3.74820
C         -3.58340       -6.15920       -2.59160
C         -0.14990       -3.11680       -3.53630
O         -1.03250       -2.41310       -7.51570
C         -2.02610       -3.10640       -8.24470
C         -1.59110       -4.51040       -8.65330
C          2.93290       -1.22120       -4.33190
S          3.90920       -0.17100       -3.33260
C          3.41940       -1.55540       -5.62080
C          3.12630       -2.67580       -6.33050
S          3.48710       -2.80820       -8.04340
C          2.63040       -4.32900       -8.14800
C          2.44640       -4.93820       -9.36520
C          2.96290       -4.33680      -10.53170
N          3.37670       -3.86580      -11.49220
C          1.75190       -6.13480       -9.60420
N          1.18650       -7.09930       -9.87140
N          2.21580       -4.74720       -6.92620
C          1.58630       -6.02370       -6.64840
C          2.61090       -7.14920       -6.56910
C          2.50310       -3.90480       -5.85470
O          2.29380       -4.22980       -4.70760
H         -2.12980        4.12040        7.77320
H         -3.63890       -0.41080        3.70560
H         -6.98010        1.15720        7.18080
H         -7.90110       -1.90280        5.93500
H         -9.67500       -0.56850        4.80870
H         -8.49020        1.49290        3.72350
H         -6.74360        0.59870        1.92950
H         -6.84610       -2.01020        1.91440
H         -9.42590       -1.58940        2.37880
H         -8.84040       -2.79770        3.54940
H         -6.18900       -2.75660        4.19330
H         -0.29220        0.26550        5.75600
H          0.54490       -0.02920        8.06520
H          5.19350        0.12620       10.21830
H          5.34270       -0.61470        8.61120
H          5.13170        1.16000        8.77320
H          4.56050        0.37890        6.64310
H          3.72650        0.68150        4.37630
H         -0.45230        1.59200        1.77750
H         -2.22340        0.31160        0.64490
H         -1.03160       -3.57250        0.51940
H         -2.25300       -3.98710       -0.70380
H         -2.35370       -4.69930        0.92630
H         -1.36790       -3.06200        3.11640
H          0.41490       -1.79990        4.23800
H          0.84110        2.12350       -2.15680
H         -0.07890        1.57500       -4.34290
H         -0.79240        0.49320       -6.23780
H         -0.94850        1.16380       -7.87240
H         -1.05260        2.25520       -6.47050
H          3.60540        2.73230       -6.18110
H          4.54730        3.24880       -3.96060
H          5.38440        2.87280        0.06190
H          6.76220        4.83300        0.61990
H          5.14630        9.10390       -0.92090
H          6.28360        8.69880       -2.24900
H          6.80950        9.72930       -0.90060
H          4.49070        7.20130       -2.12400
H          3.10670        5.27040       -2.64810
H          0.79140       -1.08660       -1.78220
H          0.80270       -1.31490       -6.23880
H         -2.37580       -4.13600       -5.88020
H         -3.77970       -4.67660       -4.15020
H         -2.68070       -6.02790       -4.54980
H         -3.96010       -5.49340       -1.81990
H         -2.80820       -6.78790       -2.16200
H         -4.39630       -6.78630       -2.94630
H          0.10840       -3.32190       -2.51140
H         -2.17830       -2.49430       -9.13790
H         -2.96860       -3.13570       -7.68390
H         -2.37070       -4.97800       -9.24780
H         -1.39630       -5.12980       -7.78080
H         -0.68440       -4.45910       -9.25110
H          4.07180       -0.82450       -6.08410
H          1.09260       -5.90230       -5.67980
H          0.84020       -6.23270       -7.41630
H          3.12680       -7.27490       -7.51820
H          2.10620       -8.08030       -6.32930
H          3.34050       -6.93510       -5.79150
