
  xtb     02052216243D
 energy: -332.771023684015 gnorm: 0.000545160442 xtb: 6.4.1 (unknown)
181201  0     0  0            999 V2000
    4.2508   -3.2341   -7.5335 C   0  0  0  0  0  0  0  0  0  0  0  0
    4.6398   -2.4373   -8.5683 C   0  0  0  0  0  0  0  0  0  0  0  0
    4.8764   -0.9753   -8.4462 C   0  0  0  0  0  0  0  0  0  0  0  0
    4.6446   -0.2547   -7.4983 O   0  0  0  0  0  0  0  0  0  0  0  0
    5.6027   -0.5897   -9.6720 C   0  0  0  0  0  0  0  0  0  0  0  0
    6.0917    0.6762   -9.9854 C   0  0  0  0  0  0  0  0  0  0  0  0
    6.7727    0.7350  -11.1774 C   0  0  0  0  0  0  0  0  0  0  0  0
    6.9591   -0.3846  -11.9993 C   0  0  0  0  0  0  0  0  0  0  0  0
    6.4819   -1.6391  -11.7031 C   0  0  0  0  0  0  0  0  0  0  0  0
    5.7855   -1.7198  -10.4938 C   0  0  0  0  0  0  0  0  0  0  0  0
    5.1517   -2.8665   -9.8519 C   0  0  0  0  0  0  0  0  0  0  0  0
    4.9767   -4.1082  -10.4056 C   0  0  0  0  0  0  0  0  0  0  0  0
    5.4621   -4.4959  -11.6706 C   0  0  0  0  0  0  0  0  0  0  0  0
    5.8318   -4.8766  -12.6892 N   0  0  0  0  0  0  0  0  0  0  0  0
    4.2351   -5.1467   -9.8054 C   0  0  0  0  0  0  0  0  0  0  0  0
    3.6109   -6.0254   -9.4081 N   0  0  0  0  0  0  0  0  0  0  0  0
    7.7520    0.3957  -13.0178 C   0  0  0  0  0  0  0  0  0  0  0  0
    9.2911    0.2231  -13.0187 C   0  0  0  0  0  0  0  0  0  0  0  0
    9.6797   -0.1683  -11.6145 C   0  0  0  0  0  0  0  0  0  0  0  0
    9.5030    0.8905  -10.8356 C   0  0  0  0  0  0  0  0  0  0  0  0
    8.9920    2.0173  -11.6992 C   0  0  0  0  0  0  0  0  0  0  0  0
    9.7185    1.6995  -13.0159 C   0  0  0  0  0  0  0  0  0  0  0  0
    7.5439    1.6431  -12.1023 C   0  0  0  0  0  0  0  0  0  0  0  0
    3.6174   -2.7511   -6.3516 C   0  0  0  0  0  0  0  0  0  0  0  0
    3.9483   -3.2451   -5.0749 C   0  0  0  0  0  0  0  0  0  0  0  0
    3.3590   -2.7149   -3.8645 C   0  0  0  0  0  0  0  0  0  0  0  0
    3.8663   -3.2902   -2.7721 N   0  0  0  0  0  0  0  0  0  0  0  0
    4.9612   -4.3769   -3.2138 S   0  0  0  0  0  4  0  0  0  0  0  0
    4.8639   -4.1787   -4.8046 N   0  0  0  0  0  0  0  0  0  0  0  0
    2.3216   -1.7611   -3.8799 C   0  0  0  0  0  0  0  0  0  0  0  0
    1.9946   -1.2625   -5.1554 C   0  0  0  0  0  0  0  0  0  0  0  0
    1.1131   -0.2923   -5.4154 N   0  0  0  0  0  0  0  0  0  0  0  0
    1.0598   -0.0504   -6.9988 S   0  0  0  0  0  0  0  0  0  0  0  0
    2.1205   -1.1640   -7.4508 N   0  0  0  0  0  0  0  0  0  0  0  0
    2.6263   -1.7505   -6.3632 C   0  0  0  0  0  0  0  0  0  0  0  0
    1.6686   -1.3725   -2.6759 C   0  0  0  0  0  0  0  0  0  0  0  0
    0.3174   -1.0946   -2.4549 C   0  0  0  0  0  0  0  0  0  0  0  0
   -0.7108   -1.3207   -3.3399 N   0  0  0  0  0  0  0  0  0  0  0  0
   -1.8617   -0.5277   -3.2444 C   0  0  0  0  0  0  0  0  0  0  0  0
   -1.7437    0.8440   -3.0114 C   0  0  0  0  0  0  0  0  0  0  0  0
   -2.8686    1.6125   -2.8241 C   0  0  0  0  0  0  0  0  0  0  0  0
   -4.1368    1.0325   -2.8665 C   0  0  0  0  0  0  0  0  0  0  0  0
   -5.4972    2.1043   -2.5510 S   0  0  0  0  0  0  0  0  0  0  0  0
   -6.9042    0.9791   -2.3437 C   0  0  0  0  0  0  0  0  0  0  0  0
   -4.2578   -0.3226   -3.1540 C   0  0  0  0  0  0  0  0  0  0  0  0
   -3.1287   -1.0954   -3.3414 C   0  0  0  0  0  0  0  0  0  0  0  0
   -0.5939   -2.3211   -4.3117 C   0  0  0  0  0  0  0  0  0  0  0  0
   -1.0558   -2.1101   -5.6078 C   0  0  0  0  0  0  0  0  0  0  0  0
   -0.7480   -3.0055   -6.6136 C   0  0  0  0  0  0  0  0  0  0  0  0
    0.0129   -4.1352   -6.3353 C   0  0  0  0  0  0  0  0  0  0  0  0
    0.5843   -5.2552   -7.5677 S   0  0  0  0  0  0  0  0  0  0  0  0
    0.6607   -4.2091   -9.0487 C   0  0  0  0  0  0  0  0  0  0  0  0
    0.3569   -4.4149   -5.0123 C   0  0  0  0  0  0  0  0  0  0  0  0
    0.0548   -3.5215   -4.0121 C   0  0  0  0  0  0  0  0  0  0  0  0
    0.1082   -0.7036   -1.1110 C   0  0  0  0  0  0  0  0  0  0  0  0
   -1.2739   -0.2049   -0.2086 S   0  0  0  0  0  0  0  0  0  0  0  0
   -0.3067   -0.0682    1.2596 C   0  0  0  0  0  0  0  0  0  0  0  0
    1.0341   -0.3738    1.0364 C   0  0  0  0  0  0  0  0  0  0  0  0
    2.0770   -0.3444    1.9465 N   0  0  0  0  0  0  0  0  0  0  0  0
    2.3278    0.7365    2.7923 C   0  0  0  0  0  0  0  0  0  0  0  0
    3.2336    0.5879    3.8426 C   0  0  0  0  0  0  0  0  0  0  0  0
    3.5453    1.6491    4.6684 C   0  0  0  0  0  0  0  0  0  0  0  0
    2.9255    2.8796    4.4847 C   0  0  0  0  0  0  0  0  0  0  0  0
    3.2105    4.2968    5.4949 S   0  0  0  0  0  0  0  0  0  0  0  0
    4.5294    3.7731    6.6252 C   0  0  0  0  0  0  0  0  0  0  0  0
    2.0031    3.0274    3.4493 C   0  0  0  0  0  0  0  0  0  0  0  0
    1.7140    1.9769    2.6074 C   0  0  0  0  0  0  0  0  0  0  0  0
    3.0973   -1.2903    1.6866 C   0  0  0  0  0  0  0  0  0  0  0  0
    4.4056   -0.9013    1.4207 C   0  0  0  0  0  0  0  0  0  0  0  0
    5.3416   -1.8327    1.0163 C   0  0  0  0  0  0  0  0  0  0  0  0
    4.9784   -3.1647    0.8635 C   0  0  0  0  0  0  0  0  0  0  0  0
    6.0694   -4.4109    0.2589 S   0  0  0  0  0  0  0  0  0  0  0  0
    7.3858   -3.4536   -0.5472 C   0  0  0  0  0  0  0  0  0  0  0  0
    3.6863   -3.5671    1.1931 C   0  0  0  0  0  0  0  0  0  0  0  0
    2.7549   -2.6395    1.6024 C   0  0  0  0  0  0  0  0  0  0  0  0
    1.2421   -0.7464   -0.3168 C   0  0  0  0  0  0  0  0  0  0  0  0
    2.6248   -1.2774   -1.2124 S   0  0  0  0  0  0  0  0  0  0  0  0
   -1.0199    0.3011    2.4314 C   0  0  0  0  0  0  0  0  0  0  0  0
   -0.6843    0.2566    3.7603 C   0  0  0  0  0  0  0  0  0  0  0  0
   -1.7333    0.6532    4.6219 C   0  0  0  0  0  0  0  0  0  0  0  0
   -1.7308    0.7266    6.0328 C   0  0  0  0  0  0  0  0  0  0  0  0
   -0.5394    0.4728    6.8122 C   0  0  0  0  0  0  0  0  0  0  0  0
    0.7441    0.8752    6.5671 C   0  0  0  0  0  0  0  0  0  0  0  0
    1.6220    0.5220    7.6050 C   0  0  0  0  0  0  0  0  0  0  0  0
    2.9245    0.8564    7.5915 F   0  0  0  0  0  0  0  0  0  0  0  0
    1.0455   -0.1528    8.6487 C   0  0  0  0  0  0  0  0  0  0  0  0
    1.8523   -0.7526   10.0720 S   0  0  0  0  0  0  0  0  0  0  0  0
    0.4472   -0.8996   11.2352 C   0  0  0  0  0  0  0  0  0  0  0  0
   -0.0989    0.4486   11.6588 C   0  0  0  0  0  0  0  0  0  0  0  0
   -0.6411   -0.3939    8.3228 S   0  0  0  0  0  0  0  0  0  0  0  0
   -2.9298    1.0801    6.6430 C   0  0  0  0  0  0  0  0  0  0  0  0
   -4.1131    1.4104    5.9256 C   0  0  0  0  0  0  0  0  0  0  0  0
   -4.1052    1.3764    4.5094 C   0  0  0  0  0  0  0  0  0  0  0  0
   -5.2533    1.7394    3.7143 C   0  0  0  0  0  0  0  0  0  0  0  0
   -6.2491    3.1098    4.1339 S   0  0  0  0  0  0  0  0  0  0  0  0
   -7.2405    2.9061    2.7300 C   0  0  0  0  0  0  0  0  0  0  0  0
   -8.5621    3.9473    2.2828 S   0  0  0  0  0  0  0  0  0  0  0  0
   -8.6005    5.1362    3.6698 C   0  0  0  0  0  0  0  0  0  0  0  0
   -9.2765    4.5714    4.9023 C   0  0  0  0  0  0  0  0  0  0  0  0
   -6.8030    1.8214    2.0085 C   0  0  0  0  0  0  0  0  0  0  0  0
   -5.6842    1.1715    2.5431 C   0  0  0  0  0  0  0  0  0  0  0  0
   -7.3984    1.4110    0.8764 F   0  0  0  0  0  0  0  0  0  0  0  0
   -2.9173    0.9798    3.9100 C   0  0  0  0  0  0  0  0  0  0  0  0
   -2.6673    0.8523    2.1950 S   0  0  0  0  0  0  0  0  0  0  0  0
   -5.1922    1.7042    6.7736 C   0  0  0  0  0  0  0  0  0  0  0  0
   -4.8794    1.6462    8.1140 C   0  0  0  0  0  0  0  0  0  0  0  0
   -3.1860    1.2144    8.3535 S   0  0  0  0  0  0  0  0  0  0  0  0
   -5.6261    1.8315    9.2909 C   0  0  0  0  0  0  0  0  0  0  0  0
   -6.9496    2.1133    9.5170 C   0  0  0  0  0  0  0  0  0  0  0  0
   -8.0275    2.3432    8.5327 C   0  0  0  0  0  0  0  0  0  0  0  0
   -7.9564    2.3727    7.3210 O   0  0  0  0  0  0  0  0  0  0  0  0
   -9.2544    2.5600    9.3288 C   0  0  0  0  0  0  0  0  0  0  0  0
  -10.5556    2.7862    8.9048 C   0  0  0  0  0  0  0  0  0  0  0  0
  -10.9606    2.8206    7.2419 Cl  0  0  0  0  0  0  0  0  0  0  0  0
  -11.5539    2.9767    9.8560 C   0  0  0  0  0  0  0  0  0  0  0  0
  -11.2275    2.9349   11.2010 C   0  0  0  0  0  0  0  0  0  0  0  0
  -12.6015    3.2026   12.4783 Br  0  0  0  0  0  0  0  0  0  0  0  0
   -9.9327    2.6989   11.6511 C   0  0  0  0  0  0  0  0  0  0  0  0
   -8.9459    2.5076   10.7003 C   0  0  0  0  0  0  0  0  0  0  0  0
   -7.5175    2.2220   10.8478 C   0  0  0  0  0  0  0  0  0  0  0  0
   -6.8778    2.0703   12.0518 C   0  0  0  0  0  0  0  0  0  0  0  0
   -5.5160    1.7585   12.2584 C   0  0  0  0  0  0  0  0  0  0  0  0
   -4.4341    1.5000   12.5474 N   0  0  0  0  0  0  0  0  0  0  0  0
   -7.5076    2.1978   13.3092 C   0  0  0  0  0  0  0  0  0  0  0  0
   -7.9442    2.2850   14.3672 N   0  0  0  0  0  0  0  0  0  0  0  0
    4.4818   -4.2925   -7.5462 H   0  0  0  0  0  0  0  0  0  0  0  0
    5.9296    1.5119   -9.3225 H   0  0  0  0  0  0  0  0  0  0  0  0
    6.6400   -2.4942  -12.3393 H   0  0  0  0  0  0  0  0  0  0  0  0
    7.3376    0.4264  -14.0235 H   0  0  0  0  0  0  0  0  0  0  0  0
    9.6740   -0.4080  -13.8162 H   0  0  0  0  0  0  0  0  0  0  0  0
    9.9784   -1.1603  -11.3304 H   0  0  0  0  0  0  0  0  0  0  0  0
    9.6241    0.9596   -9.7704 H   0  0  0  0  0  0  0  0  0  0  0  0
    9.1037    3.0202  -11.2952 H   0  0  0  0  0  0  0  0  0  0  0  0
    9.3393    2.2627  -13.8676 H   0  0  0  0  0  0  0  0  0  0  0  0
   10.7977    1.8255  -12.9425 H   0  0  0  0  0  0  0  0  0  0  0  0
    6.9953    2.4896  -12.5108 H   0  0  0  0  0  0  0  0  0  0  0  0
   -0.7621    1.2922   -2.9828 H   0  0  0  0  0  0  0  0  0  0  0  0
   -2.7836    2.6711   -2.6341 H   0  0  0  0  0  0  0  0  0  0  0  0
   -7.7209    1.5966   -1.9838 H   0  0  0  0  0  0  0  0  0  0  0  0
   -7.1706    0.5272   -3.2949 H   0  0  0  0  0  0  0  0  0  0  0  0
   -6.6632    0.2293   -1.5972 H   0  0  0  0  0  0  0  0  0  0  0  0
   -5.2268   -0.7900   -3.2213 H   0  0  0  0  0  0  0  0  0  0  0  0
   -3.2247   -2.1518   -3.5453 H   0  0  0  0  0  0  0  0  0  0  0  0
   -1.6115   -1.2117   -5.8327 H   0  0  0  0  0  0  0  0  0  0  0  0
   -1.0825   -2.8034   -7.6187 H   0  0  0  0  0  0  0  0  0  0  0  0
   -0.3334   -4.0471   -9.4554 H   0  0  0  0  0  0  0  0  0  0  0  0
    1.2641   -4.7664   -9.7583 H   0  0  0  0  0  0  0  0  0  0  0  0
    1.1473   -3.2695   -8.8005 H   0  0  0  0  0  0  0  0  0  0  0  0
    0.8861   -5.3289   -4.7913 H   0  0  0  0  0  0  0  0  0  0  0  0
    0.3515   -3.7303   -2.9948 H   0  0  0  0  0  0  0  0  0  0  0  0
    3.7043   -0.3693    4.0100 H   0  0  0  0  0  0  0  0  0  0  0  0
    4.2566    1.4961    5.4622 H   0  0  0  0  0  0  0  0  0  0  0  0
    4.7417    4.6396    7.2438 H   0  0  0  0  0  0  0  0  0  0  0  0
    4.1874    2.9512    7.2458 H   0  0  0  0  0  0  0  0  0  0  0  0
    5.4132    3.4993    6.0565 H   0  0  0  0  0  0  0  0  0  0  0  0
    1.5256    3.9845    3.3057 H   0  0  0  0  0  0  0  0  0  0  0  0
    1.0262    2.1242    1.7899 H   0  0  0  0  0  0  0  0  0  0  0  0
    4.6811    0.1397    1.5009 H   0  0  0  0  0  0  0  0  0  0  0  0
    6.3445   -1.5021    0.8008 H   0  0  0  0  0  0  0  0  0  0  0  0
    6.9406   -2.7179   -1.2102 H   0  0  0  0  0  0  0  0  0  0  0  0
    7.9651   -4.1708   -1.1203 H   0  0  0  0  0  0  0  0  0  0  0  0
    8.0223   -2.9821    0.1961 H   0  0  0  0  0  0  0  0  0  0  0  0
    3.4199   -4.6084    1.1019 H   0  0  0  0  0  0  0  0  0  0  0  0
    1.7436   -2.9441    1.8283 H   0  0  0  0  0  0  0  0  0  0  0  0
    0.2656   -0.0956    4.1149 H   0  0  0  0  0  0  0  0  0  0  0  0
    1.0445    1.4571    5.7161 H   0  0  0  0  0  0  0  0  0  0  0  0
   -0.3124   -1.5143   10.7524 H   0  0  0  0  0  0  0  0  0  0  0  0
    0.8640   -1.4423   12.0829 H   0  0  0  0  0  0  0  0  0  0  0  0
    0.6803    1.0454   12.1270 H   0  0  0  0  0  0  0  0  0  0  0  0
   -0.4932    0.9957   10.8053 H   0  0  0  0  0  0  0  0  0  0  0  0
   -0.9081    0.3071   12.3714 H   0  0  0  0  0  0  0  0  0  0  0  0
   -7.5735    5.4418    3.8687 H   0  0  0  0  0  0  0  0  0  0  0  0
   -9.1577    5.9845    3.2719 H   0  0  0  0  0  0  0  0  0  0  0  0
   -9.3412    5.3437    5.6663 H   0  0  0  0  0  0  0  0  0  0  0  0
   -8.7188    3.7334    5.3137 H   0  0  0  0  0  0  0  0  0  0  0  0
  -10.2832    4.2387    4.6592 H   0  0  0  0  0  0  0  0  0  0  0  0
   -5.2515    0.2976    2.0936 H   0  0  0  0  0  0  0  0  0  0  0  0
   -6.1839    1.9373    6.4349 H   0  0  0  0  0  0  0  0  0  0  0  0
   -5.0210    1.7073   10.1810 H   0  0  0  0  0  0  0  0  0  0  0  0
  -12.5707    3.1534    9.5435 H   0  0  0  0  0  0  0  0  0  0  0  0
   -9.7296    2.6696   12.7083 H   0  0  0  0  0  0  0  0  0  0  0  0
  1  2  2  0  0  0  0
  2  3  1  0  0  0  0
  3  4  2  0  0  0  0
  3  5  1  0  0  0  0
  5  6  2  0  0  0  0
  6  7  1  0  0  0  0
  7  8  2  0  0  0  0
  8  9  1  0  0  0  0
  9 10  2  0  0  0  0
 10 11  1  0  0  0  0
 11 12  2  0  0  0  0
 12 13  1  0  0  0  0
 13 14  3  0  0  0  0
 12 15  1  0  0  0  0
 15 16  3  0  0  0  0
  8 17  1  0  0  0  0
 17 18  1  0  0  0  0
 18 19  1  0  0  0  0
 19 20  2  0  0  0  0
 20 21  1  0  0  0  0
 21 22  1  0  0  0  0
 21 23  1  0  0  0  0
  1 24  1  0  0  0  0
 24 25  2  0  0  0  0
 25 26  1  0  0  0  0
 26 27  1  0  0  0  0
 27 28  2  0  0  0  0
 28 29  2  0  0  0  0
 26 30  2  0  0  0  0
 30 31  1  0  0  0  0
 31 32  2  0  0  0  0
 32 33  1  0  0  0  0
 33 34  1  0  0  0  0
 34 35  2  0  0  0  0
 30 36  1  0  0  0  0
 36 37  2  0  0  0  0
 37 38  1  0  0  0  0
 38 39  1  0  0  0  0
 39 40  2  0  0  0  0
 40 41  1  0  0  0  0
 41 42  2  0  0  0  0
 42 43  1  0  0  0  0
 43 44  1  0  0  0  0
 42 45  1  0  0  0  0
 45 46  2  0  0  0  0
 38 47  1  0  0  0  0
 47 48  2  0  0  0  0
 48 49  1  0  0  0  0
 49 50  2  0  0  0  0
 50 51  1  0  0  0  0
 51 52  1  0  0  0  0
 50 53  1  0  0  0  0
 53 54  2  0  0  0  0
 37 55  1  0  0  0  0
 55 56  1  0  0  0  0
 56 57  1  0  0  0  0
 57 58  2  0  0  0  0
 58 59  1  0  0  0  0
 59 60  1  0  0  0  0
 60 61  2  0  0  0  0
 61 62  1  0  0  0  0
 62 63  2  0  0  0  0
 63 64  1  0  0  0  0
 64 65  1  0  0  0  0
 63 66  1  0  0  0  0
 66 67  2  0  0  0  0
 59 68  1  0  0  0  0
 68 69  2  0  0  0  0
 69 70  1  0  0  0  0
 70 71  2  0  0  0  0
 71 72  1  0  0  0  0
 72 73  1  0  0  0  0
 71 74  1  0  0  0  0
 74 75  2  0  0  0  0
 58 76  1  0  0  0  0
 76 77  1  0  0  0  0
 57 78  1  0  0  0  0
 78 79  2  0  0  0  0
 79 80  1  0  0  0  0
 80 81  2  0  0  0  0
 81 82  1  0  0  0  0
 82 83  2  0  0  0  0
 83 84  1  0  0  0  0
 84 85  1  0  0  0  0
 84 86  2  0  0  0  0
 86 87  1  0  0  0  0
 87 88  1  0  0  0  0
 88 89  1  0  0  0  0
 86 90  1  0  0  0  0
 81 91  1  0  0  0  0
 91 92  2  0  0  0  0
 92 93  1  0  0  0  0
 93 94  1  0  0  0  0
 94 95  1  0  0  0  0
 95 96  1  0  0  0  0
 96 97  1  0  0  0  0
 97 98  1  0  0  0  0
 98 99  1  0  0  0  0
 96100  2  0  0  0  0
100101  1  0  0  0  0
100102  1  0  0  0  0
 93103  2  0  0  0  0
103104  1  0  0  0  0
 92105  1  0  0  0  0
105106  2  0  0  0  0
106107  1  0  0  0  0
106108  1  0  0  0  0
108109  2  0  0  0  0
109110  1  0  0  0  0
110111  2  0  0  0  0
110112  1  0  0  0  0
112113  2  0  0  0  0
113114  1  0  0  0  0
113115  1  0  0  0  0
115116  2  0  0  0  0
116117  1  0  0  0  0
116118  1  0  0  0  0
118119  2  0  0  0  0
119120  1  0  0  0  0
120121  2  0  0  0  0
121122  1  0  0  0  0
122123  3  0  0  0  0
121124  1  0  0  0  0
124125  3  0  0  0  0
 11  2  1  0  0  0  0
 23 17  1  0  0  0  0
 35 24  1  0  0  0  0
 77 36  1  0  0  0  0
104 78  1  0  0  0  0
120109  1  0  0  0  0
 10  5  1  0  0  0  0
 22 18  1  0  0  0  0
 29 25  1  0  0  0  0
 35 31  1  0  0  0  0
 46 39  1  0  0  0  0
 54 47  1  0  0  0  0
 76 55  2  0  0  0  0
103 80  1  0  0  0  0
119112  1  0  0  0  0
 23  7  1  0  0  0  0
 67 60  1  0  0  0  0
 75 68  1  0  0  0  0
 90 82  1  0  0  0  0
107 91  1  0  0  0  0
101 94  2  0  0  0  0
  1126  1  0  0  0  0
  6127  1  0  0  0  0
  9128  1  0  0  0  0
 17129  1  0  0  0  0
 18130  1  0  0  0  0
 19131  1  0  0  0  0
 20132  1  0  0  0  0
 21133  1  0  0  0  0
 22134  1  0  0  0  0
 22135  1  0  0  0  0
 23136  1  0  0  0  0
 40137  1  0  0  0  0
 41138  1  0  0  0  0
 44139  1  0  0  0  0
 44140  1  0  0  0  0
 44141  1  0  0  0  0
 45142  1  0  0  0  0
 46143  1  0  0  0  0
 48144  1  0  0  0  0
 49145  1  0  0  0  0
 52146  1  0  0  0  0
 52147  1  0  0  0  0
 52148  1  0  0  0  0
 53149  1  0  0  0  0
 54150  1  0  0  0  0
 61151  1  0  0  0  0
 62152  1  0  0  0  0
 65153  1  0  0  0  0
 65154  1  0  0  0  0
 65155  1  0  0  0  0
 66156  1  0  0  0  0
 67157  1  0  0  0  0
 69158  1  0  0  0  0
 70159  1  0  0  0  0
 73160  1  0  0  0  0
 73161  1  0  0  0  0
 73162  1  0  0  0  0
 74163  1  0  0  0  0
 75164  1  0  0  0  0
 79165  1  0  0  0  0
 83166  1  0  0  0  0
 88167  1  0  0  0  0
 88168  1  0  0  0  0
 89169  1  0  0  0  0
 89170  1  0  0  0  0
 89171  1  0  0  0  0
 98172  1  0  0  0  0
 98173  1  0  0  0  0
 99174  1  0  0  0  0
 99175  1  0  0  0  0
 99176  1  0  0  0  0
101177  1  0  0  0  0
105178  1  0  0  0  0
108179  1  0  0  0  0
115180  1  0  0  0  0
118181  1  0  0  0  0
M  END
