
  xtb     02042211023D
 energy: -284.441828508770 gnorm: 0.000304419217 xtb: 6.4.1 (unknown)
150167  0     0  0            999 V2000
    1.8816   -0.6580    8.3049 C   0  0  0  0  0  0  0  0  0  0  0  0
    1.4105    0.4036    9.0186 C   0  0  0  0  0  0  0  0  0  0  0  0
    0.7297    1.5822    8.4228 C   0  0  0  0  0  0  0  0  0  0  0  0
    0.4230    1.7637    7.2629 O   0  0  0  0  0  0  0  0  0  0  0  0
    0.6324    2.5747    9.5101 C   0  0  0  0  0  0  0  0  0  0  0  0
    0.0912    3.8550    9.4203 C   0  0  0  0  0  0  0  0  0  0  0  0
    0.1562    4.5742   10.5890 C   0  0  0  0  0  0  0  0  0  0  0  0
    0.7310    4.0638   11.7608 C   0  0  0  0  0  0  0  0  0  0  0  0
    1.2781    2.8069   11.8605 C   0  0  0  0  0  0  0  0  0  0  0  0
    1.2123    2.0542   10.6843 C   0  0  0  0  0  0  0  0  0  0  0  0
    1.6765    0.6975   10.4112 C   0  0  0  0  0  0  0  0  0  0  0  0
    2.1850   -0.1814   11.3322 C   0  0  0  0  0  0  0  0  0  0  0  0
    2.5297   -1.5218   11.0573 C   0  0  0  0  0  0  0  0  0  0  0  0
    2.8108   -2.6275   10.9261 N   0  0  0  0  0  0  0  0  0  0  0  0
    2.3984    0.1211   12.6924 C   0  0  0  0  0  0  0  0  0  0  0  0
    2.6009    0.3018   13.8084 N   0  0  0  0  0  0  0  0  0  0  0  0
    0.4520    5.3241   12.5411 C   0  0  0  0  0  0  0  0  0  0  0  0
   -0.7390    5.3099   13.5310 C   0  0  0  0  0  0  0  0  0  0  0  0
   -1.7149    4.2827   13.0130 C   0  0  0  0  0  0  0  0  0  0  0  0
   -2.2604    4.7654   11.9046 C   0  0  0  0  0  0  0  0  0  0  0  0
   -1.6627    6.1276   11.6529 C   0  0  0  0  0  0  0  0  0  0  0  0
   -1.4508    6.6020   13.0994 C   0  0  0  0  0  0  0  0  0  0  0  0
   -0.1898    5.8920   11.2360 C   0  0  0  0  0  0  0  0  0  0  0  0
    1.4459   -1.0139    6.9988 C   0  0  0  0  0  0  0  0  0  0  0  0
    2.3294   -1.5687    6.0525 C   0  0  0  0  0  0  0  0  0  0  0  0
    1.9315   -1.8346    4.6876 C   0  0  0  0  0  0  0  0  0  0  0  0
    2.9514   -2.2920    3.9576 N   0  0  0  0  0  0  0  0  0  0  0  0
    4.2583   -2.3830    4.8803 S   0  0  0  0  0  4  0  0  0  0  0  0
    3.6222   -1.8403    6.2486 N   0  0  0  0  0  0  0  0  0  0  0  0
    0.6238   -1.6127    4.2099 C   0  0  0  0  0  0  0  0  0  0  0  0
   -0.2914   -1.1708    5.1914 C   0  0  0  0  0  0  0  0  0  0  0  0
   -1.6012   -0.9670    5.0206 N   0  0  0  0  0  0  0  0  0  0  0  0
   -2.2445   -0.4986    6.4115 S   0  0  0  0  0  0  0  0  0  0  0  0
   -0.9241   -0.5270    7.3108 N   0  0  0  0  0  0  0  0  0  0  0  0
    0.1150   -0.8811    6.5526 C   0  0  0  0  0  0  0  0  0  0  0  0
    0.2896   -1.7881    2.8401 C   0  0  0  0  0  0  0  0  0  0  0  0
   -0.9509   -1.6400    2.2664 C   0  0  0  0  0  0  0  0  0  0  0  0
   -0.9502   -1.8054    0.8681 C   0  0  0  0  0  0  0  0  0  0  0  0
   -2.0427   -1.6660   -0.0122 C   0  0  0  0  0  0  0  0  0  0  0  0
   -3.3694   -1.2673    0.4631 C   0  0  0  0  0  0  0  0  0  0  0  0
   -4.5052   -1.9623    0.0616 C   0  0  0  0  0  0  0  0  0  0  0  0
   -5.7645   -1.5940    0.4953 C   0  0  0  0  0  0  0  0  0  0  0  0
   -5.9187   -0.5022    1.3447 C   0  0  0  0  0  0  0  0  0  0  0  0
   -7.0938   -0.0494    1.8533 O   0  0  0  0  0  0  0  0  0  0  0  0
   -8.3156   -0.6136    1.4201 C   0  0  0  0  0  0  0  0  0  0  0  0
   -8.7200   -0.1392    0.0272 C   0  0  0  0  0  0  0  0  0  0  0  0
   -4.7805    0.2037    1.7455 C   0  0  0  0  0  0  0  0  0  0  0  0
   -3.5298   -0.1728    1.3147 C   0  0  0  0  0  0  0  0  0  0  0  0
   -1.7861   -1.9032   -1.3544 C   0  0  0  0  0  0  0  0  0  0  0  0
   -0.4947   -2.2283   -1.8376 C   0  0  0  0  0  0  0  0  0  0  0  0
    0.6102   -2.3165   -0.9683 C   0  0  0  0  0  0  0  0  0  0  0  0
    1.9590   -2.5388   -1.5014 C   0  0  0  0  0  0  0  0  0  0  0  0
    2.4182   -1.7715   -2.5675 C   0  0  0  0  0  0  0  0  0  0  0  0
    3.6739   -1.9684   -3.1083 C   0  0  0  0  0  0  0  0  0  0  0  0
    4.5096   -2.9524   -2.5898 C   0  0  0  0  0  0  0  0  0  0  0  0
    5.7460   -3.2671   -3.0582 O   0  0  0  0  0  0  0  0  0  0  0  0
    6.3033   -2.5316   -4.1293 C   0  0  0  0  0  0  0  0  0  0  0  0
    6.8610   -1.1793   -3.6958 C   0  0  0  0  0  0  0  0  0  0  0  0
    4.0609   -3.7117   -1.5059 C   0  0  0  0  0  0  0  0  0  0  0  0
    2.8099   -3.5059   -0.9687 C   0  0  0  0  0  0  0  0  0  0  0  0
    0.3459   -2.1289    0.3763 C   0  0  0  0  0  0  0  0  0  0  0  0
    1.5231   -2.1879    1.6652 S   0  0  0  0  0  0  0  0  0  0  0  0
   -0.5007   -2.4225   -3.2350 C   0  0  0  0  0  0  0  0  0  0  0  0
   -1.7105   -2.1782   -3.8271 C   0  0  0  0  0  0  0  0  0  0  0  0
   -2.9314   -1.7238   -2.6625 S   0  0  0  0  0  0  0  0  0  0  0  0
   -1.8325   -2.2150   -5.2707 C   0  0  0  0  0  0  0  0  0  0  0  0
   -1.1303   -3.2350   -5.9682 C   0  0  0  0  0  0  0  0  0  0  0  0
   -0.8314   -4.8254   -5.2971 S   0  0  0  0  0  0  0  0  0  0  0  0
   -2.2186   -5.1377   -4.1455 C   0  0  0  0  0  0  0  0  0  0  0  0
   -3.5757   -4.8900   -4.7701 C   0  0  0  0  0  0  0  0  0  0  0  0
   -0.6749   -3.0158   -7.2662 C   0  0  0  0  0  0  0  0  0  0  0  0
    0.2705   -4.2813   -8.0991 S   0  0  0  0  0  0  0  0  0  0  0  0
    2.0072   -3.8888   -7.6511 C   0  0  0  0  0  0  0  0  0  0  0  0
    2.2363   -3.5858   -6.1875 C   0  0  0  0  0  0  0  0  0  0  0  0
   -1.0106   -1.8440   -7.9304 C   0  0  0  0  0  0  0  0  0  0  0  0
   -1.9329   -0.9729   -7.3426 C   0  0  0  0  0  0  0  0  0  0  0  0
   -2.3861   -1.1673   -6.0265 C   0  0  0  0  0  0  0  0  0  0  0  0
   -3.4510   -0.3010   -5.4906 C   0  0  0  0  0  0  0  0  0  0  0  0
   -4.1330   -0.6124   -4.5284 O   0  0  0  0  0  0  0  0  0  0  0  0
   -3.7186    0.9120   -6.2702 C   0  0  0  0  0  0  0  0  0  0  0  0
   -3.1610    1.1441   -7.5645 C   0  0  0  0  0  0  0  0  0  0  0  0
   -2.2503    0.1864   -8.1666 C   0  0  0  0  0  0  0  0  0  0  0  0
   -1.7239    0.3155   -9.2688 O   0  0  0  0  0  0  0  0  0  0  0  0
   -3.5940    2.3207   -8.1120 C   0  0  0  0  0  0  0  0  0  0  0  0
   -4.6637    3.1559   -7.0707 S   0  0  0  0  0  0  0  0  0  0  0  0
   -4.5543    1.9218   -5.8865 C   0  0  0  0  0  0  0  0  0  0  0  0
   -0.4598   -1.5103   -9.2460 C   0  0  0  0  0  0  0  0  0  0  0  0
    0.8132   -1.0396   -9.3456 C   0  0  0  0  0  0  0  0  0  0  0  0
    1.5804   -0.6606   -8.1484 C   0  0  0  0  0  0  0  0  0  0  0  0
    1.2106   -0.6911   -6.9922 O   0  0  0  0  0  0  0  0  0  0  0  0
    2.8905   -0.1914   -8.6523 C   0  0  0  0  0  0  0  0  0  0  0  0
    3.9746    0.2687   -7.9274 C   0  0  0  0  0  0  0  0  0  0  0  0
    3.9958    0.1918   -6.2259 Cl  0  0  0  0  0  0  0  0  0  0  0  0
    5.0660    0.8012   -8.6234 C   0  0  0  0  0  0  0  0  0  0  0  0
    6.4493    1.3354   -7.7700 Cl  0  0  0  0  0  0  0  0  0  0  0  0
    5.0024    0.9357  -10.0097 C   0  0  0  0  0  0  0  0  0  0  0  0
    6.2956    1.6952  -10.8326 Cl  0  0  0  0  0  0  0  0  0  0  0  0
    3.8972    0.4704  -10.7420 C   0  0  0  0  0  0  0  0  0  0  0  0
    3.8283    0.8356  -12.4153 Cl  0  0  0  0  0  0  0  0  0  0  0  0
    2.8695   -0.1780  -10.0635 C   0  0  0  0  0  0  0  0  0  0  0  0
    1.6426   -0.8315  -10.5197 C   0  0  0  0  0  0  0  0  0  0  0  0
    1.3849   -1.3448  -11.7612 C   0  0  0  0  0  0  0  0  0  0  0  0
    0.1519   -1.9327  -12.1277 C   0  0  0  0  0  0  0  0  0  0  0  0
   -0.8213   -2.3997  -12.5164 N   0  0  0  0  0  0  0  0  0  0  0  0
    2.3086   -1.5171  -12.8152 C   0  0  0  0  0  0  0  0  0  0  0  0
    2.9926   -1.8098  -13.6889 N   0  0  0  0  0  0  0  0  0  0  0  0
    2.6846   -1.2645    8.7055 H   0  0  0  0  0  0  0  0  0  0  0  0
   -0.3346    4.2120    8.4956 H   0  0  0  0  0  0  0  0  0  0  0  0
    1.7284    2.4322   12.7647 H   0  0  0  0  0  0  0  0  0  0  0  0
    1.3220    5.8369   12.9464 H   0  0  0  0  0  0  0  0  0  0  0  0
   -0.4559    5.2185   14.5761 H   0  0  0  0  0  0  0  0  0  0  0  0
   -1.8604    3.3167   13.4597 H   0  0  0  0  0  0  0  0  0  0  0  0
   -2.9530    4.2830   11.2400 H   0  0  0  0  0  0  0  0  0  0  0  0
   -2.2209    6.7820   10.9882 H   0  0  0  0  0  0  0  0  0  0  0  0
   -0.8243    7.4896   13.1776 H   0  0  0  0  0  0  0  0  0  0  0  0
   -2.3873    6.7648   13.6308 H   0  0  0  0  0  0  0  0  0  0  0  0
    0.2613    6.7760   10.7892 H   0  0  0  0  0  0  0  0  0  0  0  0
   -1.8249   -1.4257    2.8526 H   0  0  0  0  0  0  0  0  0  0  0  0
   -4.4041   -2.8233   -0.5821 H   0  0  0  0  0  0  0  0  0  0  0  0
   -6.6131   -2.1728    0.1668 H   0  0  0  0  0  0  0  0  0  0  0  0
   -8.2740   -1.7089    1.4637 H   0  0  0  0  0  0  0  0  0  0  0  0
   -9.0471   -0.2692    2.1564 H   0  0  0  0  0  0  0  0  0  0  0  0
   -8.7952    0.9452    0.0158 H   0  0  0  0  0  0  0  0  0  0  0  0
   -9.6846   -0.5631   -0.2382 H   0  0  0  0  0  0  0  0  0  0  0  0
   -7.9846   -0.4397   -0.7152 H   0  0  0  0  0  0  0  0  0  0  0  0
   -4.9107    1.0521    2.3985 H   0  0  0  0  0  0  0  0  0  0  0  0
   -2.6667    0.4028    1.6132 H   0  0  0  0  0  0  0  0  0  0  0  0
    1.7949   -0.9861   -2.9699 H   0  0  0  0  0  0  0  0  0  0  0  0
    3.9816   -1.3461   -3.9326 H   0  0  0  0  0  0  0  0  0  0  0  0
    7.1155   -3.1649   -4.4977 H   0  0  0  0  0  0  0  0  0  0  0  0
    5.5708   -2.4073   -4.9370 H   0  0  0  0  0  0  0  0  0  0  0  0
    7.6169   -1.3213   -2.9277 H   0  0  0  0  0  0  0  0  0  0  0  0
    7.3117   -0.6806   -4.5495 H   0  0  0  0  0  0  0  0  0  0  0  0
    6.0758   -0.5453   -3.2917 H   0  0  0  0  0  0  0  0  0  0  0  0
    4.7180   -4.4676   -1.1061 H   0  0  0  0  0  0  0  0  0  0  0  0
    2.4768   -4.1142   -0.1419 H   0  0  0  0  0  0  0  0  0  0  0  0
    0.3747   -2.7091   -3.7889 H   0  0  0  0  0  0  0  0  0  0  0  0
   -2.0847   -6.1954   -3.9157 H   0  0  0  0  0  0  0  0  0  0  0  0
   -2.0720   -4.5595   -3.2356 H   0  0  0  0  0  0  0  0  0  0  0  0
   -3.6607   -5.4117   -5.7210 H   0  0  0  0  0  0  0  0  0  0  0  0
   -3.7479   -3.8285   -4.9371 H   0  0  0  0  0  0  0  0  0  0  0  0
   -4.3518   -5.2562   -4.1013 H   0  0  0  0  0  0  0  0  0  0  0  0
    2.3249   -3.0553   -8.2805 H   0  0  0  0  0  0  0  0  0  0  0  0
    2.5406   -4.7877   -7.9592 H   0  0  0  0  0  0  0  0  0  0  0  0
    1.7437   -2.6558   -5.9082 H   0  0  0  0  0  0  0  0  0  0  0  0
    3.3043   -3.4727   -6.0098 H   0  0  0  0  0  0  0  0  0  0  0  0
    1.8653   -4.3928   -5.5611 H   0  0  0  0  0  0  0  0  0  0  0  0
   -3.3340    2.7236   -9.0709 H   0  0  0  0  0  0  0  0  0  0  0  0
   -5.0974    1.9968   -4.9652 H   0  0  0  0  0  0  0  0  0  0  0  0
   -1.0245   -1.8180  -10.1146 H   0  0  0  0  0  0  0  0  0  0  0  0
  1  2  2  0  0  0  0
  2  3  1  0  0  0  0
  3  4  2  0  0  0  0
  3  5  1  0  0  0  0
  5  6  2  0  0  0  0
  6  7  1  0  0  0  0
  7  8  2  0  0  0  0
  8  9  1  0  0  0  0
  9 10  2  0  0  0  0
 10 11  1  0  0  0  0
 11 12  2  0  0  0  0
 12 13  1  0  0  0  0
 13 14  3  0  0  0  0
 12 15  1  0  0  0  0
 15 16  3  0  0  0  0
  8 17  1  0  0  0  0
 17 18  1  0  0  0  0
 18 19  1  0  0  0  0
 19 20  2  0  0  0  0
 20 21  1  0  0  0  0
 21 22  1  0  0  0  0
 21 23  1  0  0  0  0
  1 24  1  0  0  0  0
 24 25  2  0  0  0  0
 25 26  1  0  0  0  0
 26 27  1  0  0  0  0
 27 28  2  0  0  0  0
 28 29  2  0  0  0  0
 26 30  2  0  0  0  0
 30 31  1  0  0  0  0
 31 32  2  0  0  0  0
 32 33  1  0  0  0  0
 33 34  1  0  0  0  0
 34 35  2  0  0  0  0
 30 36  1  0  0  0  0
 36 37  2  0  0  0  0
 37 38  1  0  0  0  0
 38 39  2  0  0  0  0
 39 40  1  0  0  0  0
 40 41  2  0  0  0  0
 41 42  1  0  0  0  0
 42 43  2  0  0  0  0
 43 44  1  0  0  0  0
 44 45  1  0  0  0  0
 45 46  1  0  0  0  0
 43 47  1  0  0  0  0
 47 48  2  0  0  0  0
 39 49  1  0  0  0  0
 49 50  2  0  0  0  0
 50 51  1  0  0  0  0
 51 52  1  0  0  0  0
 52 53  2  0  0  0  0
 53 54  1  0  0  0  0
 54 55  2  0  0  0  0
 55 56  1  0  0  0  0
 56 57  1  0  0  0  0
 57 58  1  0  0  0  0
 55 59  1  0  0  0  0
 59 60  2  0  0  0  0
 51 61  2  0  0  0  0
 61 62  1  0  0  0  0
 50 63  1  0  0  0  0
 63 64  2  0  0  0  0
 64 65  1  0  0  0  0
 64 66  1  0  0  0  0
 66 67  2  0  0  0  0
 67 68  1  0  0  0  0
 68 69  1  0  0  0  0
 69 70  1  0  0  0  0
 67 71  1  0  0  0  0
 71 72  1  0  0  0  0
 72 73  1  0  0  0  0
 73 74  1  0  0  0  0
 71 75  2  0  0  0  0
 75 76  1  0  0  0  0
 76 77  2  0  0  0  0
 77 78  1  0  0  0  0
 78 79  2  0  0  0  0
 78 80  1  0  0  0  0
 80 81  1  0  0  0  0
 81 82  1  0  0  0  0
 82 83  2  0  0  0  0
 81 84  2  0  0  0  0
 84 85  1  0  0  0  0
 85 86  1  0  0  0  0
 75 87  1  0  0  0  0
 87 88  2  0  0  0  0
 88 89  1  0  0  0  0
 89 90  2  0  0  0  0
 89 91  1  0  0  0  0
 91 92  2  0  0  0  0
 92 93  1  0  0  0  0
 92 94  1  0  0  0  0
 94 95  1  0  0  0  0
 94 96  2  0  0  0  0
 96 97  1  0  0  0  0
 96 98  1  0  0  0  0
 98 99  1  0  0  0  0
 98100  2  0  0  0  0
100101  1  0  0  0  0
101102  2  0  0  0  0
102103  1  0  0  0  0
103104  3  0  0  0  0
102105  1  0  0  0  0
105106  3  0  0  0  0
 11  2  1  0  0  0  0
 23 17  1  0  0  0  0
 35 24  1  0  0  0  0
 62 36  1  0  0  0  0
 77 66  1  0  0  0  0
 86 80  2  0  0  0  0
101 88  1  0  0  0  0
 10  5  1  0  0  0  0
 22 18  1  0  0  0  0
 29 25  1  0  0  0  0
 35 31  1  0  0  0  0
 61 38  1  0  0  0  0
 82 76  1  0  0  0  0
100 91  1  0  0  0  0
 23  7  1  0  0  0  0
 48 40  1  0  0  0  0
 65 49  1  0  0  0  0
 60 52  1  0  0  0  0
  1107  1  0  0  0  0
  6108  1  0  0  0  0
  9109  1  0  0  0  0
 17110  1  0  0  0  0
 18111  1  0  0  0  0
 19112  1  0  0  0  0
 20113  1  0  0  0  0
 21114  1  0  0  0  0
 22115  1  0  0  0  0
 22116  1  0  0  0  0
 23117  1  0  0  0  0
 37118  1  0  0  0  0
 41119  1  0  0  0  0
 42120  1  0  0  0  0
 45121  1  0  0  0  0
 45122  1  0  0  0  0
 46123  1  0  0  0  0
 46124  1  0  0  0  0
 46125  1  0  0  0  0
 47126  1  0  0  0  0
 48127  1  0  0  0  0
 53128  1  0  0  0  0
 54129  1  0  0  0  0
 57130  1  0  0  0  0
 57131  1  0  0  0  0
 58132  1  0  0  0  0
 58133  1  0  0  0  0
 58134  1  0  0  0  0
 59135  1  0  0  0  0
 60136  1  0  0  0  0
 63137  1  0  0  0  0
 69138  1  0  0  0  0
 69139  1  0  0  0  0
 70140  1  0  0  0  0
 70141  1  0  0  0  0
 70142  1  0  0  0  0
 73143  1  0  0  0  0
 73144  1  0  0  0  0
 74145  1  0  0  0  0
 74146  1  0  0  0  0
 74147  1  0  0  0  0
 84148  1  0  0  0  0
 86149  1  0  0  0  0
 87150  1  0  0  0  0
M  END
