
  xtb     02152216003D
 energy: -208.319393953492 gnorm: 0.000532960217 xtb: 6.4.1 (unknown)
120134  0     0  0            999 V2000
   -1.6430   -5.8574    3.1162 C   0  0  0  0  0  0  0  0  0  0  0  0
   -1.2673   -6.4186    4.3125 C   0  0  0  0  0  0  0  0  0  0  0  0
   -0.4718   -5.7463    5.3314 C   0  0  0  0  0  0  0  0  0  0  0  0
    0.0241   -4.6279    5.2551 O   0  0  0  0  0  0  0  0  0  0  0  0
   -0.3792   -6.6669    6.4737 C   0  0  0  0  0  0  0  0  0  0  0  0
    0.2601   -6.4432    7.6904 C   0  0  0  0  0  0  0  0  0  0  0  0
    0.1596   -7.4909    8.5747 C   0  0  0  0  0  0  0  0  0  0  0  0
   -0.5313   -8.6716    8.2733 C   0  0  0  0  0  0  0  0  0  0  0  0
   -1.1658   -8.9048    7.0753 C   0  0  0  0  0  0  0  0  0  0  0  0
   -1.0708   -7.8558    6.1582 C   0  0  0  0  0  0  0  0  0  0  0  0
   -1.6119   -7.7368    4.8029 C   0  0  0  0  0  0  0  0  0  0  0  0
   -2.2990   -8.7166    4.1335 C   0  0  0  0  0  0  0  0  0  0  0  0
   -2.8052   -8.6165    2.8202 C   0  0  0  0  0  0  0  0  0  0  0  0
   -3.2472   -8.6270    1.7598 N   0  0  0  0  0  0  0  0  0  0  0  0
   -2.5912   -9.9918    4.6608 C   0  0  0  0  0  0  0  0  0  0  0  0
   -2.8642  -11.0484    5.0183 N   0  0  0  0  0  0  0  0  0  0  0  0
   -0.2283   -9.2868    9.6166 C   0  0  0  0  0  0  0  0  0  0  0  0
    0.8794  -10.3669    9.6829 C   0  0  0  0  0  0  0  0  0  0  0  0
    1.8183  -10.0871    8.5358 C   0  0  0  0  0  0  0  0  0  0  0  0
    2.4776   -8.9708    8.8157 C   0  0  0  0  0  0  0  0  0  0  0  0
    1.9971   -8.4760   10.1575 C   0  0  0  0  0  0  0  0  0  0  0  0
    1.7098   -9.8162   10.8532 C   0  0  0  0  0  0  0  0  0  0  0  0
    0.5469   -7.9731    9.9501 C   0  0  0  0  0  0  0  0  0  0  0  0
   -1.3698   -4.5899    2.5910 C   0  0  0  0  0  0  0  0  0  0  0  0
   -0.3262   -3.1713    3.2880 Se  0  0  0  0  0  2  0  0  0  0  0  0
   -0.7115   -2.1939    1.7289 C   0  0  0  0  0  0  0  0  0  0  0  0
   -1.5835   -2.8880    0.8929 C   0  0  0  0  0  0  0  0  0  0  0  0
   -2.2887   -2.5799   -0.3076 C   0  0  0  0  0  0  0  0  0  0  0  0
   -3.0684   -3.5930   -0.7432 C   0  0  0  0  0  0  0  0  0  0  0  0
   -3.9397   -3.6691   -1.9504 C   0  0  0  0  0  0  0  0  0  0  0  0
   -3.9546   -2.3825   -2.7670 C   0  0  0  0  0  0  0  0  0  0  0  0
   -3.0033   -5.0004    0.3134 S   0  0  0  0  0  0  0  0  0  0  0  0
   -1.9121   -4.1778    1.3712 C   0  0  0  0  0  0  0  0  0  0  0  0
   -0.1143   -0.9107    1.4766 C   0  0  0  0  0  0  0  0  0  0  0  0
    0.2188   -0.0656    2.5228 C   0  0  0  0  0  0  0  0  0  0  0  0
   -0.0222   -0.4740    3.7858 F   0  0  0  0  0  0  0  0  0  0  0  0
    0.7613    1.2117    2.3333 C   0  0  0  0  0  0  0  0  0  0  0  0
    0.9795    1.9760    3.4126 F   0  0  0  0  0  0  0  0  0  0  0  0
    1.0108    1.7034    1.0717 C   0  0  0  0  0  0  0  0  0  0  0  0
    0.7490    0.8458   -0.0281 C   0  0  0  0  0  0  0  0  0  0  0  0
    1.0370    1.2790   -1.2674 N   0  0  0  0  0  0  0  0  0  0  0  0
    0.8873    0.4746   -2.2880 C   0  0  0  0  0  0  0  0  0  0  0  0
    1.1903    1.0678   -3.6297 C   0  0  0  0  0  0  0  0  0  0  0  0
   -0.0282    1.8297   -4.1559 C   0  0  0  0  0  0  0  0  0  0  0  0
    0.4336   -0.8609   -2.0859 C   0  0  0  0  0  0  0  0  0  0  0  0
    0.1047   -1.2790   -0.8889 N   0  0  0  0  0  0  0  0  0  0  0  0
    0.2237   -0.4566    0.1652 C   0  0  0  0  0  0  0  0  0  0  0  0
    0.3427   -1.8774   -3.1829 C   0  0  0  0  0  0  0  0  0  0  0  0
    1.7097   -2.5242   -3.4201 C   0  0  0  0  0  0  0  0  0  0  0  0
    1.5627    3.0332    0.7951 C   0  0  0  0  0  0  0  0  0  0  0  0
    2.7760    3.4598    1.3307 C   0  0  0  0  0  0  0  0  0  0  0  0
    3.4309    2.6675    2.1940 F   0  0  0  0  0  0  0  0  0  0  0  0
    3.3546    4.6591    0.9696 C   0  0  0  0  0  0  0  0  0  0  0  0
    2.7315    5.4645    0.0174 C   0  0  0  0  0  0  0  0  0  0  0  0
    1.4824    5.0773   -0.4790 C   0  0  0  0  0  0  0  0  0  0  0  0
    0.9146    3.8837   -0.0988 C   0  0  0  0  0  0  0  0  0  0  0  0
    3.3692    6.6825   -0.4353 C   0  0  0  0  0  0  0  0  0  0  0  0
    3.3130    7.2105   -1.6746 C   0  0  0  0  0  0  0  0  0  0  0  0
    3.6978    8.6345   -1.9141 C   0  0  0  0  0  0  0  0  0  0  0  0
    4.3438    9.3404   -1.1770 O   0  0  0  0  0  0  0  0  0  0  0  0
    3.0639    8.9929   -3.1961 C   0  0  0  0  0  0  0  0  0  0  0  0
    3.0106   10.2562   -3.7842 C   0  0  0  0  0  0  0  0  0  0  0  0
    2.3210   10.2931   -4.9718 C   0  0  0  0  0  0  0  0  0  0  0  0
    1.7208    9.1591   -5.5391 C   0  0  0  0  0  0  0  0  0  0  0  0
    1.7741    7.9056   -4.9796 C   0  0  0  0  0  0  0  0  0  0  0  0
    2.4753    7.8448   -3.7707 C   0  0  0  0  0  0  0  0  0  0  0  0
    2.7687    6.6954   -2.9235 C   0  0  0  0  0  0  0  0  0  0  0  0
    2.7538    5.3860   -3.3159 C   0  0  0  0  0  0  0  0  0  0  0  0
    3.3188    4.3312   -2.5649 C   0  0  0  0  0  0  0  0  0  0  0  0
    3.8292    3.4374   -2.0584 N   0  0  0  0  0  0  0  0  0  0  0  0
    2.2506    4.9285   -4.5506 C   0  0  0  0  0  0  0  0  0  0  0  0
    1.8276    4.4850   -5.5215 N   0  0  0  0  0  0  0  0  0  0  0  0
    1.1821    9.9340   -6.7151 C   0  0  0  0  0  0  0  0  0  0  0  0
   -0.3188   10.2931   -6.6749 C   0  0  0  0  0  0  0  0  0  0  0  0
   -0.4463   11.4233   -7.6709 C   0  0  0  0  0  0  0  0  0  0  0  0
    0.1270   12.4957   -7.1399 C   0  0  0  0  0  0  0  0  0  0  0  0
    0.6507   12.1088   -5.7755 C   0  0  0  0  0  0  0  0  0  0  0  0
   -0.4156   11.0853   -5.3645 C   0  0  0  0  0  0  0  0  0  0  0  0
    1.8560   11.1960   -6.0870 C   0  0  0  0  0  0  0  0  0  0  0  0
   -2.2624   -6.4620    2.4612 H   0  0  0  0  0  0  0  0  0  0  0  0
    0.7746   -5.5152    7.8842 H   0  0  0  0  0  0  0  0  0  0  0  0
   -1.6955   -9.8182    6.8622 H   0  0  0  0  0  0  0  0  0  0  0  0
   -1.0912   -9.5386   10.2299 H   0  0  0  0  0  0  0  0  0  0  0  0
    0.5116  -11.3862    9.7650 H   0  0  0  0  0  0  0  0  0  0  0  0
    1.8629  -10.6796    7.6408 H   0  0  0  0  0  0  0  0  0  0  0  0
    3.1833   -8.4437    8.2007 H   0  0  0  0  0  0  0  0  0  0  0  0
    2.6488   -7.7745   10.6717 H   0  0  0  0  0  0  0  0  0  0  0  0
    2.6124  -10.3965   11.0389 H   0  0  0  0  0  0  0  0  0  0  0  0
    1.1423   -9.7127   11.7772 H   0  0  0  0  0  0  0  0  0  0  0  0
    0.1941   -7.3704   10.7849 H   0  0  0  0  0  0  0  0  0  0  0  0
   -2.2124   -1.6330   -0.8044 H   0  0  0  0  0  0  0  0  0  0  0  0
   -3.5962   -4.4981   -2.5775 H   0  0  0  0  0  0  0  0  0  0  0  0
   -4.9581   -3.9149   -1.6336 H   0  0  0  0  0  0  0  0  0  0  0  0
   -4.3305   -1.5545   -2.1708 H   0  0  0  0  0  0  0  0  0  0  0  0
   -4.6005   -2.5032   -3.6330 H   0  0  0  0  0  0  0  0  0  0  0  0
   -2.9544   -2.1356   -3.1149 H   0  0  0  0  0  0  0  0  0  0  0  0
    2.0169    1.7684   -3.5027 H   0  0  0  0  0  0  0  0  0  0  0  0
    1.4841    0.3006   -4.3438 H   0  0  0  0  0  0  0  0  0  0  0  0
    0.2205    2.3277   -5.0892 H   0  0  0  0  0  0  0  0  0  0  0  0
   -0.3330    2.5832   -3.4336 H   0  0  0  0  0  0  0  0  0  0  0  0
   -0.8651    1.1553   -4.3274 H   0  0  0  0  0  0  0  0  0  0  0  0
   -0.3627   -2.6481   -2.8683 H   0  0  0  0  0  0  0  0  0  0  0  0
   -0.0175   -1.4161   -4.1034 H   0  0  0  0  0  0  0  0  0  0  0  0
    2.0474   -3.0178   -2.5123 H   0  0  0  0  0  0  0  0  0  0  0  0
    1.6398   -3.2644   -4.2132 H   0  0  0  0  0  0  0  0  0  0  0  0
    2.4514   -1.7802   -3.7021 H   0  0  0  0  0  0  0  0  0  0  0  0
    4.3123    4.9310    1.3848 H   0  0  0  0  0  0  0  0  0  0  0  0
    0.9538    5.7297   -1.1586 H   0  0  0  0  0  0  0  0  0  0  0  0
   -0.0418    3.5863   -0.4982 H   0  0  0  0  0  0  0  0  0  0  0  0
    3.9138    7.2589    0.3049 H   0  0  0  0  0  0  0  0  0  0  0  0
    3.4860   11.1046   -3.3176 H   0  0  0  0  0  0  0  0  0  0  0  0
    1.3102    7.0388   -5.4214 H   0  0  0  0  0  0  0  0  0  0  0  0
    1.5128    9.5981   -7.6958 H   0  0  0  0  0  0  0  0  0  0  0  0
   -0.9921    9.4499   -6.8027 H   0  0  0  0  0  0  0  0  0  0  0  0
   -0.8771   11.3149   -8.6488 H   0  0  0  0  0  0  0  0  0  0  0  0
    0.2707   13.4623   -7.5855 H   0  0  0  0  0  0  0  0  0  0  0  0
    0.8605   12.9201   -5.0838 H   0  0  0  0  0  0  0  0  0  0  0  0
   -1.3947   11.5425   -5.2319 H   0  0  0  0  0  0  0  0  0  0  0  0
   -0.1599   10.5097   -4.4766 H   0  0  0  0  0  0  0  0  0  0  0  0
    2.6400   11.7012   -6.6476 H   0  0  0  0  0  0  0  0  0  0  0  0
  1  2  2  0  0  0  0
  2  3  1  0  0  0  0
  3  4  2  0  0  0  0
  3  5  1  0  0  0  0
  5  6  2  0  0  0  0
  6  7  1  0  0  0  0
  7  8  2  0  0  0  0
  8  9  1  0  0  0  0
  9 10  2  0  0  0  0
 10 11  1  0  0  0  0
 11 12  2  0  0  0  0
 12 13  1  0  0  0  0
 13 14  3  0  0  0  0
 12 15  1  0  0  0  0
 15 16  3  0  0  0  0
  8 17  1  0  0  0  0
 17 18  1  0  0  0  0
 18 19  1  0  0  0  0
 19 20  2  0  0  0  0
 20 21  1  0  0  0  0
 21 22  1  0  0  0  0
 21 23  1  0  0  0  0
  1 24  1  0  0  0  0
 24 25  1  0  0  0  0
 25 26  1  0  0  0  0
 26 27  2  0  0  0  0
 27 28  1  0  0  0  0
 28 29  2  0  0  0  0
 29 30  1  0  0  0  0
 30 31  1  0  0  0  0
 29 32  1  0  0  0  0
 32 33  1  0  0  0  0
 26 34  1  0  0  0  0
 34 35  2  0  0  0  0
 35 36  1  0  0  0  0
 35 37  1  0  0  0  0
 37 38  1  0  0  0  0
 37 39  2  0  0  0  0
 39 40  1  0  0  0  0
 40 41  2  0  0  0  0
 41 42  1  0  0  0  0
 42 43  1  0  0  0  0
 43 44  1  0  0  0  0
 42 45  2  0  0  0  0
 45 46  1  0  0  0  0
 46 47  2  0  0  0  0
 45 48  1  0  0  0  0
 48 49  1  0  0  0  0
 39 50  1  0  0  0  0
 50 51  2  0  0  0  0
 51 52  1  0  0  0  0
 51 53  1  0  0  0  0
 53 54  2  0  0  0  0
 54 55  1  0  0  0  0
 55 56  2  0  0  0  0
 54 57  1  0  0  0  0
 57 58  2  0  0  0  0
 58 59  1  0  0  0  0
 59 60  2  0  0  0  0
 59 61  1  0  0  0  0
 61 62  2  0  0  0  0
 62 63  1  0  0  0  0
 63 64  2  0  0  0  0
 64 65  1  0  0  0  0
 65 66  2  0  0  0  0
 66 67  1  0  0  0  0
 67 68  2  0  0  0  0
 68 69  1  0  0  0  0
 69 70  3  0  0  0  0
 68 71  1  0  0  0  0
 71 72  3  0  0  0  0
 64 73  1  0  0  0  0
 73 74  1  0  0  0  0
 74 75  1  0  0  0  0
 75 76  2  0  0  0  0
 76 77  1  0  0  0  0
 77 78  1  0  0  0  0
 77 79  1  0  0  0  0
 11  2  1  0  0  0  0
 23 17  1  0  0  0  0
 33 24  2  0  0  0  0
 47 34  1  0  0  0  0
 56 50  1  0  0  0  0
 67 58  1  0  0  0  0
 79 73  1  0  0  0  0
 10  5  1  0  0  0  0
 22 18  1  0  0  0  0
 33 27  1  0  0  0  0
 47 40  1  0  0  0  0
 66 61  1  0  0  0  0
 78 74  1  0  0  0  0
 23  7  1  0  0  0  0
 79 63  1  0  0  0  0
  1 80  1  0  0  0  0
  6 81  1  0  0  0  0
  9 82  1  0  0  0  0
 17 83  1  0  0  0  0
 18 84  1  0  0  0  0
 19 85  1  0  0  0  0
 20 86  1  0  0  0  0
 21 87  1  0  0  0  0
 22 88  1  0  0  0  0
 22 89  1  0  0  0  0
 23 90  1  0  0  0  0
 28 91  1  0  0  0  0
 30 92  1  0  0  0  0
 30 93  1  0  0  0  0
 31 94  1  0  0  0  0
 31 95  1  0  0  0  0
 31 96  1  0  0  0  0
 43 97  1  0  0  0  0
 43 98  1  0  0  0  0
 44 99  1  0  0  0  0
 44100  1  0  0  0  0
 44101  1  0  0  0  0
 48102  1  0  0  0  0
 48103  1  0  0  0  0
 49104  1  0  0  0  0
 49105  1  0  0  0  0
 49106  1  0  0  0  0
 53107  1  0  0  0  0
 55108  1  0  0  0  0
 56109  1  0  0  0  0
 57110  1  0  0  0  0
 62111  1  0  0  0  0
 65112  1  0  0  0  0
 73113  1  0  0  0  0
 74114  1  0  0  0  0
 75115  1  0  0  0  0
 76116  1  0  0  0  0
 77117  1  0  0  0  0
 78118  1  0  0  0  0
 78119  1  0  0  0  0
 79120  1  0  0  0  0
M  END
