191

C          7.47460        5.14200        1.35450
C          8.35740        5.13890        0.31720
C          8.24380        4.33840       -0.93010
O          7.50460        3.40030       -1.14500
C          9.31570        4.81880       -1.81650
C          9.53180        4.44570       -3.14110
C         10.61990        5.05250       -3.71990
C         11.43660        5.96030       -3.03050
C         11.23390        6.33560       -1.72400
C         10.13050        5.73030       -1.11390
C          9.60230        5.88710        0.23880
C         10.18990        6.61320        1.24140
C          9.69180        6.75730        2.55330
N          9.36040        6.92480        3.64040
C         11.41250        7.30660        1.11460
N         12.40080        7.89040        1.09150
C         12.34030        6.17150       -4.21920
C         13.71520        5.45840       -4.21680
C         13.56040        4.22930       -3.35570
C         12.78640        3.37250       -4.00840
C         12.40380        4.00670       -5.32300
C         13.67700        4.81720       -5.61340
C         11.42920        5.16260       -4.98700
C          6.17070        4.58270        1.37160
C          5.39660        4.29090        2.47750
C          4.19440        3.72880        1.99830
C          3.06450        3.16320        2.63430
C          2.86780        3.09690        4.05840
C          2.03790        2.25140        4.75050
C          2.07860        2.48670        6.13410
F          1.37680        1.74360        7.00840
C          2.90040        3.50040        6.53550
C          3.10070        4.03160        7.91140
C          2.17190        5.21980        8.17640
S          3.66980        4.19280        5.15350
C          2.13310        2.64120        1.74250
C          2.21460        2.73910        0.32820
C          3.33130        3.31420       -0.31010
C          3.49170        3.40990       -1.73770
S          2.13390        3.33160       -2.83240
C          3.14430        3.52480       -4.22120
C          2.59220        3.55790       -5.60360
C          1.73350        4.80160       -5.83790
C          4.44290        3.64690       -3.82090
C          4.65780        3.58860       -2.43430
F          5.45310        3.81170       -4.69530
C          4.31450        3.75440        0.58010
O          5.50430        4.27540        0.22960
C          1.05640        2.08750       -0.16060
C          0.38590        1.60160        0.93370
O          1.01430        1.96640        2.08890
C         -0.77880        0.80620        1.09190
C         -1.48770        0.00050        0.20140
N         -1.12590       -0.36890       -1.07220
C          0.20820       -0.40880       -1.50760
C          1.26190       -0.70970       -0.64940
C          2.57110       -0.61440       -1.08040
C          2.84900       -0.21490       -2.38030
S          4.48190        0.07650       -2.98040
C          5.43180        0.37100       -1.46150
C          1.79480       -0.01600       -3.27090
C          0.49040       -0.11300       -2.84300
C         -2.08550       -1.02710       -1.88400
C         -1.86930       -2.35080       -2.26600
C         -2.84160       -3.04090       -2.95280
C         -4.04410       -2.41750       -3.28580
S         -5.24680       -3.41820       -4.09980
C         -6.79890       -2.50070       -3.87490
C         -4.23060       -1.07710       -2.97580
C         -3.25660       -0.38730       -2.27360
C         -2.66090       -0.48030        0.83900
S         -4.00380       -1.40570        0.30030
C         -4.75220       -1.37170        1.90570
C         -3.89960       -0.76690        2.83940
N         -3.99070       -0.74400        4.21570
C         -4.34010       -1.86050        4.96790
C         -4.26340       -3.15000        4.43600
C         -4.69880       -4.23860        5.15840
C         -5.20740       -4.06430        6.44070
S         -5.86840       -5.38460        7.40050
C         -6.30210       -6.61430        6.13590
C         -5.18540       -2.79230        7.01870
C         -4.75490       -1.70550        6.29700
C         -3.42650        0.37850        4.86010
C         -3.80980        1.65830        4.47320
C         -3.20030        2.77160        5.01990
C         -2.19480        2.61570        5.96490
S         -1.29870        3.94950        6.68520
C         -1.87680        5.41180        5.77680
C         -1.83970        1.33450        6.38760
C         -2.44560        0.22710        5.84080
C         -2.77790       -0.18100        2.18430
S         -1.45430        0.79450        2.71870
C         -6.04300       -1.97740        1.92060
C         -6.61110       -2.33440        0.68890
C         -7.63230       -3.24820        0.58340
F         -8.08380       -3.49580       -0.67190
C         -8.19410       -3.92860        1.66520
C         -7.86280       -3.35650        2.91630
C         -6.83610       -2.34360        3.04090
N         -6.74800       -1.88810        4.28500
S         -7.77530       -2.69890        5.22180
N         -8.41370       -3.65240        4.08910
C         -9.00300       -5.10030        1.48610
C         -8.77320       -5.99110        0.48830
C         -9.82530       -6.88800       -0.06210
O        -10.84130       -7.25090        0.48260
C         -9.38970       -7.16350       -1.45070
C        -10.12530       -7.77800       -2.46290
C         -9.47920       -7.82600       -3.67590
C         -8.19140       -7.30830       -3.87630
C         -7.44670       -6.70870       -2.89030
C         -8.09090       -6.64720       -1.65200
C         -7.62380       -6.07880       -0.39880
C         -6.31860       -5.85240       -0.05140
C         -5.91630       -5.53300        1.26020
N         -5.52790       -5.33040        2.32230
C         -5.22160       -5.95330       -0.93020
N         -4.28490       -5.98120       -1.59360
C         -8.18580       -7.66570       -5.34040
C         -8.42600       -6.50260       -6.32590
C         -8.84480       -7.19220       -7.60400
C        -10.06470       -7.68010       -7.41810
C        -10.49180       -7.32730       -6.01130
C         -9.78690       -5.97360       -5.85420
C         -9.62190       -8.24040       -5.12040
H          7.74830        5.62990        2.27980
H          8.87380        3.74950       -3.63740
H         11.86790        7.04020       -1.21230
H         12.40300        7.19110       -4.59440
H         14.55770        6.10410       -3.98440
H         13.97020        4.13600       -2.36710
H         12.41960        2.41980       -3.67410
H         12.05200        3.33080       -6.09790
H         14.54210        4.18590       -5.81060
H         13.55720        5.53960       -6.41960
H         10.89430        5.52270       -5.86360
H          5.69100        4.43750        3.49590
H          1.43310        1.48670        4.30300
H          4.13940        4.34380        8.03820
H          2.88350        3.23500        8.62650
H          1.13350        4.91680        8.06070
H          2.38180        6.02600        7.47660
H          2.31820        5.58880        9.18790
H          3.42810        3.54470       -6.30620
H          1.98480        2.66520       -5.77490
H          0.89790        4.81820       -5.14140
H          2.32400        5.70330       -5.69220
H          1.34330        4.80240       -6.85240
H          5.63210        3.63170       -1.98640
H          0.75450        1.99300       -1.17980
H          1.05850       -1.01900        0.36460
H          3.36730       -0.84430       -0.39050
H          6.32150        0.91640       -1.76070
H          4.84380        0.98220       -0.78370
H          5.71090       -0.57300       -1.00160
H          2.01720        0.24400       -4.29400
H         -0.32280        0.07390       -3.52830
H         -0.94850       -2.84000       -1.98590
H         -2.70170       -4.07970       -3.20650
H         -7.58600       -3.16940       -4.20970
H         -6.93900       -2.27280       -2.82320
H         -6.80160       -1.59930       -4.48050
H         -5.13450       -0.56190       -3.25940
H         -3.41340        0.64780       -2.00750
H         -3.88570       -3.30680        3.43780
H         -4.65130       -5.21140        4.70000
H         -6.95660       -7.32720        6.62760
H         -5.41040       -7.12070        5.77810
H         -6.82740       -6.12460        5.32150
H         -5.53800       -2.67060        8.03120
H         -4.78870       -0.72070        6.73540
H         -4.58260        1.77680        3.72780
H         -3.51520        3.74980        4.69450
H         -2.92730        5.59230        5.98600
H         -1.28230        6.24140        6.14720
H         -1.70050        5.27690        4.71370
H         -1.06430        1.22160        7.12810
H         -2.14570       -0.76300        6.14890
H         -6.21660       -1.93470       -0.23190
H         -9.85200       -5.24690        2.14020
H        -11.11500       -8.16400       -2.27490
H         -6.46560       -6.29270       -3.05340
H         -7.39620       -8.34130       -5.66270
H         -7.60640       -5.79240       -6.39620
H         -8.20950       -7.29960       -8.46350
H        -10.65210       -8.27660       -8.09120
H        -11.55710       -7.36500       -5.79960
H        -10.19150       -5.21940       -6.52750
H         -9.78610       -5.58960       -4.83550
H         -9.79360       -9.29990       -5.30040
