236

C         -7.44990       -3.99210       -4.53800
C         -8.46440       -4.46950       -3.77910
C         -9.22910       -5.68090       -4.18590
O         -9.24130       -6.19910       -5.27910
C         -9.91230       -6.13300       -2.95690
C        -10.63650       -7.31020       -2.77670
C        -11.13130       -7.47460       -1.50500
C        -10.92680       -6.53930       -0.48080
C        -10.22640       -5.36840       -0.64440
C         -9.71350       -5.18400       -1.93100
C         -8.94910       -4.07000       -2.47450
C         -8.88570       -2.79720       -1.97230
C         -9.42850       -2.40310       -0.73370
N         -9.85080       -2.04590        0.27200
C         -8.37500       -1.72970       -2.73450
N         -8.05010       -0.83260       -3.37390
C        -11.68560       -7.36100        0.53100
C        -10.83890       -8.15210        1.55060
C        -11.79100       -9.20330        2.07340
C        -11.98670      -10.08820        1.10410
C        -11.16960       -9.65000       -0.08990
C         -9.97050       -9.01780        0.62850
C        -11.91560       -8.40280       -0.61040
C         -6.35330       -3.14970       -4.13940
C         -5.81830       -2.20520       -5.03730
C         -6.32370       -1.84000       -6.31590
C         -5.59000       -0.88990       -6.93980
C         -5.81230       -0.28340       -8.28090
C         -4.70950       -0.68260       -9.26280
S         -4.21990       -0.38560       -5.98500
C         -4.66390       -1.47000       -4.70130
C         -3.95320       -1.67000       -3.51940
C         -4.49450       -2.59580       -2.60870
C         -5.68600       -3.28740       -2.91820
S         -6.09750       -4.40340       -1.64520
C         -4.70790       -3.91890       -0.70310
C         -4.43420       -4.57900        0.60130
C         -3.91640       -6.00290        0.39200
C         -3.98380       -2.96840       -1.32960
C         -2.69720       -1.00110       -3.26440
C         -2.40140        0.34080       -3.41360
N         -3.33250        1.32430       -3.72020
C         -2.91610        2.42170       -4.47590
C         -3.46050        3.69290       -4.29080
C         -2.99450        4.75910       -5.02620
C         -1.95990        4.59610       -5.94320
S         -1.40230        6.04940       -6.78190
C          0.18970        5.54150       -7.49320
C         -1.43610        3.32970       -6.15550
C         -1.91910        2.25470       -5.43650
C         -4.55750        1.31340       -3.03160
C         -4.61980        0.84700       -1.71890
C         -5.81520        0.84140       -1.03730
C         -6.97250        1.32720       -1.63920
S         -8.42840        1.32610       -0.64310
C         -9.75880        1.66940       -1.82620
C         -6.91660        1.79240       -2.94560
C         -5.72310        1.76750       -3.63880
C         -1.06750        0.61610       -3.02940
S         -0.14800        2.06540       -2.85090
C          1.11700        1.18780       -1.99800
C          0.88480       -0.18640       -2.00840
N          1.73530       -1.16410       -1.48620
C          2.97460       -1.40470       -2.08730
C          3.97840       -2.07360       -1.38280
C          5.21090       -2.27940       -1.95530
C          5.48320       -1.81740       -3.24240
S          7.10480       -2.13930       -3.86360
C          7.06560       -1.48590       -5.55660
C          4.49390       -1.14390       -3.94340
C          3.25180       -0.94330       -3.37080
C          1.13470       -2.08860       -0.62130
C          0.23830       -1.62060        0.34120
C         -0.40460       -2.50070        1.18170
C         -0.15840       -3.86870        1.08990
S         -1.01660       -4.90960        2.23300
C         -0.13810       -6.49120        2.10330
C          0.72550       -4.33980        0.13030
C          1.36190       -3.45750       -0.71980
C         -0.37280       -0.48900       -2.56800
S         -1.32740       -1.92580       -2.65890
C          2.15190        1.85140       -1.29190
C          2.40400        3.21240       -1.12160
N          1.68360        4.28010       -1.65890
C          2.44730        5.30350       -2.24220
C          2.19860        6.64760       -1.98320
C          2.97430        7.63120       -2.56460
C          4.02560        7.28660       -3.40370
S          5.07570        8.45350       -4.20950
C          4.62970       10.03970       -3.44850
C          4.28640        5.94100       -3.65500
C          3.50600        4.96150       -3.08490
C          0.32980        4.44730       -1.36770
C         -0.48290        5.22680       -2.19630
C         -1.83250        5.32110       -1.95550
C         -2.42300        4.61590       -0.90750
S         -4.18090        4.73630       -0.77610
C         -4.59490        3.70280        0.65430
C         -1.61950        3.86600       -0.06180
C         -0.25660        3.79830       -0.28170
C          3.51610        3.42090       -0.27660
S          4.35980        4.82800        0.25180
C          5.40310        3.84310        1.29390
C          5.14280        2.46560        1.14370
N          5.86100        1.42290        1.66790
C          7.21730        1.54020        1.98970
C          8.08740        2.27600        1.18160
C          9.39720        2.45710        1.55730
C          9.87660        1.91010        2.74970
S         11.54020        2.29340        3.17680
C         11.68830        1.71730        4.89180
C          9.03570        1.11670        3.51840
C          7.71920        0.93490        3.14030
C          5.20850        0.19850        1.90900
C          5.82920       -1.00510        1.58060
C          5.18860       -2.20060        1.82580
C          3.91390       -2.21680        2.38840
S          3.15920       -3.79480        2.63600
C          1.89810       -3.45460        3.89800
C          3.29250       -1.01870        2.71340
C          3.94160        0.17790        2.48560
C          4.06020        2.26390        0.26030
S          3.24450        0.85900       -0.32910
C          6.33750        4.53270        2.07250
C          6.91120        4.08140        3.24120
C          6.28100        3.10580        4.14230
O          5.21290        2.53910        3.99200
C          7.13830        3.05980        5.34690
C          6.95200        2.27490        6.48110
C          7.92470        2.43430        7.44000
C          8.99760        3.32040        7.28800
C          9.18950        4.10680        6.17550
C          8.21630        3.95050        5.18520
C          8.10510        4.57750        3.86910
C          9.05450        5.37150        3.27370
C          8.97480        5.82560        1.94240
N          8.98720        6.20430        0.85780
C         10.24960        5.78340        3.89260
N         11.23310        6.15660        4.35410
C          9.57810        2.97840        8.63870
C          9.34020        3.99970        9.77030
C          9.57910        3.20330       11.03280
C          8.56310        2.36220       11.17740
C          7.62030        2.57630       10.01520
C          7.80850        4.08310        9.79690
C          8.38110        1.98820        8.80830
H         -7.40930       -4.36750       -5.55580
H        -10.77620       -8.00610       -3.58900
H        -10.06890       -4.65230        0.14560
H        -12.55180       -6.87900        0.97990
H        -10.32990       -7.54090        2.29080
H        -12.25280       -9.16590        3.04250
H        -12.64460      -10.93730        1.10200
H        -10.96160      -10.40440       -0.84390
H         -9.31130       -8.44810       -0.02410
H         -9.38860       -9.75300        1.18210
H        -12.93610       -8.61620       -0.92270
H         -7.21670       -2.26370       -6.73890
H         -6.78280       -0.61050       -8.65890
H         -5.82860        0.80570       -8.18790
H         -4.68030       -1.76350       -9.38080
H         -3.74180       -0.34730       -8.89670
H         -4.89020       -0.23130      -10.23490
H         -3.68490       -3.99830        1.14260
H         -5.34830       -4.61180        1.19880
H         -3.00730       -5.98400       -0.20510
H         -3.69530       -6.46270        1.35140
H         -4.65950       -6.60610       -0.12530
H         -3.10350       -2.53730       -0.88910
H         -4.23100        3.85020       -3.55280
H         -3.41900        5.74150       -4.88610
H          0.03240        4.85360       -8.31920
H          0.80810        5.09580       -6.71950
H          0.65310        6.45240       -7.85940
H         -0.65840        3.16220       -6.88340
H         -1.52190        1.26880       -5.62740
H         -3.72340        0.49150       -1.23090
H         -5.86660        0.47190       -0.02380
H         -9.67170        0.98650       -2.66610
H         -9.71520        2.70570       -2.14920
H        -10.68400        1.48710       -1.28830
H         -7.79800        2.16420       -3.44040
H         -5.69020        2.11130       -4.66170
H          3.78650       -2.41470       -0.37840
H          5.98480       -2.79460       -1.40760
H          6.29570       -1.99240       -6.13130
H          6.90550       -0.41180       -5.53890
H          8.04260       -1.70490       -5.97600
H          4.67010       -0.77150       -4.93970
H          2.48930       -0.42330       -3.93200
H          0.05540       -0.55910        0.42340
H         -1.10130       -2.13900        1.92430
H         -0.49980       -7.09900        2.92700
H          0.93010       -6.32170        2.20380
H         -0.37370       -6.97580        1.16010
H          0.92070       -5.39410        0.02380
H          2.03060       -3.83780       -1.47660
H          1.39720        6.92460       -1.31500
H          2.75210        8.66290       -2.34540
H          5.33170       10.76360       -3.85050
H          4.74390        9.97320       -2.37060
H          3.61660       10.31830       -3.72440
H          5.10690        5.67820       -4.30500
H          3.70980        3.91950       -3.28540
H         -0.05280        5.73810       -3.04330
H         -2.45390        5.92840       -2.59280
H         -4.26400        2.68390        0.47910
H         -5.67790        3.72370        0.72720
H         -4.15330        4.12000        1.55490
H         -2.03770        3.32970        0.77520
H          0.35830        3.21570        0.38900
H          7.72780        2.71710        0.26460
H         10.06400        3.04010        0.94090
H         12.65010        2.08380        5.23670
H         11.67260        0.63180        4.92830
H         10.89090        2.14750        5.49140
H          9.38520        0.65060        4.42540
H          7.06450        0.33360        3.75310
H          6.81290       -0.99700        1.13550
H          5.66630       -3.13630        1.57810
H          1.06530       -2.91170        3.46150
H          2.34930       -2.90080        4.71540
H          1.55700       -4.42300        4.25040
H          2.30570       -1.00630        3.14700
H          3.48250        1.10850        2.77920
H          6.58710        5.52890        1.72700
H          6.11000        1.60480        6.56010
H         10.01610        4.79050        6.07300
H         10.59020        2.57630        8.63520
H          9.89140        4.93030        9.66670
H         10.46050        3.29190       11.64040
H          8.42630        1.60770       11.93000
H          6.60400        2.21060       10.13570
H          7.44280        4.66990       10.63790
H          7.36830        4.45590        8.87400
H          8.59620        0.92630        8.91740
