
  xtb     02152207323D
 energy: -413.718293591002 gnorm: 0.000321679030 xtb: 6.4.1 (unknown)
250276  0     0  0            999 V2000
   -6.7917   -6.4865    4.8603 C   0  0  0  0  0  0  0  0  0  0  0  0
   -7.0674   -6.5408    6.2062 C   0  0  0  0  0  0  0  0  0  0  0  0
   -6.7909   -5.5030    7.2048 C   0  0  0  0  0  0  0  0  0  0  0  0
   -6.0302   -4.5540    7.1105 O   0  0  0  0  0  0  0  0  0  0  0  0
   -7.5927   -5.8496    8.3908 C   0  0  0  0  0  0  0  0  0  0  0  0
   -7.7293   -5.1030    9.5583 C   0  0  0  0  0  0  0  0  0  0  0  0
   -8.5407   -5.6879   10.5010 C   0  0  0  0  0  0  0  0  0  0  0  0
   -9.1722   -6.9213   10.2965 C   0  0  0  0  0  0  0  0  0  0  0  0
   -9.0558   -7.6612    9.1427 C   0  0  0  0  0  0  0  0  0  0  0  0
   -8.2340   -7.0849    8.1704 C   0  0  0  0  0  0  0  0  0  0  0  0
   -7.8717   -7.5624    6.8368 C   0  0  0  0  0  0  0  0  0  0  0  0
   -8.2348   -8.7739    6.3010 C   0  0  0  0  0  0  0  0  0  0  0  0
   -7.7687   -9.2995    5.0818 C   0  0  0  0  0  0  0  0  0  0  0  0
   -7.4237   -9.8313    4.1220 N   0  0  0  0  0  0  0  0  0  0  0  0
   -9.1045   -9.6984    6.9119 C   0  0  0  0  0  0  0  0  0  0  0  0
   -9.8190  -10.5005    7.3197 N   0  0  0  0  0  0  0  0  0  0  0  0
   -9.8217   -6.9049   11.6583 C   0  0  0  0  0  0  0  0  0  0  0  0
   -9.1787   -7.7986   12.7398 C   0  0  0  0  0  0  0  0  0  0  0  0
   -9.6994   -7.2262   14.0385 C   0  0  0  0  0  0  0  0  0  0  0  0
   -9.1034   -6.0566   14.2316 C   0  0  0  0  0  0  0  0  0  0  0  0
   -8.1698   -5.8189   13.0668 C   0  0  0  0  0  0  0  0  0  0  0  0
   -7.7415   -7.2624   12.7730 C   0  0  0  0  0  0  0  0  0  0  0  0
   -9.1189   -5.5278   11.8850 C   0  0  0  0  0  0  0  0  0  0  0  0
   -6.1919   -5.4758    4.1049 C   0  0  0  0  0  0  0  0  0  0  0  0
   -6.2034   -5.4196    2.6896 C   0  0  0  0  0  0  0  0  0  0  0  0
   -6.8697   -6.2836    1.8551 N   0  0  0  0  0  0  0  0  0  0  0  0
   -8.0996   -6.8649    2.2092 C   0  0  0  0  0  0  0  0  0  0  0  0
   -9.0510   -6.1328    2.9230 C   0  0  0  0  0  0  0  0  0  0  0  0
  -10.2002   -6.7446    3.3675 C   0  0  0  0  0  0  0  0  0  0  0  0
  -10.4383   -8.0898    3.0856 C   0  0  0  0  0  0  0  0  0  0  0  0
  -11.8886   -8.8135    3.7830 S   0  0  0  0  0  0  0  0  0  0  0  0
  -11.5054  -10.5881    3.7691 C   0  0  0  0  0  0  0  0  0  0  0  0
   -9.5418   -8.7900    2.2903 C   0  0  0  0  0  0  0  0  0  0  0  0
   -8.3751   -8.1849    1.8649 C   0  0  0  0  0  0  0  0  0  0  0  0
   -6.3295   -6.5442    0.5845 C   0  0  0  0  0  0  0  0  0  0  0  0
   -4.9564   -6.7424    0.4322 C   0  0  0  0  0  0  0  0  0  0  0  0
   -4.4248   -6.9787   -0.8145 C   0  0  0  0  0  0  0  0  0  0  0  0
   -5.2502   -7.0335   -1.9368 C   0  0  0  0  0  0  0  0  0  0  0  0
   -4.4507   -7.3303   -3.4799 S   0  0  0  0  0  0  0  0  0  0  0  0
   -5.8074   -7.3671   -4.6837 C   0  0  0  0  0  0  0  0  0  0  0  0
   -6.6197   -6.8583   -1.7854 C   0  0  0  0  0  0  0  0  0  0  0  0
   -7.1523   -6.6136   -0.5349 C   0  0  0  0  0  0  0  0  0  0  0  0
   -5.4571   -4.3204    2.2256 C   0  0  0  0  0  0  0  0  0  0  0  0
   -5.0724   -3.6844    0.6554 S   0  0  0  0  0  0  0  0  0  0  0  0
   -4.1857   -2.3602    1.3937 C   0  0  0  0  0  0  0  0  0  0  0  0
   -4.1451   -2.4455    2.7772 C   0  0  0  0  0  0  0  0  0  0  0  0
   -3.4077   -1.6384    3.6260 N   0  0  0  0  0  0  0  0  0  0  0  0
   -2.1433   -1.1588    3.2687 C   0  0  0  0  0  0  0  0  0  0  0  0
   -1.3073   -1.8886    2.4266 C   0  0  0  0  0  0  0  0  0  0  0  0
   -0.1359   -1.3388    1.9433 C   0  0  0  0  0  0  0  0  0  0  0  0
    0.2327   -0.0541    2.3151 C   0  0  0  0  0  0  0  0  0  0  0  0
    1.6436    0.7915    1.6735 S   0  0  0  0  0  0  0  0  0  0  0  0
    2.4082   -0.4092    0.5508 C   0  0  0  0  0  0  0  0  0  0  0  0
   -0.5510    0.6427    3.2340 C   0  0  0  0  0  0  0  0  0  0  0  0
   -1.7246    0.1003    3.7053 C   0  0  0  0  0  0  0  0  0  0  0  0
   -3.9039   -1.4548    4.9286 C   0  0  0  0  0  0  0  0  0  0  0  0
   -5.2456   -1.1279    5.1205 C   0  0  0  0  0  0  0  0  0  0  0  0
   -5.7734   -1.0807    6.3926 C   0  0  0  0  0  0  0  0  0  0  0  0
   -4.9679   -1.3562    7.4911 C   0  0  0  0  0  0  0  0  0  0  0  0
   -5.7214   -1.3680    9.0890 S   0  0  0  0  0  0  0  0  0  0  0  0
   -4.7332   -2.6325    9.9463 C   0  0  0  0  0  0  0  0  0  0  0  0
   -3.6143   -1.6064    7.3083 C   0  0  0  0  0  0  0  0  0  0  0  0
   -3.0856   -1.6575    6.0351 C   0  0  0  0  0  0  0  0  0  0  0  0
   -4.9009   -3.5523    3.2389 C   0  0  0  0  0  0  0  0  0  0  0  0
   -5.2987   -4.1285    4.8123 S   0  0  0  0  0  0  0  0  0  0  0  0
   -3.4783   -1.4179    0.5818 C   0  0  0  0  0  0  0  0  0  0  0  0
   -2.6720   -1.6946   -0.4801 C   0  0  0  0  0  0  0  0  0  0  0  0
   -1.8624   -0.6005   -0.8749 C   0  0  0  0  0  0  0  0  0  0  0  0
   -0.8011   -0.5952   -1.8013 C   0  0  0  0  0  0  0  0  0  0  0  0
   -0.4425   -1.7453   -2.6079 C   0  0  0  0  0  0  0  0  0  0  0  0
   -0.0331   -1.7401   -3.9105 C   0  0  0  0  0  0  0  0  0  0  0  0
    0.2846   -3.0294   -4.3873 C   0  0  0  0  0  0  0  0  0  0  0  0
    0.8095   -3.3089   -6.0009 Cl  0  0  0  0  0  0  0  0  0  0  0  0
    0.1478   -4.0259   -3.4662 C   0  0  0  0  0  0  0  0  0  0  0  0
    0.3355   -5.4919   -3.6408 C   0  0  0  0  0  0  0  0  0  0  0  0
   -0.9781   -6.1623   -4.0509 C   0  0  0  0  0  0  0  0  0  0  0  0
   -0.4084   -3.3666   -1.9672 S   0  0  0  0  0  0  0  0  0  0  0  0
   -0.0625    0.5809   -1.8894 C   0  0  0  0  0  0  0  0  0  0  0  0
   -0.3343    1.7308   -1.1117 C   0  0  0  0  0  0  0  0  0  0  0  0
   -1.3922    1.7272   -0.1815 C   0  0  0  0  0  0  0  0  0  0  0  0
   -1.6011    2.8389    0.7200 C   0  0  0  0  0  0  0  0  0  0  0  0
   -0.6578    3.5997    1.3550 C   0  0  0  0  0  0  0  0  0  0  0  0
   -1.2111    4.5801    2.2009 C   0  0  0  0  0  0  0  0  0  0  0  0
   -2.5723    4.5792    2.2163 C   0  0  0  0  0  0  0  0  0  0  0  0
   -3.4893    5.4685    2.9837 C   0  0  0  0  0  0  0  0  0  0  0  0
   -4.4977    6.1744    2.0777 C   0  0  0  0  0  0  0  0  0  0  0  0
   -3.2041    3.3394    1.1802 S   0  0  0  0  0  0  0  0  0  0  0  0
   -2.1413    0.5595   -0.1103 C   0  0  0  0  0  0  0  0  0  0  0  0
   -3.4278    0.2754    1.0260 S   0  0  0  0  0  0  0  0  0  0  0  0
    0.5814    2.7714   -1.3797 C   0  0  0  0  0  0  0  0  0  0  0  0
    1.5539    2.4440   -2.2814 C   0  0  0  0  0  0  0  0  0  0  0  0
    1.3640    0.8039   -2.8714 S   0  0  0  0  0  0  0  0  0  0  0  0
    2.6481    3.2896   -2.6225 C   0  0  0  0  0  0  0  0  0  0  0  0
    3.5236    3.2993   -3.7012 C   0  0  0  0  0  0  0  0  0  0  0  0
    3.4665    2.4947   -4.8225 N   0  0  0  0  0  0  0  0  0  0  0  0
    4.6732    2.2339   -5.5014 C   0  0  0  0  0  0  0  0  0  0  0  0
    4.7762    2.4667   -6.8687 C   0  0  0  0  0  0  0  0  0  0  0  0
    5.9779    2.2845   -7.5235 C   0  0  0  0  0  0  0  0  0  0  0  0
    7.0962    1.8598   -6.8176 C   0  0  0  0  0  0  0  0  0  0  0  0
    8.6912    1.6428   -7.5369 S   0  0  0  0  0  0  0  0  0  0  0  0
    8.5100    2.3166   -9.2157 C   0  0  0  0  0  0  0  0  0  0  0  0
    6.9842    1.5806   -5.4565 C   0  0  0  0  0  0  0  0  0  0  0  0
    5.7873    1.7707   -4.8020 C   0  0  0  0  0  0  0  0  0  0  0  0
    2.2567    2.1011   -5.4017 C   0  0  0  0  0  0  0  0  0  0  0  0
    2.1839    0.8855   -6.0857 C   0  0  0  0  0  0  0  0  0  0  0  0
    0.9873    0.4550   -6.6104 C   0  0  0  0  0  0  0  0  0  0  0  0
   -0.1691    1.2197   -6.4592 C   0  0  0  0  0  0  0  0  0  0  0  0
   -1.6591    0.5295   -7.1106 S   0  0  0  0  0  0  0  0  0  0  0  0
   -2.9562    1.6320   -6.4806 C   0  0  0  0  0  0  0  0  0  0  0  0
   -0.0928    2.4486   -5.8189 C   0  0  0  0  0  0  0  0  0  0  0  0
    1.1118    2.8874   -5.3044 C   0  0  0  0  0  0  0  0  0  0  0  0
    4.5045    4.3103   -3.5350 C   0  0  0  0  0  0  0  0  0  0  0  0
    5.8861    4.7850   -4.4519 S   0  0  0  0  0  0  0  0  0  0  0  0
    6.2695    6.0427   -3.2727 C   0  0  0  0  0  0  0  0  0  0  0  0
    5.3374    6.0894   -2.2298 C   0  0  0  0  0  0  0  0  0  0  0  0
    5.3947    6.9387   -1.1589 N   0  0  0  0  0  0  0  0  0  0  0  0
    6.6201    7.4670   -0.6959 C   0  0  0  0  0  0  0  0  0  0  0  0
    6.7129    8.8193   -0.3917 C   0  0  0  0  0  0  0  0  0  0  0  0
    7.9097    9.3597    0.0392 C   0  0  0  0  0  0  0  0  0  0  0  0
    9.0291    8.5488    0.1689 C   0  0  0  0  0  0  0  0  0  0  0  0
   10.6103    9.1297    0.6882 S   0  0  0  0  0  0  0  0  0  0  0  0
   10.4576   10.9364    0.5868 C   0  0  0  0  0  0  0  0  0  0  0  0
    8.9240    7.1841   -0.0998 C   0  0  0  0  0  0  0  0  0  0  0  0
    7.7306    6.6431   -0.5206 C   0  0  0  0  0  0  0  0  0  0  0  0
    4.2353    7.2074   -0.4130 C   0  0  0  0  0  0  0  0  0  0  0  0
    3.0307    7.4876   -1.0522 C   0  0  0  0  0  0  0  0  0  0  0  0
    1.8793    7.7098   -0.3212 C   0  0  0  0  0  0  0  0  0  0  0  0
    1.9192    7.6639    1.0651 C   0  0  0  0  0  0  0  0  0  0  0  0
    0.5125    7.9025    2.1016 S   0  0  0  0  0  0  0  0  0  0  0  0
   -0.8889    7.9050    0.9480 C   0  0  0  0  0  0  0  0  0  0  0  0
    3.1339    7.4297    1.7091 C   0  0  0  0  0  0  0  0  0  0  0  0
    4.2797    7.2051    0.9813 C   0  0  0  0  0  0  0  0  0  0  0  0
    4.3567    5.0830   -2.3944 C   0  0  0  0  0  0  0  0  0  0  0  0
    3.0022    4.5640   -1.4598 S   0  0  0  0  0  0  0  0  0  0  0  0
    7.3682    6.8935   -3.5017 C   0  0  0  0  0  0  0  0  0  0  0  0
    8.4676    6.6177   -4.2608 C   0  0  0  0  0  0  0  0  0  0  0  0
    9.3043    7.7156   -4.8053 C   0  0  0  0  0  0  0  0  0  0  0  0
    9.2550    8.8860   -4.4919 O   0  0  0  0  0  0  0  0  0  0  0  0
   10.1626    7.0848   -5.8295 C   0  0  0  0  0  0  0  0  0  0  0  0
   11.0224    7.7129   -6.7285 C   0  0  0  0  0  0  0  0  0  0  0  0
   11.6497    6.8523   -7.5980 C   0  0  0  0  0  0  0  0  0  0  0  0
   11.4285    5.4685   -7.5921 C   0  0  0  0  0  0  0  0  0  0  0  0
   10.5926    4.8315   -6.7061 C   0  0  0  0  0  0  0  0  0  0  0  0
    9.9639    5.6892   -5.8012 C   0  0  0  0  0  0  0  0  0  0  0  0
    9.0391    5.3720   -4.7160 C   0  0  0  0  0  0  0  0  0  0  0  0
    8.9923    4.1590   -4.0763 C   0  0  0  0  0  0  0  0  0  0  0  0
    9.8147    3.0649   -4.4134 C   0  0  0  0  0  0  0  0  0  0  0  0
   10.4843    2.1517   -4.6036 N   0  0  0  0  0  0  0  0  0  0  0  0
    8.2516    3.9035   -2.9079 C   0  0  0  0  0  0  0  0  0  0  0  0
    7.7043    3.6502   -1.9291 N   0  0  0  0  0  0  0  0  0  0  0  0
   12.3726    5.2307   -8.7439 C   0  0  0  0  0  0  0  0  0  0  0  0
   13.7575    4.6521   -8.3854 C   0  0  0  0  0  0  0  0  0  0  0  0
   14.6090    4.9770   -9.5912 C   0  0  0  0  0  0  0  0  0  0  0  0
   14.8266    6.2860   -9.5905 C   0  0  0  0  0  0  0  0  0  0  0  0
   14.1257    6.8679   -8.3840 C   0  0  0  0  0  0  0  0  0  0  0  0
   14.2848    5.7023   -7.3992 C   0  0  0  0  0  0  0  0  0  0  0  0
   12.6279    6.7722   -8.7448 C   0  0  0  0  0  0  0  0  0  0  0  0
   -7.1453   -7.3261    4.2763 H   0  0  0  0  0  0  0  0  0  0  0  0
   -7.2395   -4.1487    9.6681 H   0  0  0  0  0  0  0  0  0  0  0  0
   -9.5599   -8.6017    8.9941 H   0  0  0  0  0  0  0  0  0  0  0  0
  -10.9093   -6.9428   11.6663 H   0  0  0  0  0  0  0  0  0  0  0  0
   -9.3121   -8.8660   12.5866 H   0  0  0  0  0  0  0  0  0  0  0  0
  -10.4637   -7.6893   14.6345 H   0  0  0  0  0  0  0  0  0  0  0  0
   -9.2705   -5.3472   15.0209 H   0  0  0  0  0  0  0  0  0  0  0  0
   -7.3840   -5.0823   13.2128 H   0  0  0  0  0  0  0  0  0  0  0  0
   -7.2014   -7.3831   11.8357 H   0  0  0  0  0  0  0  0  0  0  0  0
   -7.1602   -7.6933   13.5866 H   0  0  0  0  0  0  0  0  0  0  0  0
   -9.7378   -4.6465   12.0426 H   0  0  0  0  0  0  0  0  0  0  0  0
   -8.8637   -5.0950    3.1555 H   0  0  0  0  0  0  0  0  0  0  0  0
  -10.9249   -6.1930    3.9464 H   0  0  0  0  0  0  0  0  0  0  0  0
  -10.4972  -10.7430    4.1414 H   0  0  0  0  0  0  0  0  0  0  0  0
  -11.6242  -10.9938    2.7684 H   0  0  0  0  0  0  0  0  0  0  0  0
  -12.2216  -11.0494    4.4418 H   0  0  0  0  0  0  0  0  0  0  0  0
   -9.7218   -9.8181    2.0238 H   0  0  0  0  0  0  0  0  0  0  0  0
   -7.6579   -8.7492    1.2897 H   0  0  0  0  0  0  0  0  0  0  0  0
   -4.3136   -6.7169    1.2992 H   0  0  0  0  0  0  0  0  0  0  0  0
   -3.3633   -7.1314   -0.9349 H   0  0  0  0  0  0  0  0  0  0  0  0
   -6.4954   -8.1728   -4.4445 H   0  0  0  0  0  0  0  0  0  0  0  0
   -6.3126   -6.4059   -4.7042 H   0  0  0  0  0  0  0  0  0  0  0  0
   -5.3381   -7.5566   -5.6441 H   0  0  0  0  0  0  0  0  0  0  0  0
   -7.2844   -6.8998   -2.6328 H   0  0  0  0  0  0  0  0  0  0  0  0
   -8.2165   -6.4669   -0.4244 H   0  0  0  0  0  0  0  0  0  0  0  0
   -1.5855   -2.8877    2.1263 H   0  0  0  0  0  0  0  0  0  0  0  0
    0.4680   -1.9232    1.2682 H   0  0  0  0  0  0  0  0  0  0  0  0
    3.2582    0.1035    0.1110 H   0  0  0  0  0  0  0  0  0  0  0  0
    1.7052   -0.6916   -0.2274 H   0  0  0  0  0  0  0  0  0  0  0  0
    2.7484   -1.2762    1.1095 H   0  0  0  0  0  0  0  0  0  0  0  0
   -0.2431    1.6287    3.5459 H   0  0  0  0  0  0  0  0  0  0  0  0
   -2.3491    0.6611    4.3840 H   0  0  0  0  0  0  0  0  0  0  0  0
   -5.8735   -0.9399    4.2617 H   0  0  0  0  0  0  0  0  0  0  0  0
   -6.8172   -0.8540    6.5451 H   0  0  0  0  0  0  0  0  0  0  0  0
   -5.2950   -2.9096   10.8333 H   0  0  0  0  0  0  0  0  0  0  0  0
   -4.6199   -3.4855    9.2836 H   0  0  0  0  0  0  0  0  0  0  0  0
   -3.7687   -2.2301   10.2420 H   0  0  0  0  0  0  0  0  0  0  0  0
   -2.9675   -1.7842    8.1527 H   0  0  0  0  0  0  0  0  0  0  0  0
   -2.0389   -1.8811    5.8900 H   0  0  0  0  0  0  0  0  0  0  0  0
   -2.6070   -2.6797   -0.9037 H   0  0  0  0  0  0  0  0  0  0  0  0
    0.0118   -0.8621   -4.5277 H   0  0  0  0  0  0  0  0  0  0  0  0
    1.0889   -5.6602   -4.4131 H   0  0  0  0  0  0  0  0  0  0  0  0
    0.6913   -5.9291   -2.7058 H   0  0  0  0  0  0  0  0  0  0  0  0
   -1.7434   -5.9983   -3.2962 H   0  0  0  0  0  0  0  0  0  0  0  0
   -1.3321   -5.7530   -4.9936 H   0  0  0  0  0  0  0  0  0  0  0  0
   -0.8348   -7.2327   -4.1693 H   0  0  0  0  0  0  0  0  0  0  0  0
    0.3991    3.4252    1.2663 H   0  0  0  0  0  0  0  0  0  0  0  0
   -0.6145    5.2611    2.7822 H   0  0  0  0  0  0  0  0  0  0  0  0
   -4.0351    4.8756    3.7237 H   0  0  0  0  0  0  0  0  0  0  0  0
   -2.8866    6.2038    3.5219 H   0  0  0  0  0  0  0  0  0  0  0  0
   -5.1247    5.4425    1.5738 H   0  0  0  0  0  0  0  0  0  0  0  0
   -3.9856    6.7648    1.3207 H   0  0  0  0  0  0  0  0  0  0  0  0
   -5.1341    6.8341    2.6622 H   0  0  0  0  0  0  0  0  0  0  0  0
    0.5171    3.7487   -0.9383 H   0  0  0  0  0  0  0  0  0  0  0  0
    3.9108    2.8082   -7.4175 H   0  0  0  0  0  0  0  0  0  0  0  0
    6.0298    2.4871   -8.5808 H   0  0  0  0  0  0  0  0  0  0  0  0
    9.5038    2.2774   -9.6509 H   0  0  0  0  0  0  0  0  0  0  0  0
    7.8312    1.7010   -9.7985 H   0  0  0  0  0  0  0  0  0  0  0  0
    8.1686    3.3465   -9.1658 H   0  0  0  0  0  0  0  0  0  0  0  0
    7.8481    1.2187   -4.9207 H   0  0  0  0  0  0  0  0  0  0  0  0
    5.7110    1.5733   -3.7430 H   0  0  0  0  0  0  0  0  0  0  0  0
    3.0679    0.2737   -6.1793 H   0  0  0  0  0  0  0  0  0  0  0  0
    0.9268   -0.4916   -7.1250 H   0  0  0  0  0  0  0  0  0  0  0  0
   -2.8872    1.6998   -5.3986 H   0  0  0  0  0  0  0  0  0  0  0  0
   -2.8771    2.6109   -6.9449 H   0  0  0  0  0  0  0  0  0  0  0  0
   -3.8962    1.1681   -6.7628 H   0  0  0  0  0  0  0  0  0  0  0  0
   -0.9617    3.0781   -5.7139 H   0  0  0  0  0  0  0  0  0  0  0  0
    1.1581    3.8468   -4.8105 H   0  0  0  0  0  0  0  0  0  0  0  0
    5.8442    9.4521   -0.5020 H   0  0  0  0  0  0  0  0  0  0  0  0
    7.9547   10.4129    0.2636 H   0  0  0  0  0  0  0  0  0  0  0  0
   10.1142   11.2162   -0.4046 H   0  0  0  0  0  0  0  0  0  0  0  0
   11.4574   11.3241    0.7558 H   0  0  0  0  0  0  0  0  0  0  0  0
    9.7873   11.3036    1.3587 H   0  0  0  0  0  0  0  0  0  0  0  0
    9.7901    6.5542    0.0319 H   0  0  0  0  0  0  0  0  0  0  0  0
    7.6524    5.5857   -0.7226 H   0  0  0  0  0  0  0  0  0  0  0  0
    2.9961    7.5347   -2.1308 H   0  0  0  0  0  0  0  0  0  0  0  0
    0.9618    7.9191   -0.8469 H   0  0  0  0  0  0  0  0  0  0  0  0
   -0.8981    6.9785    0.3812 H   0  0  0  0  0  0  0  0  0  0  0  0
   -1.7757    7.9646    1.5709 H   0  0  0  0  0  0  0  0  0  0  0  0
   -0.8398    8.7730    0.2970 H   0  0  0  0  0  0  0  0  0  0  0  0
    3.1606    7.4110    2.7877 H   0  0  0  0  0  0  0  0  0  0  0  0
    5.2140    7.0059    1.4838 H   0  0  0  0  0  0  0  0  0  0  0  0
    7.3015    7.9062   -3.1189 H   0  0  0  0  0  0  0  0  0  0  0  0
   11.1559    8.7833   -6.7150 H   0  0  0  0  0  0  0  0  0  0  0  0
   10.4158    3.7679   -6.7132 H   0  0  0  0  0  0  0  0  0  0  0  0
   11.9371    4.7756   -9.6319 H   0  0  0  0  0  0  0  0  0  0  0  0
   13.7456    3.6169   -8.0559 H   0  0  0  0  0  0  0  0  0  0  0  0
   14.9095    4.2539  -10.3267 H   0  0  0  0  0  0  0  0  0  0  0  0
   15.3447    6.8744  -10.3252 H   0  0  0  0  0  0  0  0  0  0  0  0
   14.4531    7.8506   -8.0550 H   0  0  0  0  0  0  0  0  0  0  0  0
   13.6880    5.7994   -6.4945 H   0  0  0  0  0  0  0  0  0  0  0  0
   15.3258    5.5291   -7.1317 H   0  0  0  0  0  0  0  0  0  0  0  0
   12.3678    7.3436   -9.6344 H   0  0  0  0  0  0  0  0  0  0  0  0
  1  2  2  0  0  0  0
  2  3  1  0  0  0  0
  3  4  2  0  0  0  0
  3  5  1  0  0  0  0
  5  6  2  0  0  0  0
  6  7  1  0  0  0  0
  7  8  2  0  0  0  0
  8  9  1  0  0  0  0
  9 10  2  0  0  0  0
 10 11  1  0  0  0  0
 11 12  2  0  0  0  0
 12 13  1  0  0  0  0
 13 14  3  0  0  0  0
 12 15  1  0  0  0  0
 15 16  3  0  0  0  0
  8 17  1  0  0  0  0
 17 18  1  0  0  0  0
 18 19  1  0  0  0  0
 19 20  2  0  0  0  0
 20 21  1  0  0  0  0
 21 22  1  0  0  0  0
 21 23  1  0  0  0  0
  1 24  1  0  0  0  0
 24 25  2  0  0  0  0
 25 26  1  0  0  0  0
 26 27  1  0  0  0  0
 27 28  2  0  0  0  0
 28 29  1  0  0  0  0
 29 30  2  0  0  0  0
 30 31  1  0  0  0  0
 31 32  1  0  0  0  0
 30 33  1  0  0  0  0
 33 34  2  0  0  0  0
 26 35  1  0  0  0  0
 35 36  2  0  0  0  0
 36 37  1  0  0  0  0
 37 38  2  0  0  0  0
 38 39  1  0  0  0  0
 39 40  1  0  0  0  0
 38 41  1  0  0  0  0
 41 42  2  0  0  0  0
 25 43  1  0  0  0  0
 43 44  1  0  0  0  0
 44 45  1  0  0  0  0
 45 46  2  0  0  0  0
 46 47  1  0  0  0  0
 47 48  1  0  0  0  0
 48 49  2  0  0  0  0
 49 50  1  0  0  0  0
 50 51  2  0  0  0  0
 51 52  1  0  0  0  0
 52 53  1  0  0  0  0
 51 54  1  0  0  0  0
 54 55  2  0  0  0  0
 47 56  1  0  0  0  0
 56 57  2  0  0  0  0
 57 58  1  0  0  0  0
 58 59  2  0  0  0  0
 59 60  1  0  0  0  0
 60 61  1  0  0  0  0
 59 62  1  0  0  0  0
 62 63  2  0  0  0  0
 46 64  1  0  0  0  0
 64 65  1  0  0  0  0
 45 66  1  0  0  0  0
 66 67  2  0  0  0  0
 67 68  1  0  0  0  0
 68 69  2  0  0  0  0
 69 70  1  0  0  0  0
 70 71  2  0  0  0  0
 71 72  1  0  0  0  0
 72 73  1  0  0  0  0
 72 74  2  0  0  0  0
 74 75  1  0  0  0  0
 75 76  1  0  0  0  0
 74 77  1  0  0  0  0
 69 78  1  0  0  0  0
 78 79  2  0  0  0  0
 79 80  1  0  0  0  0
 80 81  1  0  0  0  0
 81 82  2  0  0  0  0
 82 83  1  0  0  0  0
 83 84  2  0  0  0  0
 84 85  1  0  0  0  0
 85 86  1  0  0  0  0
 84 87  1  0  0  0  0
 80 88  2  0  0  0  0
 88 89  1  0  0  0  0
 79 90  1  0  0  0  0
 90 91  2  0  0  0  0
 91 92  1  0  0  0  0
 91 93  1  0  0  0  0
 93 94  2  0  0  0  0
 94 95  1  0  0  0  0
 95 96  1  0  0  0  0
 96 97  2  0  0  0  0
 97 98  1  0  0  0  0
 98 99  2  0  0  0  0
 99100  1  0  0  0  0
100101  1  0  0  0  0
 99102  1  0  0  0  0
102103  2  0  0  0  0
 95104  1  0  0  0  0
104105  2  0  0  0  0
105106  1  0  0  0  0
106107  2  0  0  0  0
107108  1  0  0  0  0
108109  1  0  0  0  0
107110  1  0  0  0  0
110111  2  0  0  0  0
 94112  1  0  0  0  0
112113  1  0  0  0  0
113114  1  0  0  0  0
114115  2  0  0  0  0
115116  1  0  0  0  0
116117  1  0  0  0  0
117118  2  0  0  0  0
118119  1  0  0  0  0
119120  2  0  0  0  0
120121  1  0  0  0  0
121122  1  0  0  0  0
120123  1  0  0  0  0
123124  2  0  0  0  0
116125  1  0  0  0  0
125126  2  0  0  0  0
126127  1  0  0  0  0
127128  2  0  0  0  0
128129  1  0  0  0  0
129130  1  0  0  0  0
128131  1  0  0  0  0
131132  2  0  0  0  0
115133  1  0  0  0  0
133134  1  0  0  0  0
114135  1  0  0  0  0
135136  2  0  0  0  0
136137  1  0  0  0  0
137138  2  0  0  0  0
137139  1  0  0  0  0
139140  2  0  0  0  0
140141  1  0  0  0  0
141142  2  0  0  0  0
142143  1  0  0  0  0
143144  2  0  0  0  0
144145  1  0  0  0  0
145146  2  0  0  0  0
146147  1  0  0  0  0
147148  3  0  0  0  0
146149  1  0  0  0  0
149150  3  0  0  0  0
142151  1  0  0  0  0
151152  1  0  0  0  0
152153  1  0  0  0  0
153154  2  0  0  0  0
154155  1  0  0  0  0
155156  1  0  0  0  0
155157  1  0  0  0  0
 11  2  1  0  0  0  0
 23 17  1  0  0  0  0
 65 24  1  0  0  0  0
 89 66  1  0  0  0  0
134 93  1  0  0  0  0
145136  1  0  0  0  0
157151  1  0  0  0  0
 10  5  1  0  0  0  0
 22 18  1  0  0  0  0
 34 27  1  0  0  0  0
 42 35  1  0  0  0  0
 64 43  2  0  0  0  0
 88 68  1  0  0  0  0
103 96  1  0  0  0  0
111104  1  0  0  0  0
133112  2  0  0  0  0
144139  1  0  0  0  0
156152  1  0  0  0  0
 23  7  1  0  0  0  0
 55 48  1  0  0  0  0
 63 56  1  0  0  0  0
 77 70  1  0  0  0  0
 92 78  1  0  0  0  0
124117  1  0  0  0  0
132125  1  0  0  0  0
157141  1  0  0  0  0
 87 81  1  0  0  0  0
  1158  1  0  0  0  0
  6159  1  0  0  0  0
  9160  1  0  0  0  0
 17161  1  0  0  0  0
 18162  1  0  0  0  0
 19163  1  0  0  0  0
 20164  1  0  0  0  0
 21165  1  0  0  0  0
 22166  1  0  0  0  0
 22167  1  0  0  0  0
 23168  1  0  0  0  0
 28169  1  0  0  0  0
 29170  1  0  0  0  0
 32171  1  0  0  0  0
 32172  1  0  0  0  0
 32173  1  0  0  0  0
 33174  1  0  0  0  0
 34175  1  0  0  0  0
 36176  1  0  0  0  0
 37177  1  0  0  0  0
 40178  1  0  0  0  0
 40179  1  0  0  0  0
 40180  1  0  0  0  0
 41181  1  0  0  0  0
 42182  1  0  0  0  0
 49183  1  0  0  0  0
 50184  1  0  0  0  0
 53185  1  0  0  0  0
 53186  1  0  0  0  0
 53187  1  0  0  0  0
 54188  1  0  0  0  0
 55189  1  0  0  0  0
 57190  1  0  0  0  0
 58191  1  0  0  0  0
 61192  1  0  0  0  0
 61193  1  0  0  0  0
 61194  1  0  0  0  0
 62195  1  0  0  0  0
 63196  1  0  0  0  0
 67197  1  0  0  0  0
 71198  1  0  0  0  0
 75199  1  0  0  0  0
 75200  1  0  0  0  0
 76201  1  0  0  0  0
 76202  1  0  0  0  0
 76203  1  0  0  0  0
 82204  1  0  0  0  0
 83205  1  0  0  0  0
 85206  1  0  0  0  0
 85207  1  0  0  0  0
 86208  1  0  0  0  0
 86209  1  0  0  0  0
 86210  1  0  0  0  0
 90211  1  0  0  0  0
 97212  1  0  0  0  0
 98213  1  0  0  0  0
101214  1  0  0  0  0
101215  1  0  0  0  0
101216  1  0  0  0  0
102217  1  0  0  0  0
103218  1  0  0  0  0
105219  1  0  0  0  0
106220  1  0  0  0  0
109221  1  0  0  0  0
109222  1  0  0  0  0
109223  1  0  0  0  0
110224  1  0  0  0  0
111225  1  0  0  0  0
118226  1  0  0  0  0
119227  1  0  0  0  0
122228  1  0  0  0  0
122229  1  0  0  0  0
122230  1  0  0  0  0
123231  1  0  0  0  0
124232  1  0  0  0  0
126233  1  0  0  0  0
127234  1  0  0  0  0
130235  1  0  0  0  0
130236  1  0  0  0  0
130237  1  0  0  0  0
131238  1  0  0  0  0
132239  1  0  0  0  0
135240  1  0  0  0  0
140241  1  0  0  0  0
143242  1  0  0  0  0
151243  1  0  0  0  0
152244  1  0  0  0  0
153245  1  0  0  0  0
154246  1  0  0  0  0
155247  1  0  0  0  0
156248  1  0  0  0  0
156249  1  0  0  0  0
157250  1  0  0  0  0
M  END
