258

C         -3.70730       -5.64780        5.76310
C         -4.15700       -5.19400        6.97910
C         -3.81610       -5.96530        8.19110
O         -3.39410       -7.10540        8.24320
C         -3.99930       -5.02470        9.31580
C         -3.68190       -5.23370       10.65510
C         -3.93170       -4.15220       11.46710
C         -4.47050       -2.95220       10.98760
C         -4.79880       -2.73510        9.67040
C         -4.53720       -3.81500        8.82770
C         -4.76270       -3.95860        7.39120
C         -5.61580       -3.19420        6.62850
C         -6.18920       -1.98780        7.05290
N         -6.64920       -0.97280        7.33940
C         -6.05120       -3.60720        5.35300
N         -6.47060       -3.95710        4.34220
C         -4.44190       -2.30120       12.34740
C         -3.31790       -1.27440       12.62940
C         -2.16670       -1.64270       11.72650
C         -1.64930       -2.77740       12.17820
C         -2.44050       -3.19620       13.39280
C         -2.79860       -1.81760       13.96990
C         -3.83520       -3.63690       12.88180
C         -3.34800       -4.91710        4.62660
C         -2.86240       -5.40710        3.39610
N         -2.73130       -6.72860        3.03940
C         -2.31690       -7.69510        3.96790
C         -2.91100       -8.95610        3.99790
C         -2.56910       -9.85660        4.98370
C         -1.64090       -9.51150        5.96140
S         -1.32860      -10.66070        7.26250
C         -1.07110       -9.53960        8.67110
C         -0.99390       -8.28310        5.89110
C         -1.32250       -7.38730        4.89640
C         -3.07350       -7.11750        1.73540
C         -2.32510       -8.08140        1.06780
C         -2.69540       -8.51080       -0.19160
C         -3.82590       -7.98260       -0.79990
S         -4.41780       -8.48770       -2.38690
C         -3.26440       -9.78570       -2.90630
C         -4.56640       -7.00280       -0.14030
C         -4.19480       -6.56980        1.11140
C         -2.50640       -4.35110        2.53440
S         -1.79340       -4.27800        0.95680
C         -1.64980       -2.52150        1.08190
C         -2.24530       -2.02500        2.24300
N         -2.42220       -0.69220        2.56180
C         -2.89790        0.25340        1.64350
C         -3.50870       -0.10130        0.44460
C         -4.03340        0.86490       -0.39380
C         -3.98890        2.20420       -0.03380
S         -4.72120        3.51990       -0.94820
C         -5.37520        2.72160       -2.43990
C         -3.34920        2.56470        1.15220
C         -2.79230        1.60920        1.96640
C         -2.55080       -0.40320        3.94120
C         -3.72170        0.14780        4.45270
C         -3.86890        0.35200        5.80960
C         -2.84350       -0.00070        6.67830
S         -2.95010        0.15160        8.43050
C         -4.47690        1.09510        8.70360
C         -1.65950       -0.52880        6.16790
C         -1.51220       -0.72680        4.81200
C         -2.67220       -3.08320        3.07420
S         -3.28860       -3.15330        4.68130
C         -0.80070       -1.84710        0.17640
C         -0.20100       -2.42180       -0.94060
N         -0.63970       -3.60370       -1.53130
C         -1.95680       -3.65400       -2.01170
C         -2.65200       -2.48290       -2.31870
C         -3.94140       -2.54250       -2.79750
C         -4.56430       -3.77120       -3.00120
S         -6.20670       -3.73190       -3.64600
C         -6.61130       -5.47890       -3.91980
C         -3.87910       -4.93810       -2.69370
C         -2.59590       -4.87810       -2.18850
C          0.34520       -4.49050       -1.98440
C          1.47600       -4.69600       -1.19640
C          2.50100       -5.51300       -1.62690
C          2.41050       -6.14700       -2.85850
S          3.66960       -7.20630       -3.50160
C          5.15810       -6.64780       -2.62220
C          1.27160       -5.96570       -3.63880
C          0.25250       -5.14300       -3.21340
C          0.84590       -1.62040       -1.43510
S          2.02280       -1.83170       -2.68020
C          2.64480       -0.22940       -2.36760
C          2.00620        0.41540       -1.31960
N          2.34450        1.66320       -0.81340
C          1.32780        2.56540       -0.47520
C          1.56000        3.53490        0.49810
C          0.60840        4.49290        0.78250
C         -0.60870        4.47980        0.11600
S         -1.84830        5.72100        0.32690
C         -1.41240        6.49190        1.91510
C         -0.87100        3.47580       -0.81010
C          0.08670        2.53310       -1.10900
C          3.67330        2.11080       -0.87820
C          3.98230        3.40810       -1.29530
C          5.29310        3.79740       -1.45350
C          6.33230        2.90630       -1.19060
S          7.96880        3.48560       -1.51980
C          9.00990        2.00790       -1.33970
C          6.03570        1.63950       -0.70850
C          4.71870        1.24990       -0.55350
C          0.98870       -0.40660       -0.77730
S         -0.14790       -0.24680        0.52320
C          3.71320        0.34080       -3.16040
C          3.51110        1.62480       -3.73090
N          2.27900        2.15530       -3.70270
C          2.09580        3.37570       -4.15130
C          0.73000        3.88630       -4.01520
C          0.44880        5.15170       -3.52610
C         -0.86580        5.56340       -3.38790
C         -1.92270        4.73210       -3.73640
O         -3.22990        5.06650       -3.65730
C         -3.56590        6.35470       -3.17160
C         -5.08010        6.48370       -3.17070
C         -1.63830        3.42740       -4.21200
C         -0.32390        3.02540       -4.33340
O         -2.71530        2.64600       -4.50970
C         -2.48000        1.35400       -5.03750
C         -3.81980        0.72290       -5.38420
C          3.18630        4.11090       -4.72430
C          3.03940        5.42730       -5.33660
C          4.08110        6.34130       -5.24930
C          3.95800        7.59660       -5.81890
C          2.80060        7.96300       -6.49030
O          2.57800        9.16420       -7.07130
C          3.60080       10.14060       -7.04300
C          3.09110       11.35890       -7.79670
C          1.74010        7.02770       -6.60100
O          0.63960        7.47760       -7.26140
C         -0.51030        6.66090       -7.33990
C         -0.43310        5.63090       -8.46410
C          1.88050        5.77580       -6.04030
N          4.39480        3.58760       -4.75310
C          4.59560        2.35940       -4.25840
C          5.91340        1.81050       -4.26170
C          6.05560        0.51550       -3.78490
C          4.97540       -0.20880       -3.26730
F          5.22660       -1.41200       -2.71740
F          7.27420       -0.01700       -3.60720
C          6.98820        2.70560       -4.58000
C          8.20130        2.42700       -5.11240
C          8.60270        1.15340       -5.78020
O          7.87260        0.24680       -6.10060
C         10.03910        1.31480       -6.07350
C         10.92770        0.39820       -6.63280
O         10.50230       -0.82870       -6.96860
C         12.25310        0.80690       -6.81210
C         12.66160        2.07790       -6.45420
C         11.77720        2.99730       -5.90580
C         10.46050        2.60970       -5.71780
C          9.31900        3.35080       -5.18510
C          9.31880        4.66930       -4.81640
C         10.45280        5.50810       -4.86740
N         11.33260        6.24560       -4.88360
C          8.19990        5.41260       -4.37990
N          7.35650        6.11870       -4.04800
H         -3.47600       -6.70600        5.75290
H         -3.27790       -6.17640       10.99060
H         -5.20940       -1.80780        9.31000
H         -5.40440       -1.98530       12.74550
H         -3.63650       -0.23560       12.60030
H         -1.90050       -1.09120       10.84420
H         -0.85660       -3.36240       11.74960
H         -1.95860       -3.90740       14.05910
H         -3.56090       -1.85720       14.74710
H         -1.92810       -1.27480       14.33550
H         -4.39740       -4.18770       13.63370
H         -3.66860       -9.20720        3.27070
H         -3.04720      -10.82250        5.02990
H         -1.79940       -8.73570        8.61290
H         -1.23800      -10.13650        9.56220
H         -0.05430       -9.15680        8.67240
H         -0.23850       -8.01890        6.61350
H         -0.83260       -6.42560        4.85080
H         -1.45070       -8.50130        1.54200
H         -2.09330       -9.25800       -0.68280
H         -2.26430       -9.37510       -3.01140
H         -3.62580      -10.12670       -3.87170
H         -3.28530      -10.60580       -2.19450
H         -5.45020       -6.59890       -0.60850
H         -4.78710       -5.82820        1.62600
H         -3.60390       -1.14030        0.16580
H         -4.49870        0.54900       -1.31370
H         -6.03750        1.90490       -2.16810
H         -4.54880        2.39880       -3.06410
H         -5.93520        3.48950       -2.96320
H         -3.30390        3.60780        1.42150
H         -2.28950        1.90040        2.87610
H         -4.53090        0.39810        3.78300
H         -4.79770        0.75580        6.17650
H         -5.33780        0.53460        8.34690
H         -4.54350        1.23490        9.77830
H         -4.40130        2.05850        8.20790
H         -0.86350       -0.78900        6.84880
H         -0.59870       -1.14540        4.41590
H         -2.17490       -1.52240       -2.19180
H         -4.47690       -1.63720       -3.03850
H         -5.88770       -5.92530       -4.59500
H         -7.59580       -5.48110       -4.37720
H         -6.64340       -6.01380       -2.97530
H         -4.33370       -5.90250       -2.84080
H         -2.08070       -5.78970       -1.92630
H          1.54730       -4.20700       -0.23580
H          3.36280       -5.65080       -0.99390
H          5.99790       -7.07660       -3.15990
H          5.15420       -7.01290       -1.59900
H          5.20850       -5.56380       -2.65510
H          1.20730       -6.46150       -4.59530
H         -0.60720       -4.98190       -3.84570
H          2.50600        3.55190        1.01890
H          0.83330        5.24750        1.51920
H         -1.27090        5.72060        2.66610
H         -2.25820        7.11860        2.18030
H         -0.52220        7.10480        1.80790
H         -1.82330        3.46060       -1.31340
H         -0.11050        1.78880       -1.86330
H          3.18440        4.09740       -1.52900
H          5.52890        4.78860       -1.80970
H          8.66410        1.22310       -2.00480
H          9.01590        1.67710       -0.30530
H         10.00900        2.32110       -1.62770
H          6.81790        0.94030       -0.45990
H          4.49730        0.25580       -0.19340
H          1.24900        5.81630       -3.23970
H         -1.05940        6.54700       -2.99400
H         -3.17910        6.48060       -2.15240
H         -3.12280        7.12120       -3.82320
H         -5.47540        6.23720       -4.15270
H         -5.50820        5.81120       -2.43390
H         -5.35850        7.50300       -2.91920
H         -0.07020        2.03810       -4.68360
H         -1.86030        1.42670       -5.94170
H         -1.94880        0.73510       -4.30000
H         -3.65740       -0.24360       -5.85300
H         -4.42170        0.58120       -4.49130
H         -4.36600        1.36610       -6.06850
H          4.98410        6.07590       -4.72330
H          4.77870        8.28890       -5.72480
H          4.50930        9.74990       -7.52160
H          3.83910       10.40800       -6.00410
H          2.85110       11.08610       -8.82050
H          2.19110       11.73850       -7.32140
H          3.84990       12.13610       -7.80120
H         -1.32530        7.36160       -7.54490
H         -0.70610        6.17340       -6.37560
H         -1.36310        5.07040       -8.50860
H         -0.27750        6.13570       -9.41400
H          0.38960        4.93820       -8.30650
H          1.10340        5.03950       -6.15430
H          6.74910        3.73340       -4.34370
H         11.22310       -1.35470       -7.33810
H         12.96480        0.11240       -7.23900
H         13.69150        2.36270       -6.60690
H         12.12210        3.98170       -5.63930
