
  xtb     02072222403D
 energy: -347.378676530977 gnorm: 0.000364403323 xtb: 6.4.1 (unknown)
203225  0     0  0            999 V2000
    6.0329    3.0505   -6.4114 C   0  0  0  0  0  0  0  0  0  0  0  0
    7.3430    2.7744   -6.1435 C   0  0  0  0  0  0  0  0  0  0  0  0
    7.9458    2.6226   -4.8072 C   0  0  0  0  0  0  0  0  0  0  0  0
    7.3998    2.7569   -3.7284 O   0  0  0  0  0  0  0  0  0  0  0  0
    9.3542    2.2581   -5.0313 C   0  0  0  0  0  0  0  0  0  0  0  0
   10.3151    1.9944   -4.0577 C   0  0  0  0  0  0  0  0  0  0  0  0
   11.5510    1.6726   -4.5644 C   0  0  0  0  0  0  0  0  0  0  0  0
   11.8106    1.6105   -5.9405 C   0  0  0  0  0  0  0  0  0  0  0  0
   10.8718    1.8666   -6.9108 C   0  0  0  0  0  0  0  0  0  0  0  0
    9.6081    2.2043   -6.4172 C   0  0  0  0  0  0  0  0  0  0  0  0
    8.3810    2.5446   -7.1331 C   0  0  0  0  0  0  0  0  0  0  0  0
    8.2624    2.6515   -8.4949 C   0  0  0  0  0  0  0  0  0  0  0  0
    7.0942    3.0101   -9.2003 C   0  0  0  0  0  0  0  0  0  0  0  0
    6.1957    3.2999   -9.8553 N   0  0  0  0  0  0  0  0  0  0  0  0
    9.3140    2.4309   -9.4097 C   0  0  0  0  0  0  0  0  0  0  0  0
   10.1150    2.2696  -10.2163 N   0  0  0  0  0  0  0  0  0  0  0  0
   13.2560    1.2356   -5.7323 C   0  0  0  0  0  0  0  0  0  0  0  0
   14.3220    2.3408   -5.9342 C   0  0  0  0  0  0  0  0  0  0  0  0
   13.6352    3.6550   -5.6563 C   0  0  0  0  0  0  0  0  0  0  0  0
   13.3907    3.7166   -4.3541 C   0  0  0  0  0  0  0  0  0  0  0  0
   13.9077    2.4450   -3.7279 C   0  0  0  0  0  0  0  0  0  0  0  0
   15.1205    2.1718   -4.6318 C   0  0  0  0  0  0  0  0  0  0  0  0
   12.9680    1.3074   -4.1994 C   0  0  0  0  0  0  0  0  0  0  0  0
    4.9518    3.3112   -5.5446 C   0  0  0  0  0  0  0  0  0  0  0  0
    3.6848    3.5735   -6.0348 C   0  0  0  0  0  0  0  0  0  0  0  0
    2.7224    3.8350   -5.0495 C   0  0  0  0  0  0  0  0  0  0  0  0
    1.3325    4.0712   -5.2181 C   0  0  0  0  0  0  0  0  0  0  0  0
    0.7283    4.1492   -6.5216 C   0  0  0  0  0  0  0  0  0  0  0  0
    1.2385    4.7272   -7.6567 C   0  0  0  0  0  0  0  0  0  0  0  0
    0.4417    4.6306   -8.8081 C   0  0  0  0  0  0  0  0  0  0  0  0
   -0.7357    3.9503   -8.6387 C   0  0  0  0  0  0  0  0  0  0  0  0
   -1.8512    3.6352   -9.9429 S   0  0  0  0  0  0  0  0  0  0  0  0
   -3.3044    2.9869   -9.0447 C   0  0  0  0  0  0  0  0  0  0  0  0
   -4.0791    4.0804   -8.3378 C   0  0  0  0  0  0  0  0  0  0  0  0
   -0.9429    3.3520   -6.8651 Se  0  0  0  0  0  2  0  0  0  0  0  0
    0.5845    4.1480   -4.0480 C   0  0  0  0  0  0  0  0  0  0  0  0
    1.1584    4.0680   -2.7580 C   0  0  0  0  0  0  0  0  0  0  0  0
    2.5434    3.8717   -2.5906 C   0  0  0  0  0  0  0  0  0  0  0  0
    3.0928    3.7518   -1.2558 C   0  0  0  0  0  0  0  0  0  0  0  0
    2.8297    4.5694   -0.1935 C   0  0  0  0  0  0  0  0  0  0  0  0
    3.3808    4.1695    1.0395 C   0  0  0  0  0  0  0  0  0  0  0  0
    4.0841    2.9999    1.0048 C   0  0  0  0  0  0  0  0  0  0  0  0
    4.9212    2.3414    2.3949 S   0  0  0  0  0  0  0  0  0  0  0  0
    4.9384    0.5606    1.9954 C   0  0  0  0  0  0  0  0  0  0  0  0
    3.5582   -0.0542    2.0956 C   0  0  0  0  0  0  0  0  0  0  0  0
    4.1653    2.2918   -0.7431 Se  0  0  0  0  0  2  0  0  0  0  0  0
    3.2924    3.7342   -3.7502 C   0  0  0  0  0  0  0  0  0  0  0  0
    4.9960    3.3733   -3.7941 S   0  0  0  0  0  0  0  0  0  0  0  0
    0.1816    4.0589   -1.7439 C   0  0  0  0  0  0  0  0  0  0  0  0
   -1.1014    4.1162   -2.2118 C   0  0  0  0  0  0  0  0  0  0  0  0
   -1.1512    4.2636   -3.9523 S   0  0  0  0  0  0  0  0  0  0  0  0
   -2.2369    3.7677   -1.4048 C   0  0  0  0  0  0  0  0  0  0  0  0
   -2.1377    3.8099    0.0190 C   0  0  0  0  0  0  0  0  0  0  0  0
   -1.2888    4.6715    0.6190 N   0  0  0  0  0  0  0  0  0  0  0  0
   -1.2023    4.6574    1.9141 C   0  0  0  0  0  0  0  0  0  0  0  0
   -1.9543    3.7409    2.7075 C   0  0  0  0  0  0  0  0  0  0  0  0
   -1.8016    3.7752    4.0194 O   0  0  0  0  0  0  0  0  0  0  0  0
   -2.5885    2.8582    4.7869 C   0  0  0  0  0  0  0  0  0  0  0  0
   -2.1074    2.9061    6.2242 C   0  0  0  0  0  0  0  0  0  0  0  0
   -2.7928    2.8985    2.1490 N   0  0  0  0  0  0  0  0  0  0  0  0
   -2.9070    2.9224    0.8080 C   0  0  0  0  0  0  0  0  0  0  0  0
   -3.7951    2.0126    0.1830 C   0  0  0  0  0  0  0  0  0  0  0  0
   -4.1107    2.2495   -1.1407 C   0  0  0  0  0  0  0  0  0  0  0  0
   -3.3501    3.1216   -1.9254 C   0  0  0  0  0  0  0  0  0  0  0  0
   -3.6135    3.1611   -3.2418 F   0  0  0  0  0  0  0  0  0  0  0  0
   -5.0455    1.5006   -1.7512 F   0  0  0  0  0  0  0  0  0  0  0  0
   -4.0950    0.7533    0.8456 C   0  0  0  0  0  0  0  0  0  0  0  0
   -3.1026   -0.1585    1.1596 C   0  0  0  0  0  0  0  0  0  0  0  0
   -1.7260    0.0593    0.9202 N   0  0  0  0  0  0  0  0  0  0  0  0
   -1.2458    0.1262   -0.3871 C   0  0  0  0  0  0  0  0  0  0  0  0
   -2.0926    0.0296   -1.4954 C   0  0  0  0  0  0  0  0  0  0  0  0
   -1.6087    0.2065   -2.7746 C   0  0  0  0  0  0  0  0  0  0  0  0
   -0.2594    0.4556   -2.9993 C   0  0  0  0  0  0  0  0  0  0  0  0
    0.2506    0.7726   -4.6644 S   0  0  0  0  0  0  0  0  0  0  0  0
    2.0347    0.4430   -4.6269 C   0  0  0  0  0  0  0  0  0  0  0  0
    0.6099    0.4281   -1.9190 C   0  0  0  0  0  0  0  0  0  0  0  0
    0.1243    0.2399   -0.6422 C   0  0  0  0  0  0  0  0  0  0  0  0
   -0.9296    0.4969    2.0027 C   0  0  0  0  0  0  0  0  0  0  0  0
   -0.9852   -0.1443    3.2384 C   0  0  0  0  0  0  0  0  0  0  0  0
   -0.1974    0.2774    4.2887 C   0  0  0  0  0  0  0  0  0  0  0  0
    0.6689    1.3571    4.1368 C   0  0  0  0  0  0  0  0  0  0  0  0
    1.6450    1.8052    5.5357 S   0  0  0  0  0  0  0  0  0  0  0  0
    2.3714    3.3984    5.0571 C   0  0  0  0  0  0  0  0  0  0  0  0
    0.7197    2.0145    2.9151 C   0  0  0  0  0  0  0  0  0  0  0  0
   -0.0782    1.5932    1.8709 C   0  0  0  0  0  0  0  0  0  0  0  0
   -3.6724   -1.3386    1.6869 C   0  0  0  0  0  0  0  0  0  0  0  0
   -3.0330   -2.8100    2.3253 S   0  0  0  0  0  0  0  0  0  0  0  0
   -4.6536   -3.3674    2.7445 C   0  0  0  0  0  0  0  0  0  0  0  0
   -5.6410   -2.4662    2.3338 C   0  0  0  0  0  0  0  0  0  0  0  0
   -6.9860   -2.6329    2.5231 N   0  0  0  0  0  0  0  0  0  0  0  0
   -7.8908   -2.0275    1.6380 C   0  0  0  0  0  0  0  0  0  0  0  0
   -7.6205   -1.9905    0.2722 C   0  0  0  0  0  0  0  0  0  0  0  0
   -8.4900   -1.3711   -0.6030 C   0  0  0  0  0  0  0  0  0  0  0  0
   -9.6554   -0.7868   -0.1249 C   0  0  0  0  0  0  0  0  0  0  0  0
  -10.8264    0.0452   -1.1453 S   0  0  0  0  0  0  0  0  0  0  0  0
   -9.9538    0.2422   -2.7255 C   0  0  0  0  0  0  0  0  0  0  0  0
   -9.9496   -0.8597    1.2368 C   0  0  0  0  0  0  0  0  0  0  0  0
   -9.0791   -1.4702    2.1104 C   0  0  0  0  0  0  0  0  0  0  0  0
   -7.4878   -3.3686    3.6185 C   0  0  0  0  0  0  0  0  0  0  0  0
   -8.4910   -4.3099    3.4224 C   0  0  0  0  0  0  0  0  0  0  0  0
   -8.9530   -5.0696    4.4800 C   0  0  0  0  0  0  0  0  0  0  0  0
   -8.4133   -4.8949    5.7474 C   0  0  0  0  0  0  0  0  0  0  0  0
   -8.9043   -5.8307    7.1581 S   0  0  0  0  0  0  0  0  0  0  0  0
   -9.7718   -7.2543    6.4374 C   0  0  0  0  0  0  0  0  0  0  0  0
   -7.4387   -3.9184    5.9509 C   0  0  0  0  0  0  0  0  0  0  0  0
   -6.9821   -3.1557    4.9002 C   0  0  0  0  0  0  0  0  0  0  0  0
   -5.0587   -1.3134    1.7513 C   0  0  0  0  0  0  0  0  0  0  0  0
   -5.6982    0.1770    1.1540 S   0  0  0  0  0  0  0  0  0  0  0  0
   -4.8517   -4.6155    3.3707 C   0  0  0  0  0  0  0  0  0  0  0  0
   -3.9875   -5.3097    4.1631 C   0  0  0  0  0  0  0  0  0  0  0  0
   -4.2094   -6.7547    4.4133 C   0  0  0  0  0  0  0  0  0  0  0  0
   -5.2117   -7.3877    4.1582 O   0  0  0  0  0  0  0  0  0  0  0  0
   -2.9475   -7.2493    4.9984 C   0  0  0  0  0  0  0  0  0  0  0  0
   -2.6231   -8.5651    5.3222 C   0  0  0  0  0  0  0  0  0  0  0  0
   -1.3601   -8.7199    5.8417 C   0  0  0  0  0  0  0  0  0  0  0  0
   -0.4770   -7.6473    6.0246 C   0  0  0  0  0  0  0  0  0  0  0  0
   -0.7854   -6.3427    5.7206 C   0  0  0  0  0  0  0  0  0  0  0  0
   -2.0679   -6.1635    5.1959 C   0  0  0  0  0  0  0  0  0  0  0  0
   -2.7612   -4.9318    4.8260 C   0  0  0  0  0  0  0  0  0  0  0  0
   -2.4340   -3.6769    5.2778 C   0  0  0  0  0  0  0  0  0  0  0  0
   -1.2363   -3.3477    5.9405 C   0  0  0  0  0  0  0  0  0  0  0  0
   -0.2705   -2.9951    6.4527 N   0  0  0  0  0  0  0  0  0  0  0  0
   -3.3089   -2.5750    5.2179 C   0  0  0  0  0  0  0  0  0  0  0  0
   -4.0104   -1.6650    5.2587 N   0  0  0  0  0  0  0  0  0  0  0  0
    0.6121   -8.5331    6.5765 C   0  0  0  0  0  0  0  0  0  0  0  0
    1.7722   -8.8831    5.6209 C   0  0  0  0  0  0  0  0  0  0  0  0
    2.4009  -10.1061    6.2487 C   0  0  0  0  0  0  0  0  0  0  0  0
    1.5641  -11.1218    6.0793 C   0  0  0  0  0  0  0  0  0  0  0  0
    0.3559  -10.6025    5.3339 C   0  0  0  0  0  0  0  0  0  0  0  0
    1.0257   -9.5402    4.4527 C   0  0  0  0  0  0  0  0  0  0  0  0
   -0.3736   -9.7288    6.3763 C   0  0  0  0  0  0  0  0  0  0  0  0
    5.7439    3.0856   -7.4549 H   0  0  0  0  0  0  0  0  0  0  0  0
   10.0697    2.0497   -3.0086 H   0  0  0  0  0  0  0  0  0  0  0  0
   11.0894    1.8104   -7.9640 H   0  0  0  0  0  0  0  0  0  0  0  0
   13.5654    0.2794   -6.1494 H   0  0  0  0  0  0  0  0  0  0  0  0
   14.8692    2.2739   -6.8705 H   0  0  0  0  0  0  0  0  0  0  0  0
   13.3555    4.3573   -6.4196 H   0  0  0  0  0  0  0  0  0  0  0  0
   12.8652    4.4807   -3.8117 H   0  0  0  0  0  0  0  0  0  0  0  0
   14.0790    2.4732   -2.6550 H   0  0  0  0  0  0  0  0  0  0  0  0
   15.5398    1.1744   -4.5062 H   0  0  0  0  0  0  0  0  0  0  0  0
   15.9057    2.9178   -4.5195 H   0  0  0  0  0  0  0  0  0  0  0  0
   13.0911    0.3980   -3.6143 H   0  0  0  0  0  0  0  0  0  0  0  0
    3.4705    3.5419   -7.0880 H   0  0  0  0  0  0  0  0  0  0  0  0
    2.1622    5.2816   -7.6522 H   0  0  0  0  0  0  0  0  0  0  0  0
    0.7266    5.0579   -9.7538 H   0  0  0  0  0  0  0  0  0  0  0  0
   -2.9386    2.2300   -8.3436 H   0  0  0  0  0  0  0  0  0  0  0  0
   -3.9098    2.5041   -9.8113 H   0  0  0  0  0  0  0  0  0  0  0  0
   -3.4612    4.5620   -7.5795 H   0  0  0  0  0  0  0  0  0  0  0  0
   -4.9506    3.6539   -7.8462 H   0  0  0  0  0  0  0  0  0  0  0  0
   -4.4084    4.8339   -9.0493 H   0  0  0  0  0  0  0  0  0  0  0  0
    2.2516    5.4726   -0.2978 H   0  0  0  0  0  0  0  0  0  0  0  0
    3.2581    4.7397    1.9451 H   0  0  0  0  0  0  0  0  0  0  0  0
    5.6259    0.1196    2.7162 H   0  0  0  0  0  0  0  0  0  0  0  0
    5.3567    0.4631    0.9884 H   0  0  0  0  0  0  0  0  0  0  0  0
    3.1593    0.0565    3.1013 H   0  0  0  0  0  0  0  0  0  0  0  0
    3.6046   -1.1138    1.8536 H   0  0  0  0  0  0  0  0  0  0  0  0
    2.8755    0.4313    1.3981 H   0  0  0  0  0  0  0  0  0  0  0  0
    0.4170    3.9347   -0.7048 H   0  0  0  0  0  0  0  0  0  0  0  0
   -0.5483    5.3790    2.3812 H   0  0  0  0  0  0  0  0  0  0  0  0
   -3.6411    3.1512    4.7061 H   0  0  0  0  0  0  0  0  0  0  0  0
   -2.4784    1.8553    4.3631 H   0  0  0  0  0  0  0  0  0  0  0  0
   -2.6999    2.2219    6.8237 H   0  0  0  0  0  0  0  0  0  0  0  0
   -1.0640    2.6090    6.2817 H   0  0  0  0  0  0  0  0  0  0  0  0
   -2.2089    3.9116    6.6238 H   0  0  0  0  0  0  0  0  0  0  0  0
   -3.1362   -0.2071   -1.3638 H   0  0  0  0  0  0  0  0  0  0  0  0
   -2.2828    0.1593   -3.6162 H   0  0  0  0  0  0  0  0  0  0  0  0
    2.2087   -0.5560   -4.2384 H   0  0  0  0  0  0  0  0  0  0  0  0
    2.3686    0.5070   -5.6581 H   0  0  0  0  0  0  0  0  0  0  0  0
    2.5491    1.1904   -4.0293 H   0  0  0  0  0  0  0  0  0  0  0  0
    1.6748    0.5494   -2.0513 H   0  0  0  0  0  0  0  0  0  0  0  0
    0.8301    0.1738    0.1705 H   0  0  0  0  0  0  0  0  0  0  0  0
   -1.6479   -0.9794    3.3878 H   0  0  0  0  0  0  0  0  0  0  0  0
   -0.2441   -0.2350    5.2375 H   0  0  0  0  0  0  0  0  0  0  0  0
    1.5808    4.0827    4.7628 H   0  0  0  0  0  0  0  0  0  0  0  0
    2.8707    3.7692    5.9468 H   0  0  0  0  0  0  0  0  0  0  0  0
    3.0995    3.2560    4.2628 H   0  0  0  0  0  0  0  0  0  0  0  0
    1.3724    2.8579    2.7577 H   0  0  0  0  0  0  0  0  0  0  0  0
   -0.0403    2.1334    0.9359 H   0  0  0  0  0  0  0  0  0  0  0  0
   -6.7250   -2.4580   -0.1103 H   0  0  0  0  0  0  0  0  0  0  0  0
   -8.2486   -1.3587   -1.6530 H   0  0  0  0  0  0  0  0  0  0  0  0
  -10.5820    0.8916   -3.3272 H   0  0  0  0  0  0  0  0  0  0  0  0
   -9.8443   -0.7196   -3.2183 H   0  0  0  0  0  0  0  0  0  0  0  0
   -8.9900    0.7122   -2.5547 H   0  0  0  0  0  0  0  0  0  0  0  0
  -10.8643   -0.4168    1.5992 H   0  0  0  0  0  0  0  0  0  0  0  0
   -9.3032   -1.5079    3.1656 H   0  0  0  0  0  0  0  0  0  0  0  0
   -8.9001   -4.4566    2.4335 H   0  0  0  0  0  0  0  0  0  0  0  0
   -9.7260   -5.7985    4.2995 H   0  0  0  0  0  0  0  0  0  0  0  0
  -10.7312   -6.9481    6.0302 H   0  0  0  0  0  0  0  0  0  0  0  0
   -9.9278   -7.9484    7.2573 H   0  0  0  0  0  0  0  0  0  0  0  0
   -9.1442   -7.7108    5.6780 H   0  0  0  0  0  0  0  0  0  0  0  0
   -7.0456   -3.7667    6.9442 H   0  0  0  0  0  0  0  0  0  0  0  0
   -6.2219   -2.4062    5.0613 H   0  0  0  0  0  0  0  0  0  0  0  0
   -5.7831   -5.1267    3.1510 H   0  0  0  0  0  0  0  0  0  0  0  0
   -3.3318   -9.3641    5.1706 H   0  0  0  0  0  0  0  0  0  0  0  0
   -0.1011   -5.5227    5.8655 H   0  0  0  0  0  0  0  0  0  0  0  0
    0.9476   -8.2974    7.5846 H   0  0  0  0  0  0  0  0  0  0  0  0
    2.4368   -8.0551    5.3894 H   0  0  0  0  0  0  0  0  0  0  0  0
    3.3325  -10.0943    6.7833 H   0  0  0  0  0  0  0  0  0  0  0  0
    1.6572  -12.1279    6.4441 H   0  0  0  0  0  0  0  0  0  0  0  0
   -0.2695  -11.3416    4.8403 H   0  0  0  0  0  0  0  0  0  0  0  0
    1.7057   -9.9790    3.7243 H   0  0  0  0  0  0  0  0  0  0  0  0
    0.3257   -8.8788    3.9455 H   0  0  0  0  0  0  0  0  0  0  0  0
   -0.6953  -10.2897    7.2518 H   0  0  0  0  0  0  0  0  0  0  0  0
  1  2  2  0  0  0  0
  2  3  1  0  0  0  0
  3  4  2  0  0  0  0
  3  5  1  0  0  0  0
  5  6  2  0  0  0  0
  6  7  1  0  0  0  0
  7  8  2  0  0  0  0
  8  9  1  0  0  0  0
  9 10  2  0  0  0  0
 10 11  1  0  0  0  0
 11 12  2  0  0  0  0
 12 13  1  0  0  0  0
 13 14  3  0  0  0  0
 12 15  1  0  0  0  0
 15 16  3  0  0  0  0
  8 17  1  0  0  0  0
 17 18  1  0  0  0  0
 18 19  1  0  0  0  0
 19 20  2  0  0  0  0
 20 21  1  0  0  0  0
 21 22  1  0  0  0  0
 21 23  1  0  0  0  0
  1 24  1  0  0  0  0
 24 25  2  0  0  0  0
 25 26  1  0  0  0  0
 26 27  2  0  0  0  0
 27 28  1  0  0  0  0
 28 29  2  0  0  0  0
 29 30  1  0  0  0  0
 30 31  2  0  0  0  0
 31 32  1  0  0  0  0
 32 33  1  0  0  0  0
 33 34  1  0  0  0  0
 31 35  1  0  0  0  0
 27 36  1  0  0  0  0
 36 37  2  0  0  0  0
 37 38  1  0  0  0  0
 38 39  1  0  0  0  0
 39 40  2  0  0  0  0
 40 41  1  0  0  0  0
 41 42  2  0  0  0  0
 42 43  1  0  0  0  0
 43 44  1  0  0  0  0
 44 45  1  0  0  0  0
 42 46  1  0  0  0  0
 38 47  2  0  0  0  0
 47 48  1  0  0  0  0
 37 49  1  0  0  0  0
 49 50  2  0  0  0  0
 50 51  1  0  0  0  0
 50 52  1  0  0  0  0
 52 53  1  0  0  0  0
 53 54  2  0  0  0  0
 54 55  1  0  0  0  0
 55 56  2  0  0  0  0
 56 57  1  0  0  0  0
 57 58  1  0  0  0  0
 58 59  1  0  0  0  0
 56 60  1  0  0  0  0
 60 61  2  0  0  0  0
 61 62  1  0  0  0  0
 62 63  2  0  0  0  0
 63 64  1  0  0  0  0
 64 65  1  0  0  0  0
 63 66  1  0  0  0  0
 62 67  1  0  0  0  0
 67 68  2  0  0  0  0
 68 69  1  0  0  0  0
 69 70  1  0  0  0  0
 70 71  2  0  0  0  0
 71 72  1  0  0  0  0
 72 73  2  0  0  0  0
 73 74  1  0  0  0  0
 74 75  1  0  0  0  0
 73 76  1  0  0  0  0
 76 77  2  0  0  0  0
 69 78  1  0  0  0  0
 78 79  2  0  0  0  0
 79 80  1  0  0  0  0
 80 81  2  0  0  0  0
 81 82  1  0  0  0  0
 82 83  1  0  0  0  0
 81 84  1  0  0  0  0
 84 85  2  0  0  0  0
 68 86  1  0  0  0  0
 86 87  1  0  0  0  0
 87 88  1  0  0  0  0
 88 89  2  0  0  0  0
 89 90  1  0  0  0  0
 90 91  1  0  0  0  0
 91 92  2  0  0  0  0
 92 93  1  0  0  0  0
 93 94  2  0  0  0  0
 94 95  1  0  0  0  0
 95 96  1  0  0  0  0
 94 97  1  0  0  0  0
 97 98  2  0  0  0  0
 90 99  1  0  0  0  0
 99100  2  0  0  0  0
100101  1  0  0  0  0
101102  2  0  0  0  0
102103  1  0  0  0  0
103104  1  0  0  0  0
102105  1  0  0  0  0
105106  2  0  0  0  0
 89107  1  0  0  0  0
107108  1  0  0  0  0
 88109  1  0  0  0  0
109110  2  0  0  0  0
110111  1  0  0  0  0
111112  2  0  0  0  0
111113  1  0  0  0  0
113114  2  0  0  0  0
114115  1  0  0  0  0
115116  2  0  0  0  0
116117  1  0  0  0  0
117118  2  0  0  0  0
118119  1  0  0  0  0
119120  2  0  0  0  0
120121  1  0  0  0  0
121122  3  0  0  0  0
120123  1  0  0  0  0
123124  3  0  0  0  0
116125  1  0  0  0  0
125126  1  0  0  0  0
126127  1  0  0  0  0
127128  2  0  0  0  0
128129  1  0  0  0  0
129130  1  0  0  0  0
129131  1  0  0  0  0
 11  2  1  0  0  0  0
 23 17  1  0  0  0  0
 48 24  1  0  0  0  0
 64 52  2  0  0  0  0
108 67  1  0  0  0  0
119110  1  0  0  0  0
131125  1  0  0  0  0
 10  5  1  0  0  0  0
 22 18  1  0  0  0  0
 47 26  1  0  0  0  0
 61 53  1  0  0  0  0
 77 70  1  0  0  0  0
 85 78  1  0  0  0  0
107 86  2  0  0  0  0
118113  1  0  0  0  0
130126  1  0  0  0  0
 23  7  1  0  0  0  0
 35 28  1  0  0  0  0
 51 36  1  0  0  0  0
 98 91  1  0  0  0  0
106 99  1  0  0  0  0
131115  1  0  0  0  0
 46 39  1  0  0  0  0
  1132  1  0  0  0  0
  6133  1  0  0  0  0
  9134  1  0  0  0  0
 17135  1  0  0  0  0
 18136  1  0  0  0  0
 19137  1  0  0  0  0
 20138  1  0  0  0  0
 21139  1  0  0  0  0
 22140  1  0  0  0  0
 22141  1  0  0  0  0
 23142  1  0  0  0  0
 25143  1  0  0  0  0
 29144  1  0  0  0  0
 30145  1  0  0  0  0
 33146  1  0  0  0  0
 33147  1  0  0  0  0
 34148  1  0  0  0  0
 34149  1  0  0  0  0
 34150  1  0  0  0  0
 40151  1  0  0  0  0
 41152  1  0  0  0  0
 44153  1  0  0  0  0
 44154  1  0  0  0  0
 45155  1  0  0  0  0
 45156  1  0  0  0  0
 45157  1  0  0  0  0
 49158  1  0  0  0  0
 55159  1  0  0  0  0
 58160  1  0  0  0  0
 58161  1  0  0  0  0
 59162  1  0  0  0  0
 59163  1  0  0  0  0
 59164  1  0  0  0  0
 71165  1  0  0  0  0
 72166  1  0  0  0  0
 75167  1  0  0  0  0
 75168  1  0  0  0  0
 75169  1  0  0  0  0
 76170  1  0  0  0  0
 77171  1  0  0  0  0
 79172  1  0  0  0  0
 80173  1  0  0  0  0
 83174  1  0  0  0  0
 83175  1  0  0  0  0
 83176  1  0  0  0  0
 84177  1  0  0  0  0
 85178  1  0  0  0  0
 92179  1  0  0  0  0
 93180  1  0  0  0  0
 96181  1  0  0  0  0
 96182  1  0  0  0  0
 96183  1  0  0  0  0
 97184  1  0  0  0  0
 98185  1  0  0  0  0
100186  1  0  0  0  0
101187  1  0  0  0  0
104188  1  0  0  0  0
104189  1  0  0  0  0
104190  1  0  0  0  0
105191  1  0  0  0  0
106192  1  0  0  0  0
109193  1  0  0  0  0
114194  1  0  0  0  0
117195  1  0  0  0  0
125196  1  0  0  0  0
126197  1  0  0  0  0
127198  1  0  0  0  0
128199  1  0  0  0  0
129200  1  0  0  0  0
130201  1  0  0  0  0
130202  1  0  0  0  0
131203  1  0  0  0  0
M  END
