247

C         -3.02990       -0.69090        7.55160
C         -4.26980       -0.94470        8.07260
C         -4.69170       -0.31760        9.34580
O         -3.97990        0.23130       10.15990
C         -6.16450       -0.45250        9.37590
C         -7.04760        0.10000       10.29940
C         -8.37160       -0.16100       10.03490
C         -8.79240       -0.90640        8.92620
C         -7.93240       -1.46650        8.01090
C         -6.58310       -1.22360        8.27130
C         -5.39550       -1.67200        7.54680
C         -5.33670       -2.77850        6.73180
C         -6.45860       -3.52840        6.33340
N         -7.33320       -4.18090        5.97390
C         -4.13050       -3.35090        6.28980
N         -3.17160       -3.88890        5.95130
C        -10.25120       -0.75820        9.27910
C        -10.96260       -1.97490        9.92010
C         -9.89210       -2.77520       10.61960
C         -9.49130       -2.07890       11.67500
C        -10.28350       -0.79540       11.70790
C        -11.61920       -1.28660       11.12730
C         -9.78200        0.06390       10.52070
C         -2.63620       -0.76390        6.20870
C         -1.32760       -0.66380        5.70630
N         -0.18290       -0.67740        6.45390
C          1.00020       -0.16790        5.88450
C          2.18380       -0.90380        5.92330
C          3.30960       -0.43130        5.28800
C          3.28360        0.78260        4.60110
S          4.74570        1.23190        3.72240
C          4.42980        2.93700        3.19830
C          2.12490        1.54730        4.61700
C          0.99610        1.07580        5.25870
C         -0.07990       -1.40190        7.65990
C          0.66230       -0.87130        8.71300
C          0.79030       -1.57460        9.88980
C          0.18240       -2.82040       10.03760
S          0.41510       -3.62470       11.58850
C         -0.58470       -5.13360       11.45490
C         -0.54410       -3.35580        8.98130
C         -0.66870       -2.65390        7.79900
C         -1.33680       -0.61010        4.29660
S         -0.09520       -0.57720        3.09960
C         -1.28150       -0.75730        1.81510
C         -2.58230       -0.81570        2.31240
N         -3.73800       -0.96270        1.55230
C         -3.83170       -1.98930        0.60780
C         -3.09610       -3.16090        0.76230
C         -3.13250       -4.15040       -0.20110
C         -3.92090       -3.99040       -1.33170
S         -4.02330       -5.17330       -2.64030
C         -3.23460       -6.65490       -1.94540
C         -4.67480       -2.82750       -1.48090
C         -4.63170       -1.83740       -0.52720
C         -4.84580       -0.19100        1.92070
C         -4.64890        1.10690        2.38720
C         -5.71240        1.87420        2.81850
C         -7.00070        1.36250        2.76730
S         -8.43400        2.26970        3.26280
C         -7.75190        3.61110        4.28330
C         -7.20660        0.07440        2.28030
C         -6.14390       -0.69890        1.87140
C         -2.59210       -0.71800        3.71870
S         -3.83910       -0.81180        4.90750
C         -0.85090       -0.67640        0.46710
C          0.45700       -0.72850       -0.01470
N          1.58470       -1.15280        0.67550
C          1.54020       -2.25470        1.53530
C          0.56320       -3.23890        1.38850
C          0.39720       -4.21710        2.34860
C          1.22780       -4.25140        3.46120
S          1.04180       -5.39750        4.79100
C         -0.71120       -5.86420        4.69820
C          2.27540       -3.33880        3.55310
C          2.42620       -2.34680        2.61260
C          2.78020       -0.45240        0.45540
C          3.99220       -1.12660        0.31940
C          5.15280       -0.42890        0.06070
C          5.11800        0.95150       -0.07760
S          6.58720        1.87200       -0.45650
C          7.73570        1.21640        0.79380
C          3.91730        1.63410        0.05390
C          2.75990        0.93760        0.33450
C          0.51320       -0.25090       -1.34420
S          1.81220        0.13660       -2.41360
C          0.68230        0.85870       -3.56350
C         -0.62760        0.67920       -3.19040
N         -1.73620        0.99760       -3.96900
C         -2.92370        1.29110       -3.26670
C         -4.09180        0.55540       -3.46890
C         -5.21860        0.82790       -2.72880
C         -5.20770        1.82910       -1.75870
S         -6.69550        2.02660       -0.82660
C         -6.48050        3.62720       -0.00230
C         -4.05170        2.56940       -1.55890
C         -2.92310        2.30390       -2.31240
C         -1.84860        0.46120       -5.26410
C         -2.77200        1.02300       -6.14700
C         -3.03370        0.42180       -7.35800
C         -2.36570       -0.74410       -7.72320
S         -2.86680       -1.52090       -9.22990
C         -2.17190       -3.19080       -9.08920
C         -1.37430       -1.24740       -6.89460
C         -1.12350       -0.65300       -5.67370
C         -0.71040        0.08000       -1.89900
S         -1.99750       -0.19110       -0.78070
C          1.37540        1.86250       -4.37800
C          1.69330        3.01770       -3.67970
C          2.75050        3.83620       -4.04480
C          3.56650        3.49900       -5.11300
C          3.11600        2.46400       -5.98200
N          3.80920        2.20080       -7.10060
C          3.37250        1.27850       -7.92320
C          4.18290        1.03500       -9.12250
C          3.63010        0.94310      -10.39730
C          4.44150        0.71060      -11.48990
C          5.81620        0.56480      -11.34620
C          6.67970        0.25050      -12.53260
C          6.74850       -1.26230      -12.75330
C          6.36580        0.67920      -10.07490
C          5.56420        0.92180       -8.97790
C          2.16450        0.56280       -7.63080
N          1.53570        0.73220       -6.49770
C          1.99050        1.66190       -5.63570
C          1.58670       -0.32710       -8.65030
C          2.23880       -1.48640       -9.05280
C          1.74180       -2.22870      -10.10720
C          0.61390       -1.81080      -10.80350
C          0.13840       -2.55660      -12.01660
C          0.81900       -2.00450      -13.27080
C         -0.03430       -0.65170      -10.39260
C          0.42790        0.07010       -9.30950
C          4.88650        4.03070       -5.29400
C          5.67890        4.49100       -4.30180
S          5.26770        4.61340       -2.59950
C          6.92950        4.95710       -2.17770
C          7.28910        5.09840       -0.86340
C          6.29930        5.02700        0.13700
N          5.50390        4.99400        0.96400
C          8.59380        5.23880       -0.36380
N          9.63360        5.29640        0.12060
N          7.71560        5.05030       -3.28060
C          9.10020        5.47250       -3.25210
C          9.26370        6.89640       -2.77790
C          8.26650        7.84080       -2.98050
C          8.43650        9.14250       -2.54220
C          9.60830        9.51420       -1.90760
C         10.61240        8.57980       -1.71640
C         10.44060        7.27750       -2.14700
C          7.09090        4.83060       -4.50190
O          7.66910        4.89110       -5.56110
H         -2.30670       -0.27660        8.24620
H         -6.68670        0.67760       11.13620
H         -8.26260       -2.03110        7.15410
H        -10.87190       -0.25510        8.54020
H        -11.60990       -2.52710        9.24410
H         -9.50660       -3.70820       10.25210
H         -8.70390       -2.31440       12.36690
H        -10.31360       -0.27410       12.66130
H        -12.13200       -1.98730       11.78460
H        -12.29560       -0.47870       10.85110
H        -10.10260        1.10140       10.59660
H          2.20320       -1.85370        6.43520
H          4.22290       -1.00610        5.29900
H          3.58870        2.96350        2.51350
H          4.25710        3.55980        4.07080
H          5.32160        3.27290        2.67840
H          2.08330        2.50630        4.12740
H          0.09510        1.67210        5.26440
H          1.13130        0.09500        8.60180
H          1.35730       -1.16600       10.71170
H         -0.49950       -5.62600       12.41870
H         -1.62160       -4.87360       11.26340
H         -0.18670       -5.77780       10.67630
H         -1.01030       -4.32440        9.05570
H         -1.22970       -3.08430        6.98340
H         -2.48930       -3.29780        1.64540
H         -2.54230       -5.04110       -0.05480
H         -2.16710       -6.49340       -1.82440
H         -3.40540       -7.44480       -2.67020
H         -3.70610       -6.91090       -1.00130
H         -5.28530       -2.70670       -2.36230
H         -5.20040       -0.93070       -0.66020
H         -3.64970        1.51840        2.41130
H         -5.52290        2.87010        3.18810
H         -7.07860        3.19520        5.02680
H         -7.24780        4.34560        3.66130
H         -8.60480        4.07180        4.77180
H         -8.21070       -0.31800        2.24180
H         -6.31320       -1.70740        1.52750
H         -0.09340       -3.21920        0.53090
H         -0.38740       -4.94700        2.22440
H         -1.32960       -4.97280        4.66510
H         -0.88960       -6.50620        3.84040
H         -0.91550       -6.41410        5.61140
H          2.94830       -3.39560        4.39390
H          3.19940       -1.60530        2.73690
H          4.01660       -2.20310        0.39880
H          6.08290       -0.96390       -0.05330
H          7.20150        1.10600        1.73250
H          8.14800        0.26650        0.46680
H          8.52990        1.94970        0.89560
H          3.90580        2.70820       -0.05460
H          1.82600        1.46590        0.46260
H         -4.10550       -0.23900       -4.19930
H         -6.12180        0.25720       -2.88160
H         -7.42530        3.82380        0.49530
H         -6.27980        4.39620       -0.74240
H         -5.68330        3.56250        0.73180
H         -4.01350        3.35040       -0.81640
H         -2.02180        2.87740       -2.15030
H         -3.31300        1.91120       -5.85600
H         -3.77450        0.83630       -8.02470
H         -2.45650       -3.62070       -8.13370
H         -1.09180       -3.15820       -9.20480
H         -2.61180       -3.76340       -9.89980
H         -0.80280       -2.11690       -7.17570
H         -0.37570       -1.08300       -5.02680
H          1.16440        3.22950       -2.76170
H          2.96530        4.70950       -3.44900
H          2.57000        1.08220      -10.54160
H          3.99930        0.64730      -12.47400
H          6.26920        0.72530      -13.42600
H          7.68770        0.63710      -12.37120
H          7.16970       -1.75320      -11.87880
H          7.37040       -1.49330      -13.61480
H          5.75260       -1.66490      -12.92490
H          7.43440        0.58390       -9.94560
H          5.99650        1.01700       -7.99310
H          3.13480       -1.80360       -8.53870
H          2.24870       -3.13490      -10.40780
H         -0.94320       -2.44840      -12.11700
H          0.37180       -3.61910      -11.91880
H          1.89930       -2.10730      -13.19070
H          0.48250       -2.54100      -14.15470
H          0.58350       -0.94970      -13.39380
H         -0.91010       -0.31390      -10.92550
H         -0.08530        0.96480       -8.98840
H          5.32940        3.92760       -6.27650
H          9.45130        5.38260       -4.28790
H          9.68230        4.79200       -2.62420
H          7.35060        7.56780       -3.48670
H          7.65010        9.86600       -2.69920
H          9.73840       10.52890       -1.56280
H         11.52960        8.86330       -1.22310
H         11.21810        6.54690       -1.98310
