168

C          6.36700       -4.66940       -0.99020
C          7.28680       -4.87830        0.00260
C          7.63210       -3.90570        1.06410
O          7.13760       -2.81770        1.27620
C          8.82950       -4.46000        1.73200
C          9.53180       -3.89230        2.79120
C         10.62110       -4.62480        3.19930
C         10.99730       -5.82750        2.58780
C         10.32020       -6.39390        1.53380
C          9.20130       -5.67030        1.11340
C          8.23590       -5.96290        0.05810
C          8.16020       -7.12520       -0.67120
C          7.11050       -7.43320       -1.55840
N          6.26650       -7.77410       -2.26080
C          9.08440       -8.18440       -0.58670
N          9.80560       -9.07840       -0.57160
C         12.17470       -6.02120        3.51070
C         12.02840       -7.05270        4.65670
C         10.55520       -7.14010        4.96920
C         10.19660       -6.00290        5.55010
C         11.42100       -5.12620        5.64070
C         12.50590       -6.19640        5.84040
C         11.75330       -4.68240        4.19440
C          5.26190       -3.79130       -0.93640
C          4.55930       -3.45350        0.24180
C          3.39030       -2.60610        0.21900
N          2.88080       -2.43670        1.43890
S          3.75150       -3.28350        2.49570
N          4.80760       -3.90850        1.46860
C          2.79900       -2.11320       -0.97330
C          3.54940       -2.38560       -2.13830
N          3.30970       -1.91140       -3.36390
S          4.40460       -2.50060       -4.38200
N          5.25630       -3.36830       -3.33130
C          4.72230       -3.23420       -2.11770
C          1.54620       -1.45260       -0.91120
C          0.54870       -1.21250       -1.87380
N          0.45940       -1.62720       -3.18440
C          0.95090       -2.81540       -3.69160
C          1.18340       -2.94090       -5.06800
C          1.78260       -4.06950       -5.56930
C          2.15720       -5.11680       -4.72110
S          3.01150       -6.46440       -5.45050
C          3.67620       -7.37920       -4.03420
C          1.82540       -5.04280       -3.37080
C          1.21490       -3.91440       -2.86820
C         -0.23360       -0.72650       -4.03240
C          0.21650        0.58960       -4.12750
C         -0.53670        1.52920       -4.79310
C         -1.75880        1.17380       -5.36340
S         -2.72640        2.47060       -6.05700
C         -4.42060        1.83480       -5.90720
C         -2.16140       -0.15760       -5.34730
C         -1.40110       -1.10400       -4.68790
C         -0.50560       -0.45170       -1.30780
S         -2.00220        0.15240       -1.92520
C         -2.42180        0.83720       -0.35760
C         -1.41750        0.61670        0.59370
N         -1.36950        1.04870        1.90130
C         -1.86100        2.28690        2.31900
C         -1.88850        3.38370        1.46110
C         -2.49420        4.56400        1.84580
C         -3.08190        4.66840        3.09920
S         -3.95940        6.08670        3.66770
C         -4.02870        7.15910        2.20690
C         -2.99140        3.59680        3.98770
C         -2.38600        2.42170        3.60780
C         -0.63570        0.25340        2.80710
C         -0.89500       -1.11390        2.89630
C         -0.10420       -1.91710        3.68670
C          0.95780       -1.36970        4.40240
S          1.96050       -2.49550        5.31730
C          3.46570       -1.53770        5.65670
C          1.17420        0.00190        4.36900
C          0.38160        0.80740        3.57580
C         -0.35740       -0.14020        0.03070
S          1.10010       -0.81880        0.67110
C         -3.66800        1.50730       -0.31370
C         -4.37550        2.05800        0.74080
C         -5.52860        2.75130        0.37290
C         -6.24330        3.59860        1.31990
C         -6.56300        3.11930        2.60440
O         -6.11770        1.88000        2.90770
C         -6.68730        1.16740        3.99150
C         -8.12820        0.75380        3.72110
C         -7.30010        3.92410        3.47070
C         -7.71040        5.17690        3.07180
C         -7.37170        5.67960        1.82600
C         -6.61940        4.90570        0.95710
O         -6.16890        5.34080       -0.25470
C         -6.61840        6.58240       -0.76400
C         -5.92810        6.80460       -2.10040
C         -5.81820        2.62860       -0.99920
S         -4.51130        1.78030       -1.80930
C         -6.87470        3.03200       -1.81440
C         -8.13730        3.47200       -1.46450
C         -8.78470        3.25270       -0.16850
O         -8.44440        2.50170        0.72260
C        -10.05630        4.01440       -0.21950
C        -11.01120        4.16490        0.76630
Cl       -10.72980        3.62170        2.35830
C        -12.21940        4.79120        0.43250
Cl       -13.40980        5.05240        1.63300
C        -12.46730        5.15510       -0.88890
Cl       -13.99610        5.80500       -1.30300
C        -11.49480        4.98870       -1.88970
Cl       -11.95480        5.28790       -3.51550
C        -10.24590        4.49620       -1.52990
C         -9.02110        4.24940       -2.29410
C         -8.69360        4.83460       -3.50020
C         -7.60840        4.44640       -4.30810
N         -6.78320        4.15360       -5.05400
C         -9.28510        5.99930       -4.02710
N         -9.59740        7.01880       -4.45480
H          6.49390       -5.18200       -1.93650
H          9.21370       -2.95960        3.23040
H         10.62570       -7.31420        1.06390
H         13.15290       -6.06510        3.03560
H         12.53860       -7.99620        4.48260
H          9.93240       -7.96990        4.69090
H          9.21370       -5.69310        5.85360
H         11.37890       -4.31530        6.36360
H         13.51900       -5.81510        5.71930
H         12.41860       -6.71180        6.79580
H         12.45730       -3.85260        4.16680
H          0.94560       -2.11940       -5.72520
H          1.99660       -4.15180       -6.62350
H          4.36040       -8.11300       -4.44730
H          2.87660       -7.88500       -3.50120
H          4.22550       -6.70690       -3.38330
H          2.04370       -5.86080       -2.70300
H          0.95530       -3.87430       -1.82120
H          1.14400        0.86320       -3.64730
H         -0.20910        2.55530       -4.85240
H         -4.52880        1.35070       -4.94120
H         -4.64450        1.15190       -6.72160
H         -5.07150        2.70290       -5.96100
H         -3.07870       -0.45910       -5.82670
H         -1.72900       -2.13200       -4.64580
H         -1.44400        3.30720        0.48030
H         -2.50670        5.38850        1.15240
H         -3.03830        7.53960        1.97300
H         -4.68330        7.98160        2.47830
H         -4.44760        6.60530        1.37300
H         -3.42390        3.69490        4.97140
H         -2.34440        1.58520        4.28910
H         -1.70310       -1.53970        2.32030
H         -0.28610       -2.97870        3.74490
H          3.27290       -0.78540        6.41620
H          4.19260       -2.25310        6.02830
H          3.82360       -1.08860        4.73520
H          1.96790        0.45300        4.94180
H          0.56580        1.87050        3.52910
H         -4.07930        1.97150        1.76520
H         -6.60790        1.74310        4.92220
H         -6.05200        0.28160        4.08360
H         -8.17650        0.18140        2.79880
H         -8.49920        0.14700        4.54260
H         -8.76390        1.62690        3.60440
H         -7.56380        3.57590        4.45550
H         -8.29810        5.78390        3.74330
H         -7.69550        6.66960        1.54910
H         -6.36480        7.39890       -0.07390
H         -7.71050        6.56200       -0.89070
H         -4.85600        6.90730       -1.95600
H         -6.10170        5.95800       -2.75860
H         -6.31360        7.70450       -2.57030
H         -6.65390        2.98180       -2.87390
