
  xtb     02052205453D
 energy: -437.774046756447 gnorm: 0.000200790544 xtb: 6.4.1 (unknown)
269292  0     0  0            999 V2000
   -6.0801   -4.5135    4.7941 C   0  0  0  0  0  0  0  0  0  0  0  0
   -6.9143   -3.5233    5.2406 C   0  0  0  0  0  0  0  0  0  0  0  0
   -8.2032   -3.8647    5.8822 C   0  0  0  0  0  0  0  0  0  0  0  0
   -8.5754   -4.9683    6.2251 O   0  0  0  0  0  0  0  0  0  0  0  0
   -8.9534   -2.5929    5.9552 C   0  0  0  0  0  0  0  0  0  0  0  0
  -10.2602   -2.4027    6.3983 C   0  0  0  0  0  0  0  0  0  0  0  0
  -10.6901   -1.0980    6.3363 C   0  0  0  0  0  0  0  0  0  0  0  0
   -9.8863   -0.0551    5.8584 C   0  0  0  0  0  0  0  0  0  0  0  0
   -8.5941   -0.2253    5.4211 C   0  0  0  0  0  0  0  0  0  0  0  0
   -8.1363   -1.5430    5.4857 C   0  0  0  0  0  0  0  0  0  0  0  0
   -6.8199   -2.0879    5.1656 C   0  0  0  0  0  0  0  0  0  0  0  0
   -5.6569   -1.3568    5.0841 C   0  0  0  0  0  0  0  0  0  0  0  0
   -5.5852    0.0467    5.0344 C   0  0  0  0  0  0  0  0  0  0  0  0
   -5.4455    1.1848    4.9543 N   0  0  0  0  0  0  0  0  0  0  0  0
   -4.3805   -1.9466    5.1300 C   0  0  0  0  0  0  0  0  0  0  0  0
   -3.3236   -2.3888    5.2296 N   0  0  0  0  0  0  0  0  0  0  0  0
  -10.9581    0.9823    6.0821 C   0  0  0  0  0  0  0  0  0  0  0  0
  -10.7888    1.8876    7.3206 C   0  0  0  0  0  0  0  0  0  0  0  0
  -12.1741    2.4457    7.5530 C   0  0  0  0  0  0  0  0  0  0  0  0
  -12.9346    1.4594    8.0106 C   0  0  0  0  0  0  0  0  0  0  0  0
  -12.0759    0.2181    8.0953 C   0  0  0  0  0  0  0  0  0  0  0  0
  -10.7269    0.8549    8.4535 C   0  0  0  0  0  0  0  0  0  0  0  0
  -11.8533   -0.1794    6.6205 C   0  0  0  0  0  0  0  0  0  0  0  0
   -5.0798   -4.3829    3.8140 C   0  0  0  0  0  0  0  0  0  0  0  0
   -3.8394   -5.0354    3.7136 C   0  0  0  0  0  0  0  0  0  0  0  0
   -3.4005   -6.0692    4.4900 N   0  0  0  0  0  0  0  0  0  0  0  0
   -4.2650   -7.0325    5.0220 C   0  0  0  0  0  0  0  0  0  0  0  0
   -4.0039   -7.5864    6.2760 C   0  0  0  0  0  0  0  0  0  0  0  0
   -4.8796   -8.4943    6.8274 C   0  0  0  0  0  0  0  0  0  0  0  0
   -6.0358   -8.8669    6.1443 C   0  0  0  0  0  0  0  0  0  0  0  0
   -7.1366   -9.9822    6.9514 S   0  0  0  0  0  0  0  0  0  0  0  0
   -8.7315   -9.5918    6.1718 C   0  0  0  0  0  0  0  0  0  0  0  0
   -6.2689   -8.3630    4.8707 C   0  0  0  0  0  0  0  0  0  0  0  0
   -5.3881   -7.4576    4.3143 C   0  0  0  0  0  0  0  0  0  0  0  0
   -2.0129   -6.2060    4.7288 C   0  0  0  0  0  0  0  0  0  0  0  0
   -1.3754   -7.4118    4.4480 C   0  0  0  0  0  0  0  0  0  0  0  0
   -0.0211   -7.5376    4.6629 C   0  0  0  0  0  0  0  0  0  0  0  0
    0.7160   -6.4676    5.1681 C   0  0  0  0  0  0  0  0  0  0  0  0
    2.4453   -6.7292    5.3855 S   0  0  0  0  0  0  0  0  0  0  0  0
    2.9323   -5.4221    6.5445 C   0  0  0  0  0  0  0  0  0  0  0  0
    0.0763   -5.2699    5.4614 C   0  0  0  0  0  0  0  0  0  0  0  0
   -1.2826   -5.1404    5.2438 C   0  0  0  0  0  0  0  0  0  0  0  0
   -3.0358   -4.4149    2.7243 C   0  0  0  0  0  0  0  0  0  0  0  0
   -1.3759   -4.5560    2.2566 S   0  0  0  0  0  0  0  0  0  0  0  0
   -1.5835   -3.2881    1.0728 C   0  0  0  0  0  0  0  0  0  0  0  0
   -2.8720   -2.8022    1.0266 C   0  0  0  0  0  0  0  0  0  0  0  0
   -3.2515   -1.7268    0.2057 N   0  0  0  0  0  0  0  0  0  0  0  0
   -2.9672   -0.4388    0.6924 C   0  0  0  0  0  0  0  0  0  0  0  0
   -2.3691    0.5209   -0.1237 C   0  0  0  0  0  0  0  0  0  0  0  0
   -2.1616    1.7988    0.3480 C   0  0  0  0  0  0  0  0  0  0  0  0
   -2.5376    2.1402    1.6445 C   0  0  0  0  0  0  0  0  0  0  0  0
   -2.3088    3.8177    2.1516 S   0  0  0  0  0  0  0  0  0  0  0  0
   -3.4693    3.9835    3.5391 C   0  0  0  0  0  0  0  0  0  0  0  0
   -3.0592    1.1686    2.4857 C   0  0  0  0  0  0  0  0  0  0  0  0
   -3.2664   -0.1102    2.0110 C   0  0  0  0  0  0  0  0  0  0  0  0
   -3.7148   -1.9591   -1.0834 C   0  0  0  0  0  0  0  0  0  0  0  0
   -3.5336   -3.1987   -1.7005 C   0  0  0  0  0  0  0  0  0  0  0  0
   -3.9930   -3.4170   -2.9816 C   0  0  0  0  0  0  0  0  0  0  0  0
   -4.6563   -2.4118   -3.6737 C   0  0  0  0  0  0  0  0  0  0  0  0
   -5.1689   -2.7639   -5.3319 S   0  0  0  0  0  0  0  0  0  0  0  0
   -6.5264   -1.5842   -5.5966 C   0  0  0  0  0  0  0  0  0  0  0  0
   -4.8738   -1.1887   -3.0557 C   0  0  0  0  0  0  0  0  0  0  0  0
   -4.4145   -0.9695   -1.7747 C   0  0  0  0  0  0  0  0  0  0  0  0
   -3.6850   -3.4353    1.9860 C   0  0  0  0  0  0  0  0  0  0  0  0
   -5.2934   -3.1724    2.5419 S   0  0  0  0  0  0  0  0  0  0  0  0
   -0.4500   -2.8107    0.3424 C   0  0  0  0  0  0  0  0  0  0  0  0
    0.7614   -2.4996    0.9202 C   0  0  0  0  0  0  0  0  0  0  0  0
    0.9767   -2.4885    2.3027 N   0  0  0  0  0  0  0  0  0  0  0  0
    2.1601   -3.0627    2.7698 C   0  0  0  0  0  0  0  0  0  0  0  0
    2.6184   -4.2441    2.1900 C   0  0  0  0  0  0  0  0  0  0  0  0
    3.7745   -4.8528    2.6345 C   0  0  0  0  0  0  0  0  0  0  0  0
    4.4936   -4.2931    3.6801 C   0  0  0  0  0  0  0  0  0  0  0  0
    5.9678   -4.9944    4.3622 S   0  0  0  0  0  0  0  0  0  0  0  0
    6.1334   -6.5792    3.5000 C   0  0  0  0  0  0  0  0  0  0  0  0
    4.0470   -3.1064    4.2569 C   0  0  0  0  0  0  0  0  0  0  0  0
    2.8960   -2.4954    3.8103 C   0  0  0  0  0  0  0  0  0  0  0  0
    0.4254   -1.3797    3.0003 C   0  0  0  0  0  0  0  0  0  0  0  0
    0.5484   -0.0864    2.5062 C   0  0  0  0  0  0  0  0  0  0  0  0
    0.1090    0.9910    3.2496 C   0  0  0  0  0  0  0  0  0  0  0  0
   -0.4674    0.7821    4.4946 C   0  0  0  0  0  0  0  0  0  0  0  0
   -0.9823    2.1029    5.5462 S   0  0  0  0  0  0  0  0  0  0  0  0
    0.0243    3.5038    4.9700 C   0  0  0  0  0  0  0  0  0  0  0  0
   -0.6559   -0.5166    4.9600 C   0  0  0  0  0  0  0  0  0  0  0  0
   -0.2093   -1.5893    4.2193 C   0  0  0  0  0  0  0  0  0  0  0  0
    1.6802   -2.0383   -0.0394 C   0  0  0  0  0  0  0  0  0  0  0  0
    3.2606   -1.3746    0.0922 S   0  0  0  0  0  0  0  0  0  0  0  0
    3.2146   -0.9202   -1.6085 C   0  0  0  0  0  0  0  0  0  0  0  0
    2.0745   -1.4063   -2.2560 C   0  0  0  0  0  0  0  0  0  0  0  0
    1.8480   -1.3199   -3.6174 N   0  0  0  0  0  0  0  0  0  0  0  0
    2.8530   -1.6691   -4.5216 C   0  0  0  0  0  0  0  0  0  0  0  0
    2.8739   -1.1149   -5.8043 C   0  0  0  0  0  0  0  0  0  0  0  0
    3.8868   -1.4238   -6.6808 C   0  0  0  0  0  0  0  0  0  0  0  0
    4.9107   -2.2926   -6.3067 C   0  0  0  0  0  0  0  0  0  0  0  0
    6.1626   -2.5962   -7.5147 S   0  0  0  0  0  0  0  0  0  0  0  0
    7.3253   -3.7068   -6.6728 C   0  0  0  0  0  0  0  0  0  0  0  0
    4.8907   -2.8545   -5.0382 C   0  0  0  0  0  0  0  0  0  0  0  0
    3.8714   -2.5479   -4.1584 C   0  0  0  0  0  0  0  0  0  0  0  0
    0.5633   -0.9548   -4.0565 C   0  0  0  0  0  0  0  0  0  0  0  0
   -0.1120    0.0884   -3.4246 C   0  0  0  0  0  0  0  0  0  0  0  0
   -1.3402    0.5013   -3.8917 C   0  0  0  0  0  0  0  0  0  0  0  0
   -1.9177   -0.1189   -4.9961 C   0  0  0  0  0  0  0  0  0  0  0  0
   -3.4301    0.5532   -5.5938 S   0  0  0  0  0  0  0  0  0  0  0  0
   -3.5320   -0.1033   -7.2836 C   0  0  0  0  0  0  0  0  0  0  0  0
   -1.2798   -1.2029   -5.5841 C   0  0  0  0  0  0  0  0  0  0  0  0
   -0.0482   -1.6143   -5.1176 C   0  0  0  0  0  0  0  0  0  0  0  0
    1.1796   -1.9894   -1.3318 C   0  0  0  0  0  0  0  0  0  0  0  0
   -0.4660   -2.5308   -1.3919 S   0  0  0  0  0  0  0  0  0  0  0  0
    4.0793    0.0981   -2.0644 C   0  0  0  0  0  0  0  0  0  0  0  0
    5.0112    0.7832   -1.2811 C   0  0  0  0  0  0  0  0  0  0  0  0
    5.4688    0.3404   -0.0383 N   0  0  0  0  0  0  0  0  0  0  0  0
    5.1945    1.1496    1.0748 C   0  0  0  0  0  0  0  0  0  0  0  0
    3.9817    1.8375    1.1405 C   0  0  0  0  0  0  0  0  0  0  0  0
    3.6655    2.5906    2.2471 C   0  0  0  0  0  0  0  0  0  0  0  0
    4.5526    2.6768    3.3175 C   0  0  0  0  0  0  0  0  0  0  0  0
    4.0050    3.6131    4.7118 S   0  0  0  0  0  0  0  0  0  0  0  0
    5.4085    3.5608    5.8598 C   0  0  0  0  0  0  0  0  0  0  0  0
    5.7789    2.0314    3.2392 C   0  0  0  0  0  0  0  0  0  0  0  0
    6.0986    1.2813    2.1231 C   0  0  0  0  0  0  0  0  0  0  0  0
    6.1148   -0.8931    0.0592 C   0  0  0  0  0  0  0  0  0  0  0  0
    6.1145   -1.6230    1.2520 C   0  0  0  0  0  0  0  0  0  0  0  0
    6.7162   -2.8581    1.3138 C   0  0  0  0  0  0  0  0  0  0  0  0
    7.3126   -3.4146    0.1856 C   0  0  0  0  0  0  0  0  0  0  0  0
    7.9914   -5.0385    0.3661 S   0  0  0  0  0  0  0  0  0  0  0  0
    9.0521   -5.2251   -1.0955 C   0  0  0  0  0  0  0  0  0  0  0  0
    7.3127   -2.7015   -1.0038 C   0  0  0  0  0  0  0  0  0  0  0  0
    6.7300   -1.4500   -1.0608 C   0  0  0  0  0  0  0  0  0  0  0  0
    5.3661    2.0101   -1.8666 C   0  0  0  0  0  0  0  0  0  0  0  0
    6.3825    3.3168   -1.3845 S   0  0  0  0  0  0  0  0  0  0  0  0
    5.9041    4.2475   -2.8195 C   0  0  0  0  0  0  0  0  0  0  0  0
    5.1113    3.4749   -3.6987 C   0  0  0  0  0  0  0  0  0  0  0  0
    4.8098    3.7888   -4.9923 N   0  0  0  0  0  0  0  0  0  0  0  0
    3.7003    3.1963   -5.6268 C   0  0  0  0  0  0  0  0  0  0  0  0
    2.4580    3.1478   -4.9954 C   0  0  0  0  0  0  0  0  0  0  0  0
    1.3881    2.5517   -5.6258 C   0  0  0  0  0  0  0  0  0  0  0  0
    1.5382    1.9991   -6.8965 C   0  0  0  0  0  0  0  0  0  0  0  0
    0.1078    1.2429   -7.6018 S   0  0  0  0  0  0  0  0  0  0  0  0
    0.7515    0.3589   -9.0538 C   0  0  0  0  0  0  0  0  0  0  0  0
    2.7664    2.0760   -7.5403 C   0  0  0  0  0  0  0  0  0  0  0  0
    3.8403    2.6694   -6.9059 C   0  0  0  0  0  0  0  0  0  0  0  0
    5.5881    4.7001   -5.7217 C   0  0  0  0  0  0  0  0  0  0  0  0
    6.9768    4.6940   -5.6112 C   0  0  0  0  0  0  0  0  0  0  0  0
    7.7329    5.6806   -6.2046 C   0  0  0  0  0  0  0  0  0  0  0  0
    7.1112    6.6936   -6.9280 C   0  0  0  0  0  0  0  0  0  0  0  0
    7.9861    8.0703   -7.5874 S   0  0  0  0  0  0  0  0  0  0  0  0
    9.4897    8.1073   -6.5668 C   0  0  0  0  0  0  0  0  0  0  0  0
    5.7360    6.6353   -7.1408 C   0  0  0  0  0  0  0  0  0  0  0  0
    4.9804    5.6467   -6.5462 C   0  0  0  0  0  0  0  0  0  0  0  0
    4.7753    2.2425   -3.1051 C   0  0  0  0  0  0  0  0  0  0  0  0
    3.7733    0.9135   -3.5877 S   0  0  0  0  0  0  0  0  0  0  0  0
    6.3424    5.5681   -2.8952 C   0  0  0  0  0  0  0  0  0  0  0  0
    5.7584    6.6234   -3.5787 C   0  0  0  0  0  0  0  0  0  0  0  0
    4.3582    6.6172   -3.9391 C   0  0  0  0  0  0  0  0  0  0  0  0
    3.5812    5.7154   -3.6693 O   0  0  0  0  0  0  0  0  0  0  0  0
    3.8866    7.7657   -4.5707 N   0  0  0  0  0  0  0  0  0  0  0  0
    2.4726    7.7799   -4.9252 C   0  0  0  0  0  0  0  0  0  0  0  0
    1.6464    8.5159   -3.8788 C   0  0  0  0  0  0  0  0  0  0  0  0
    4.6584    8.8477   -4.8698 C   0  0  0  0  0  0  0  0  0  0  0  0
    4.0367   10.1140   -5.7325 S   0  0  0  0  0  0  0  0  0  0  0  0
    5.9570    8.8618   -4.4524 N   0  0  0  0  0  0  0  0  0  0  0  0
    6.7638   10.0506   -4.6998 C   0  0  0  0  0  0  0  0  0  0  0  0
    6.4862   11.1337   -3.6657 C   0  0  0  0  0  0  0  0  0  0  0  0
    6.5794    7.7932   -3.8171 C   0  0  0  0  0  0  0  0  0  0  0  0
    7.7702    7.8442   -3.5510 O   0  0  0  0  0  0  0  0  0  0  0  0
   -6.2635   -5.4954    5.2164 H   0  0  0  0  0  0  0  0  0  0  0  0
  -10.8514   -3.2312    6.7559 H   0  0  0  0  0  0  0  0  0  0  0  0
   -7.9830    0.5801    5.0472 H   0  0  0  0  0  0  0  0  0  0  0  0
  -11.2863    1.5261    5.1982 H   0  0  0  0  0  0  0  0  0  0  0  0
   -9.9759    2.6053    7.2517 H   0  0  0  0  0  0  0  0  0  0  0  0
  -12.4630    3.4529    7.3159 H   0  0  0  0  0  0  0  0  0  0  0  0
  -13.9857    1.4781    8.2319 H   0  0  0  0  0  0  0  0  0  0  0  0
  -12.4369   -0.5837    8.7340 H   0  0  0  0  0  0  0  0  0  0  0  0
  -10.7404    1.3218    9.4370 H   0  0  0  0  0  0  0  0  0  0  0  0
   -9.8816    0.1727    8.3861 H   0  0  0  0  0  0  0  0  0  0  0  0
  -12.7800   -0.4085    6.0972 H   0  0  0  0  0  0  0  0  0  0  0  0
   -3.1249   -7.2785    6.8215 H   0  0  0  0  0  0  0  0  0  0  0  0
   -4.6923   -8.9079    7.8060 H   0  0  0  0  0  0  0  0  0  0  0  0
   -8.7927  -10.0387    5.1836 H   0  0  0  0  0  0  0  0  0  0  0  0
   -8.8521   -8.5134    6.1280 H   0  0  0  0  0  0  0  0  0  0  0  0
   -9.4896  -10.0262    6.8158 H   0  0  0  0  0  0  0  0  0  0  0  0
   -7.1332   -8.6686    4.3038 H   0  0  0  0  0  0  0  0  0  0  0  0
   -5.5725   -7.0720    3.3222 H   0  0  0  0  0  0  0  0  0  0  0  0
   -1.9476   -8.2417    4.0607 H   0  0  0  0  0  0  0  0  0  0  0  0
    0.4840   -8.4649    4.4414 H   0  0  0  0  0  0  0  0  0  0  0  0
    3.9617   -5.6377    6.8139 H   0  0  0  0  0  0  0  0  0  0  0  0
    2.8817   -4.4519    6.0590 H   0  0  0  0  0  0  0  0  0  0  0  0
    2.2970   -5.4655    7.4240 H   0  0  0  0  0  0  0  0  0  0  0  0
    0.6296   -4.4337    5.8583 H   0  0  0  0  0  0  0  0  0  0  0  0
   -1.7906   -4.2144    5.4712 H   0  0  0  0  0  0  0  0  0  0  0  0
   -2.0862    0.2574   -1.1322 H   0  0  0  0  0  0  0  0  0  0  0  0
   -1.7155    2.5498   -0.2867 H   0  0  0  0  0  0  0  0  0  0  0  0
   -4.4332    3.5775    3.2496 H   0  0  0  0  0  0  0  0  0  0  0  0
   -3.5507    5.0493    3.7295 H   0  0  0  0  0  0  0  0  0  0  0  0
   -3.0868    3.4776    4.4208 H   0  0  0  0  0  0  0  0  0  0  0  0
   -3.3252    1.3951    3.5051 H   0  0  0  0  0  0  0  0  0  0  0  0
   -3.6783   -0.8533    2.6749 H   0  0  0  0  0  0  0  0  0  0  0  0
   -3.0303   -3.9967   -1.1754 H   0  0  0  0  0  0  0  0  0  0  0  0
   -3.8370   -4.3733   -3.4572 H   0  0  0  0  0  0  0  0  0  0  0  0
   -6.1349   -0.5761   -5.6971 H   0  0  0  0  0  0  0  0  0  0  0  0
   -7.2251   -1.6524   -4.7684 H   0  0  0  0  0  0  0  0  0  0  0  0
   -7.0104   -1.8879   -6.5196 H   0  0  0  0  0  0  0  0  0  0  0  0
   -5.3958   -0.3941   -3.5625 H   0  0  0  0  0  0  0  0  0  0  0  0
   -4.6039   -0.0186   -1.3012 H   0  0  0  0  0  0  0  0  0  0  0  0
    2.0536   -4.6927    1.3857 H   0  0  0  0  0  0  0  0  0  0  0  0
    4.0979   -5.7655    2.1621 H   0  0  0  0  0  0  0  0  0  0  0  0
    5.2318   -7.1667    3.6483 H   0  0  0  0  0  0  0  0  0  0  0  0
    6.3387   -6.4081    2.4467 H   0  0  0  0  0  0  0  0  0  0  0  0
    6.9814   -7.0750    3.9620 H   0  0  0  0  0  0  0  0  0  0  0  0
    4.6211   -2.6650    5.0586 H   0  0  0  0  0  0  0  0  0  0  0  0
    2.5667   -1.5712    4.2612 H   0  0  0  0  0  0  0  0  0  0  0  0
    1.0172    0.0866    1.5489 H   0  0  0  0  0  0  0  0  0  0  0  0
    0.2306    1.9863    2.8547 H   0  0  0  0  0  0  0  0  0  0  0  0
    1.0649    3.2001    4.9050 H   0  0  0  0  0  0  0  0  0  0  0  0
   -0.3416    3.8695    4.0147 H   0  0  0  0  0  0  0  0  0  0  0  0
   -0.0895    4.2754    5.7248 H   0  0  0  0  0  0  0  0  0  0  0  0
   -1.1431   -0.6741    5.9095 H   0  0  0  0  0  0  0  0  0  0  0  0
   -0.3280   -2.5959    4.5842 H   0  0  0  0  0  0  0  0  0  0  0  0
    2.1001   -0.4205   -6.0879 H   0  0  0  0  0  0  0  0  0  0  0  0
    3.9127   -0.9824   -7.6655 H   0  0  0  0  0  0  0  0  0  0  0  0
    6.8308   -4.6393   -6.4164 H   0  0  0  0  0  0  0  0  0  0  0  0
    7.7323   -3.2179   -5.7923 H   0  0  0  0  0  0  0  0  0  0  0  0
    8.1188   -3.8961   -7.3890 H   0  0  0  0  0  0  0  0  0  0  0  0
    5.6601   -3.5383   -4.7177 H   0  0  0  0  0  0  0  0  0  0  0  0
    3.8719   -2.9980   -3.1767 H   0  0  0  0  0  0  0  0  0  0  0  0
    0.3503    0.5931   -2.5884 H   0  0  0  0  0  0  0  0  0  0  0  0
   -1.8539    1.3298   -3.4272 H   0  0  0  0  0  0  0  0  0  0  0  0
   -2.5877    0.0795   -7.7868 H   0  0  0  0  0  0  0  0  0  0  0  0
   -3.7793   -1.1612   -7.2610 H   0  0  0  0  0  0  0  0  0  0  0  0
   -4.3269    0.4521   -7.7719 H   0  0  0  0  0  0  0  0  0  0  0  0
   -1.7332   -1.7339   -6.4046 H   0  0  0  0  0  0  0  0  0  0  0  0
    0.4507   -2.4508   -5.5842 H   0  0  0  0  0  0  0  0  0  0  0  0
    3.2798    1.7642    0.3231 H   0  0  0  0  0  0  0  0  0  0  0  0
    2.7224    3.1124    2.3010 H   0  0  0  0  0  0  0  0  0  0  0  0
    5.1014    4.1429    6.7232 H   0  0  0  0  0  0  0  0  0  0  0  0
    6.2802    4.0162    5.3990 H   0  0  0  0  0  0  0  0  0  0  0  0
    5.6070    2.5355    6.1583 H   0  0  0  0  0  0  0  0  0  0  0  0
    6.4994    2.1028    4.0379 H   0  0  0  0  0  0  0  0  0  0  0  0
    7.0582    0.7899    2.0680 H   0  0  0  0  0  0  0  0  0  0  0  0
    5.6180   -1.2306    2.1255 H   0  0  0  0  0  0  0  0  0  0  0  0
    6.7191   -3.4098    2.2398 H   0  0  0  0  0  0  0  0  0  0  0  0
    9.6260   -6.1316   -0.9308 H   0  0  0  0  0  0  0  0  0  0  0  0
    9.7192   -4.3716   -1.1711 H   0  0  0  0  0  0  0  0  0  0  0  0
    8.4464   -5.3333   -1.9910 H   0  0  0  0  0  0  0  0  0  0  0  0
    7.7642   -3.1053   -1.8965 H   0  0  0  0  0  0  0  0  0  0  0  0
    6.7431   -0.9035   -1.9927 H   0  0  0  0  0  0  0  0  0  0  0  0
    2.3453    3.6074   -4.0263 H   0  0  0  0  0  0  0  0  0  0  0  0
    0.4234    2.5054   -5.1445 H   0  0  0  0  0  0  0  0  0  0  0  0
    1.0878    1.0648   -9.8075 H   0  0  0  0  0  0  0  0  0  0  0  0
    1.5511   -0.3103   -8.7502 H   0  0  0  0  0  0  0  0  0  0  0  0
   -0.0827   -0.2176   -9.4418 H   0  0  0  0  0  0  0  0  0  0  0  0
    2.9032    1.6767   -8.5321 H   0  0  0  0  0  0  0  0  0  0  0  0
    4.7968    2.7222   -7.4048 H   0  0  0  0  0  0  0  0  0  0  0  0
    7.4656    3.9217   -5.0365 H   0  0  0  0  0  0  0  0  0  0  0  0
    8.8039    5.6605   -6.0897 H   0  0  0  0  0  0  0  0  0  0  0  0
    9.9170    9.0953   -6.7075 H   0  0  0  0  0  0  0  0  0  0  0  0
    9.2205    7.9577   -5.5243 H   0  0  0  0  0  0  0  0  0  0  0  0
   10.1948    7.3532   -6.9048 H   0  0  0  0  0  0  0  0  0  0  0  0
    5.2638    7.3943   -7.7457 H   0  0  0  0  0  0  0  0  0  0  0  0
    3.9101    5.6221   -6.6862 H   0  0  0  0  0  0  0  0  0  0  0  0
    7.2421    5.8141   -2.3406 H   0  0  0  0  0  0  0  0  0  0  0  0
    2.1550    6.7372   -4.9852 H   0  0  0  0  0  0  0  0  0  0  0  0
    2.3683    8.2582   -5.9007 H   0  0  0  0  0  0  0  0  0  0  0  0
    1.9559    9.5562   -3.8145 H   0  0  0  0  0  0  0  0  0  0  0  0
    0.5966    8.4816   -4.1554 H   0  0  0  0  0  0  0  0  0  0  0  0
    1.7693    8.0456   -2.9060 H   0  0  0  0  0  0  0  0  0  0  0  0
    7.8060    9.7370   -4.6369 H   0  0  0  0  0  0  0  0  0  0  0  0
    6.5464   10.4124   -5.7065 H   0  0  0  0  0  0  0  0  0  0  0  0
    5.4513   11.4616   -3.7238 H   0  0  0  0  0  0  0  0  0  0  0  0
    7.1312   11.9869   -3.8543 H   0  0  0  0  0  0  0  0  0  0  0  0
    6.6845   10.7574   -2.6645 H   0  0  0  0  0  0  0  0  0  0  0  0
  1  2  2  0  0  0  0
  2  3  1  0  0  0  0
  3  4  2  0  0  0  0
  3  5  1  0  0  0  0
  5  6  2  0  0  0  0
  6  7  1  0  0  0  0
  7  8  2  0  0  0  0
  8  9  1  0  0  0  0
  9 10  2  0  0  0  0
 10 11  1  0  0  0  0
 11 12  2  0  0  0  0
 12 13  1  0  0  0  0
 13 14  3  0  0  0  0
 12 15  1  0  0  0  0
 15 16  3  0  0  0  0
  8 17  1  0  0  0  0
 17 18  1  0  0  0  0
 18 19  1  0  0  0  0
 19 20  2  0  0  0  0
 20 21  1  0  0  0  0
 21 22  1  0  0  0  0
 21 23  1  0  0  0  0
  1 24  1  0  0  0  0
 24 25  2  0  0  0  0
 25 26  1  0  0  0  0
 26 27  1  0  0  0  0
 27 28  2  0  0  0  0
 28 29  1  0  0  0  0
 29 30  2  0  0  0  0
 30 31  1  0  0  0  0
 31 32  1  0  0  0  0
 30 33  1  0  0  0  0
 33 34  2  0  0  0  0
 26 35  1  0  0  0  0
 35 36  2  0  0  0  0
 36 37  1  0  0  0  0
 37 38  2  0  0  0  0
 38 39  1  0  0  0  0
 39 40  1  0  0  0  0
 38 41  1  0  0  0  0
 41 42  2  0  0  0  0
 25 43  1  0  0  0  0
 43 44  1  0  0  0  0
 44 45  1  0  0  0  0
 45 46  2  0  0  0  0
 46 47  1  0  0  0  0
 47 48  1  0  0  0  0
 48 49  2  0  0  0  0
 49 50  1  0  0  0  0
 50 51  2  0  0  0  0
 51 52  1  0  0  0  0
 52 53  1  0  0  0  0
 51 54  1  0  0  0  0
 54 55  2  0  0  0  0
 47 56  1  0  0  0  0
 56 57  2  0  0  0  0
 57 58  1  0  0  0  0
 58 59  2  0  0  0  0
 59 60  1  0  0  0  0
 60 61  1  0  0  0  0
 59 62  1  0  0  0  0
 62 63  2  0  0  0  0
 46 64  1  0  0  0  0
 64 65  1  0  0  0  0
 45 66  1  0  0  0  0
 66 67  2  0  0  0  0
 67 68  1  0  0  0  0
 68 69  1  0  0  0  0
 69 70  2  0  0  0  0
 70 71  1  0  0  0  0
 71 72  2  0  0  0  0
 72 73  1  0  0  0  0
 73 74  1  0  0  0  0
 72 75  1  0  0  0  0
 75 76  2  0  0  0  0
 68 77  1  0  0  0  0
 77 78  2  0  0  0  0
 78 79  1  0  0  0  0
 79 80  2  0  0  0  0
 80 81  1  0  0  0  0
 81 82  1  0  0  0  0
 80 83  1  0  0  0  0
 83 84  2  0  0  0  0
 67 85  1  0  0  0  0
 85 86  1  0  0  0  0
 86 87  1  0  0  0  0
 87 88  2  0  0  0  0
 88 89  1  0  0  0  0
 89 90  1  0  0  0  0
 90 91  2  0  0  0  0
 91 92  1  0  0  0  0
 92 93  2  0  0  0  0
 93 94  1  0  0  0  0
 94 95  1  0  0  0  0
 93 96  1  0  0  0  0
 96 97  2  0  0  0  0
 89 98  1  0  0  0  0
 98 99  2  0  0  0  0
 99100  1  0  0  0  0
100101  2  0  0  0  0
101102  1  0  0  0  0
102103  1  0  0  0  0
101104  1  0  0  0  0
104105  2  0  0  0  0
 88106  1  0  0  0  0
106107  1  0  0  0  0
 87108  1  0  0  0  0
108109  2  0  0  0  0
109110  1  0  0  0  0
110111  1  0  0  0  0
111112  2  0  0  0  0
112113  1  0  0  0  0
113114  2  0  0  0  0
114115  1  0  0  0  0
115116  1  0  0  0  0
114117  1  0  0  0  0
117118  2  0  0  0  0
110119  1  0  0  0  0
119120  2  0  0  0  0
120121  1  0  0  0  0
121122  2  0  0  0  0
122123  1  0  0  0  0
123124  1  0  0  0  0
122125  1  0  0  0  0
125126  2  0  0  0  0
109127  1  0  0  0  0
127128  1  0  0  0  0
128129  1  0  0  0  0
129130  2  0  0  0  0
130131  1  0  0  0  0
131132  1  0  0  0  0
132133  2  0  0  0  0
133134  1  0  0  0  0
134135  2  0  0  0  0
135136  1  0  0  0  0
136137  1  0  0  0  0
135138  1  0  0  0  0
138139  2  0  0  0  0
131140  1  0  0  0  0
140141  2  0  0  0  0
141142  1  0  0  0  0
142143  2  0  0  0  0
143144  1  0  0  0  0
144145  1  0  0  0  0
143146  1  0  0  0  0
146147  2  0  0  0  0
130148  1  0  0  0  0
148149  1  0  0  0  0
129150  1  0  0  0  0
150151  2  0  0  0  0
151152  1  0  0  0  0
152153  2  0  0  0  0
152154  1  0  0  0  0
154155  1  0  0  0  0
155156  1  0  0  0  0
154157  1  0  0  0  0
157158  2  0  0  0  0
157159  1  0  0  0  0
159160  1  0  0  0  0
160161  1  0  0  0  0
159162  1  0  0  0  0
162163  2  0  0  0  0
 11  2  1  0  0  0  0
 23 17  1  0  0  0  0
 65 24  1  0  0  0  0
107 66  1  0  0  0  0
149108  1  0  0  0  0
162151  1  0  0  0  0
 10  5  1  0  0  0  0
 22 18  1  0  0  0  0
 34 27  1  0  0  0  0
 42 35  1  0  0  0  0
 64 43  2  0  0  0  0
 76 69  1  0  0  0  0
 84 77  1  0  0  0  0
106 85  2  0  0  0  0
118111  1  0  0  0  0
126119  1  0  0  0  0
148127  2  0  0  0  0
 23  7  1  0  0  0  0
 55 48  1  0  0  0  0
 63 56  1  0  0  0  0
 97 90  1  0  0  0  0
105 98  1  0  0  0  0
139132  1  0  0  0  0
147140  1  0  0  0  0
  1164  1  0  0  0  0
  6165  1  0  0  0  0
  9166  1  0  0  0  0
 17167  1  0  0  0  0
 18168  1  0  0  0  0
 19169  1  0  0  0  0
 20170  1  0  0  0  0
 21171  1  0  0  0  0
 22172  1  0  0  0  0
 22173  1  0  0  0  0
 23174  1  0  0  0  0
 28175  1  0  0  0  0
 29176  1  0  0  0  0
 32177  1  0  0  0  0
 32178  1  0  0  0  0
 32179  1  0  0  0  0
 33180  1  0  0  0  0
 34181  1  0  0  0  0
 36182  1  0  0  0  0
 37183  1  0  0  0  0
 40184  1  0  0  0  0
 40185  1  0  0  0  0
 40186  1  0  0  0  0
 41187  1  0  0  0  0
 42188  1  0  0  0  0
 49189  1  0  0  0  0
 50190  1  0  0  0  0
 53191  1  0  0  0  0
 53192  1  0  0  0  0
 53193  1  0  0  0  0
 54194  1  0  0  0  0
 55195  1  0  0  0  0
 57196  1  0  0  0  0
 58197  1  0  0  0  0
 61198  1  0  0  0  0
 61199  1  0  0  0  0
 61200  1  0  0  0  0
 62201  1  0  0  0  0
 63202  1  0  0  0  0
 70203  1  0  0  0  0
 71204  1  0  0  0  0
 74205  1  0  0  0  0
 74206  1  0  0  0  0
 74207  1  0  0  0  0
 75208  1  0  0  0  0
 76209  1  0  0  0  0
 78210  1  0  0  0  0
 79211  1  0  0  0  0
 82212  1  0  0  0  0
 82213  1  0  0  0  0
 82214  1  0  0  0  0
 83215  1  0  0  0  0
 84216  1  0  0  0  0
 91217  1  0  0  0  0
 92218  1  0  0  0  0
 95219  1  0  0  0  0
 95220  1  0  0  0  0
 95221  1  0  0  0  0
 96222  1  0  0  0  0
 97223  1  0  0  0  0
 99224  1  0  0  0  0
100225  1  0  0  0  0
103226  1  0  0  0  0
103227  1  0  0  0  0
103228  1  0  0  0  0
104229  1  0  0  0  0
105230  1  0  0  0  0
112231  1  0  0  0  0
113232  1  0  0  0  0
116233  1  0  0  0  0
116234  1  0  0  0  0
116235  1  0  0  0  0
117236  1  0  0  0  0
118237  1  0  0  0  0
120238  1  0  0  0  0
121239  1  0  0  0  0
124240  1  0  0  0  0
124241  1  0  0  0  0
124242  1  0  0  0  0
125243  1  0  0  0  0
126244  1  0  0  0  0
133245  1  0  0  0  0
134246  1  0  0  0  0
137247  1  0  0  0  0
137248  1  0  0  0  0
137249  1  0  0  0  0
138250  1  0  0  0  0
139251  1  0  0  0  0
141252  1  0  0  0  0
142253  1  0  0  0  0
145254  1  0  0  0  0
145255  1  0  0  0  0
145256  1  0  0  0  0
146257  1  0  0  0  0
147258  1  0  0  0  0
150259  1  0  0  0  0
155260  1  0  0  0  0
155261  1  0  0  0  0
156262  1  0  0  0  0
156263  1  0  0  0  0
156264  1  0  0  0  0
160265  1  0  0  0  0
160266  1  0  0  0  0
161267  1  0  0  0  0
161268  1  0  0  0  0
161269  1  0  0  0  0
M  END
