183

C          1.17950        2.98970        6.59210
C         -0.05640        3.38050        6.17870
C         -0.43090        3.43630        4.74660
O          0.30240        3.46990        3.77760
C         -1.89430        3.25580        4.71830
C         -2.68280        3.05080        3.58830
C         -3.99610        2.76050        3.86740
C         -4.49440        2.68500        5.17480
C         -3.73350        2.90870        6.29850
C         -2.39120        3.19480        6.03630
C         -1.27590        3.38110        6.95950
C         -1.35150        3.56190        8.31380
C         -2.55580        3.58390        9.04490
N         -3.50850        3.60700        9.68550
C         -0.22230        3.79260        9.12870
N          0.65210        3.99780        9.84330
C         -5.86840        2.27110        4.71050
C         -6.23910        0.77100        4.83390
C         -4.94460       -0.00100        4.77170
C         -4.47920        0.08450        3.53230
C         -5.45330        0.91500        2.73370
C         -6.77210        0.51700        3.41490
C         -5.31650        2.36820        3.25330
C          2.28860        2.91820        5.69290
C          2.95950        1.70200        5.48130
C          3.70410        1.46390        4.26430
N          4.11420        0.20200        4.18710
S          3.63670       -0.60550        5.49520
N          2.85400        0.59760        6.22250
C          3.86410        2.43490        3.23670
C          3.55110        3.74260        3.67880
N          3.89520        4.89260        3.10760
S          3.20030        6.10630        3.90720
N          2.43390        5.24790        5.02570
C          2.69790        3.95840        4.83870
C          4.08870        1.99160        1.90690
C          4.16030        2.62890        0.65510
N          4.21860        3.97980        0.33210
C          3.23190        4.87690        0.70900
C          1.96030        4.43010        1.09030
C          1.00510        5.32850        1.49890
C          1.28690        6.69470        1.53790
S          0.00500        7.74810        2.12460
C          0.85170        9.32940        2.41080
C          2.52610        7.15060        1.09010
C          3.48290        6.25290        0.67450
C          5.11410        4.29470       -0.70480
C          4.73550        5.08630       -1.79040
C          5.62930        5.34130       -2.80470
C          6.91720        4.80680       -2.76870
S          7.96810        5.20430       -4.12580
C          9.44850        4.19230       -3.84450
C          7.29620        4.01460       -1.69250
C          6.40070        3.76320       -0.67270
C          4.08620        1.69140       -0.40360
S          3.79850        1.85690       -2.10980
C          3.21230        0.21940       -2.19030
C          3.36490       -0.45970       -0.99690
N          2.80490       -1.70000       -0.67540
C          3.16410       -2.86460       -1.34900
C          4.48030       -3.06770       -1.76740
C          4.81940       -4.21310       -2.45500
C          3.85750       -5.17900       -2.74070
S          4.38240       -6.59120       -3.66570
C          2.82520       -7.41380       -4.11010
C          2.55400       -4.99550       -2.29980
C          2.21560       -3.85090       -1.60880
C          1.84970       -1.69280        0.34610
C          1.72260       -2.77110        1.22050
C          0.82130       -2.71950        2.26490
C          0.03980       -1.58950        2.45660
S         -1.12490       -1.53590        3.80650
C         -0.52480       -0.07260        4.70480
C          0.13880       -0.52300        1.57490
C          1.03810       -0.57230        0.53330
C          3.89340        0.38700        0.00380
S          4.03130        0.22780        1.71380
C          2.29500       -0.28670       -3.20490
C          0.98830        0.20550       -3.24270
S          0.54870        1.70070       -2.37700
C          0.36180        2.84650       -3.79400
C          1.67220        3.13390       -4.49610
C         -0.03070       -0.52910       -3.84910
S         -1.64630        0.16800       -3.77720
C         -2.48220       -0.37060       -5.32620
C         -3.88870       -0.85240       -5.03300
C          0.24510       -1.82080       -4.32610
C          1.58030       -2.20800       -4.47890
C          2.61970       -1.40890       -3.97930
C          4.04210       -1.68160       -4.26730
O          4.94330       -0.96200       -3.87780
C          4.25920       -2.82960       -5.15140
C          3.21090       -3.72640       -5.51860
C          1.84020       -3.53880       -5.05850
O          0.96460       -4.38460       -5.15500
C          3.65860       -4.73650       -6.32500
S          5.33050       -4.60290       -6.65980
C          5.45740       -3.19420       -5.69450
C         -0.82740       -2.78880       -4.55340
C         -1.60490       -3.18570       -3.52190
C         -1.33060       -2.81470       -2.10430
O         -0.39250       -2.17170       -1.68290
C         -2.39160       -3.44240       -1.30990
C         -2.56570       -3.33150        0.06910
C         -3.65960       -4.01110        0.54580
C         -4.50980       -4.75830       -0.28440
C         -4.33970       -4.88750       -1.64220
C         -3.23730       -4.19240       -2.15580
C         -2.77560       -4.05480       -3.53250
C         -3.37180       -4.58470       -4.64420
C         -2.96990       -4.31350       -5.96940
N         -2.72710       -4.09070       -7.06940
C         -4.50010       -5.43190       -4.62310
N         -5.41230       -6.12620       -4.67930
C         -5.40770       -5.15360        0.86170
C         -6.74560       -4.39170        0.97640
C         -7.17440       -4.62500        2.40770
C         -6.36760       -3.91940        3.19020
C         -5.38010       -3.19740        2.30330
C         -6.26850       -2.93710        1.07950
C         -4.45860       -4.32220        1.78410
H          1.31320        2.55170        7.57370
H         -2.25990        3.10100        2.59660
H         -4.12400        2.83870        7.30060
H         -6.69050        2.92590        4.99190
H         -6.89850        0.53730        5.66550
H         -4.48310       -0.47020        5.62090
H         -3.54870       -0.29040        3.14760
H         -5.39700        0.81290        1.65280
H         -7.61070        1.15780        3.14510
H         -7.03630       -0.52640        3.24730
H         -5.77120        3.09630        2.58420
H          1.73410        3.37530        1.08250
H          0.03650        4.98040        1.81800
H          1.72130        9.16600        3.04060
H          0.13250        9.95740        2.92720
H          1.12630        9.78950        1.46610
H          2.75610        8.20360        1.07420
H          4.45360        6.60970        0.36810
H          3.73260        5.48230       -1.84030
H          5.33830        5.94730       -3.64900
H          9.17030        3.14450       -3.78280
H          9.96250        4.52100       -2.94590
H         10.08290        4.35620       -4.71010
H          8.28530        3.59110       -1.63230
H          6.69940        3.15070        0.16510
H          5.22930       -2.31920       -1.55700
H          5.83730       -4.37310       -2.77710
H          2.38870       -7.88360       -3.23310
H          2.14150       -6.69530       -4.55300
H          3.09330       -8.17460       -4.83670
H          1.79050       -5.73200       -2.49120
H          1.20130       -3.70040       -1.27830
H          2.34630       -3.64260        1.08980
H          0.72760       -3.55170        2.94610
H         -1.31760        0.22210        5.38570
H         -0.31720        0.72980        4.00460
H          0.37120       -0.33000        5.26380
H         -0.49250        0.34510        1.69520
H          1.09340        0.25760       -0.15430
H         -0.37440        2.41490       -4.47060
H         -0.05230        3.74690       -3.34270
H          2.11690        2.21780       -4.88110
H          2.38120        3.59810       -3.81530
H          1.49610        3.80900       -5.33140
H         -2.50340        0.50660       -5.97380
H         -1.88120       -1.14560       -5.79240
H         -4.48790       -0.04610       -4.61650
H         -4.35720       -1.19950       -5.95150
H         -3.87540       -1.67090       -4.31670
H          3.08090       -5.53190       -6.75320
H          6.39940       -2.69790       -5.57020
H         -0.97690       -3.17460       -5.55290
H         -1.88420       -2.75040        0.67110
H         -4.99710       -5.47270       -2.26380
H         -5.50940       -6.22200        1.04030
H         -7.47160       -4.62910        0.20340
H         -7.95900       -5.29980        2.69520
H         -6.34260       -3.88510        4.26340
H         -4.86030       -2.35060        2.74160
H         -7.08610       -2.25270        1.30010
H         -5.72620       -2.58280        0.20480
H         -3.92000       -4.82960        2.58120
