217

C         -6.87780       -0.60540        3.57900
C         -7.77880       -1.04720        2.63340
C         -7.54310       -0.99440        1.18180
O         -6.55740       -0.56040        0.61100
C         -8.80540       -1.43540        0.55390
C         -9.06470       -1.58020       -0.80560
C        -10.33050       -2.03580       -1.08940
C        -11.28050       -2.30390       -0.09650
C        -11.04150       -2.15480        1.24900
C         -9.75320       -1.71280        1.55820
C         -9.12630       -1.48950        2.85830
C         -9.66190       -1.82380        4.07910
C        -10.94670       -2.36180        4.27020
N        -11.96940       -2.83260        4.50340
C         -8.94830       -1.76980        5.29260
N         -8.41490       -1.80400        6.30980
C        -12.33080       -2.71670       -1.09820
C        -12.58450       -4.23120       -1.24740
C        -13.26570       -4.35470       -2.59090
C        -12.35680       -4.11530       -3.52750
C        -11.04640       -3.82360       -2.83220
C        -11.18530       -4.74210       -1.61140
C        -11.26600       -2.43020       -2.20530
C         -5.48990       -0.56970        3.42600
C         -4.61850       -1.29750        2.59070
N         -4.90470       -2.33570        1.74910
C         -3.97080       -2.57910        0.70670
C         -3.28780       -3.78670        0.65000
C         -2.27650       -3.97130       -0.27430
C         -1.94700       -2.94870       -1.15470
S         -0.60340       -3.01830       -2.29200
C          0.22850       -4.58200       -1.88830
C         -2.69420       -1.77030       -1.15450
C         -3.69710       -1.58390       -0.23020
C         -6.00640       -3.18290        1.84210
C         -6.56020       -3.70660        0.66880
C         -7.68120       -4.49940        0.72020
C         -8.28600       -4.79810        1.94220
S         -9.77220       -5.73750        1.86840
C        -10.23360       -5.99890        3.60240
C         -7.70160       -4.33690        3.11530
C         -6.57550       -3.53750        3.06410
C         -3.28820       -0.84070        2.75920
S         -1.78050       -1.32690        2.06870
C         -0.95150       -0.05860        2.93990
C         -1.77720        0.61960        3.82480
N         -1.35470        1.55640        4.74460
C         -0.07220        1.48550        5.30250
C          0.62130        2.65600        5.60970
C          1.84860        2.59750        6.23410
C          2.41290        1.36820        6.55420
S          3.94860        1.35200        7.43320
C          3.69690       -0.05780        8.55890
C          1.75710        0.19740        6.19910
C          0.52120        0.25680        5.58830
C         -2.22800        2.58170        5.13460
C         -2.28270        2.99490        6.46680
C         -3.15570        3.98620        6.85100
C         -4.00160        4.58720        5.91960
S         -5.07890        5.84420        6.53110
C         -6.19880        6.16900        5.13940
C         -3.94590        4.18630        4.59270
C         -3.06570        3.19330        4.20730
C         -3.11540        0.16190        3.70320
S         -4.60840        0.56090        4.47320
C          0.39730        0.20440        2.50650
C          0.87870        1.48830        2.29100
O          0.03800        2.54140        2.58770
C         -0.47800        3.23440        1.45380
C         -1.35330        2.35890        0.56330
C          2.12650        1.73080        1.63930
O          2.59190        2.98880        1.40660
C          2.59970        3.93490        2.47510
C          3.80100        3.73630        3.38690
C          2.80750        0.69140        1.01730
C          2.32960       -0.61950        1.20390
C          1.16980       -0.87040        2.00480
N          0.87830       -2.16560        2.07780
S          1.96300       -2.98490        1.21720
N          2.84670       -1.74210        0.70420
C          3.81040        0.93350       -0.01490
C          5.11060        1.37510        0.03090
N          5.84680        1.64140        1.17710
C          6.74120        2.72390        1.11140
C          8.03750        2.62920        1.61620
C          8.90530        3.69090        1.49290
C          8.50580        4.86380        0.85460
S          9.70990        6.15010        0.73950
C          8.97510        7.31830       -0.44050
C          7.21330        4.96590        0.35960
C          6.33980        3.90450        0.49090
C          5.77030        0.81230        2.29610
C          6.09630        1.29900        3.56210
C          6.00830        0.49090        4.67660
C          5.59330       -0.82640        4.54900
S          5.43580       -1.91550        5.93720
C          6.75140       -1.31520        7.04100
C          5.27720       -1.32490        3.29110
C          5.37440       -0.52100        2.17610
C          5.64240        1.50330       -1.28020
S          7.18160        1.95210       -1.90540
C          6.60990        1.73000       -3.56680
C          5.28780        1.23430       -3.59950
N          4.59300        0.79980       -4.69990
C          3.18270        0.68290       -4.60580
C          2.56160       -0.53460       -4.88220
C          1.19600       -0.65640       -4.76540
C          0.41980        0.43630       -4.37920
S         -1.31190        0.15910       -4.24900
C         -1.95130        1.71210       -3.55350
C          1.03390        1.65570       -4.12740
C          2.40580        1.77490       -4.23600
C          5.21010        0.21320       -5.81320
C          6.41480       -0.47720       -5.70380
C          7.04310       -0.98340       -6.82220
C          6.46830       -0.82330       -8.07760
S          7.23740       -1.34180       -9.57150
C          8.96040       -1.62570       -9.07460
C          5.21640       -0.21710       -8.18040
C          4.59720        0.30120       -7.06630
C          4.76230        1.14720       -2.29050
S          3.25340        0.60840       -1.64080
C          7.52750        2.03810       -4.57630
C          7.31210        2.30840       -5.91020
C          8.38190        2.04090       -6.90210
O          9.51010        1.65870       -6.67780
C          7.73480        2.24510       -8.20920
C          6.37840        2.66150       -8.00990
C          5.70360        2.87430       -9.16790
S          6.70330        2.55340      -10.54100
C          8.06590        2.14310       -9.52460
Cl         9.56020        1.71660      -10.20380
C          6.13290        2.77160       -6.58400
C          5.04960        3.41420       -6.02130
C          3.92090        3.76100       -6.78190
N          2.96700        4.00660       -7.37370
C          5.01260        3.85450       -4.69130
N          4.96320        4.27830       -3.62300
H         -7.25560       -0.22660        4.52130
H         -8.30940       -1.35420       -1.54230
H        -11.78390       -2.35480        2.00380
H        -13.24660       -2.12830       -1.09460
H        -13.08000       -4.69570       -0.39970
H        -14.31590       -4.54260       -2.71710
H        -12.49630       -4.06230       -4.59160
H        -10.14400       -3.91660       -3.43110
H        -11.19000       -5.79580       -1.88500
H        -10.44390       -4.57300       -0.83370
H        -11.47690       -1.65980       -2.94530
H         -3.52780       -4.57080        1.35290
H         -1.74360       -4.90790       -0.28120
H         -0.41020       -5.42310       -2.14180
H          0.50260       -4.59310       -0.83710
H          1.12340       -4.60210       -2.50230
H         -2.46020       -1.00600       -1.87900
H         -4.27630       -0.67400       -0.20580
H         -6.11540       -3.45830       -0.28250
H         -8.11630       -4.88480       -0.18890
H        -11.11300       -6.63480        3.57340
H         -9.42960       -6.50570        4.12760
H        -10.48600       -5.05320        4.07270
H         -8.12010       -4.57830        4.07950
H         -6.13630       -3.18890        3.98670
H          0.17940        3.61170        5.37230
H          2.37500        3.50390        6.49130
H          3.86320       -0.99530        8.03610
H          4.42360        0.05650        9.35720
H          2.69040       -0.00910        8.96180
H          2.19940       -0.76410        6.40840
H          0.00670       -0.66110        5.34680
H         -1.64240        2.52510        7.19810
H         -3.20410        4.30100        7.88200
H         -6.95310        6.84860        5.52370
H         -6.66410        5.24130        4.81980
H         -5.65940        6.64340        4.32440
H         -4.57700        4.63940        3.84530
H         -3.02410        2.89510        3.17110
H         -1.06270        4.04880        1.88860
H          0.33710        3.66100        0.85720
H         -2.16660        1.91430        1.13180
H         -0.76670        1.55510        0.12040
H         -1.77490        2.96950       -0.23110
H          2.65750        4.90580        1.97520
H          1.67950        3.88310        3.06080
H          3.76510        2.75290        3.85220
H          3.79190        4.49290        4.16620
H          4.72200        3.82710        2.81740
H          8.36310        1.71460        2.08830
H          9.91230        3.61880        1.87410
H          8.69200        6.79160       -1.34700
H          8.12270        7.82100        0.00740
H          9.75370        8.04240       -0.65950
H          6.86980        5.86260       -0.12950
H          5.33520        3.98780        0.10250
H          6.41890        2.32150        3.68180
H          6.24760        0.90630        5.64180
H          6.46150       -0.37570        7.50170
H          7.66710       -1.20170        6.46920
H          6.87730       -2.07830        7.80270
H          4.96920       -2.35480        3.19040
H          5.15430       -0.93740        1.20580
H          3.16010       -1.38480       -5.17350
H          0.71130       -1.60120       -4.95530
H         -3.00920        1.54120       -3.37810
H         -1.82400        2.52220       -4.26550
H         -1.44970        1.92600       -2.61440
H          0.46230        2.52470       -3.84710
H          2.87370        2.72310       -4.02270
H          6.86810       -0.62090       -4.73510
H          7.98130       -1.49880       -6.70070
H          9.04060       -2.54480       -8.50110
H          9.32250       -0.77270       -8.50810
H          9.51950       -1.72220      -10.00010
H          4.75150       -0.13200       -9.15020
H          3.64570        0.80280       -7.16240
H          8.57190        2.00800       -4.28030
H          4.68750        3.18130       -9.31620
