197

C         -0.93210       -6.18920        0.34320
C         -2.12690       -5.56230        0.09850
C         -2.30400       -4.09770        0.06930
O         -1.50330       -3.22920        0.37100
C         -3.63360       -3.86790       -0.53290
C         -4.23150       -2.63670       -0.79590
C         -5.48730       -2.73010       -1.34840
C         -6.10740       -3.95730       -1.61460
C         -5.52330       -5.17870       -1.37340
C         -4.24240       -5.10520       -0.81940
C         -3.32810       -6.17220       -0.41650
C         -3.60420       -7.51640       -0.42430
C         -2.74960       -8.50340        0.10950
N         -2.13010       -9.35680        0.56460
C         -4.79180       -8.08620       -0.92220
N         -5.73490       -8.61130       -1.31570
C         -7.36440       -3.30270       -2.13430
C         -7.56250       -3.28620       -3.66390
C         -8.57650       -2.18820       -3.88900
C         -7.97370       -1.02930       -3.65690
C         -6.54250       -1.32410       -3.26820
C         -6.28820       -2.56980       -4.12810
C         -6.66540       -1.93320       -1.85470
C          0.13460       -5.58950        1.05930
C          1.49200       -5.85800        0.72600
F          1.71310       -6.74870       -0.25360
C          2.57150       -5.20480        1.26780
F          3.82070       -5.45340        0.83080
C          2.36620       -4.22810        2.26940
C          1.01910       -4.05330        2.69550
N          0.87960       -3.10340        3.63030
C         -0.32830       -2.80530        4.14140
C         -0.45220       -1.77690        5.21750
C         -0.66630       -2.42640        6.58900
C         -1.41850       -3.54910        3.62580
N         -1.29960       -4.43170        2.65990
C         -0.09650       -4.68870        2.12670
C         -2.82610       -3.38060        4.12150
C         -3.29470       -4.65360        4.82960
C          3.14110       -3.33140        2.97050
C          2.23660       -2.47900        3.87300
N          2.61360       -2.51210        5.24940
C          3.11490       -3.75120        5.72670
C          2.36910       -4.92450        5.64430
C          2.89670       -6.11480        6.09690
C          4.17270       -6.16110        6.65300
S          4.73190       -7.73770        7.20760
C          6.47980       -7.46100        7.61230
C          4.91220       -4.98920        6.75250
C          4.38700       -3.80080        6.28670
C          2.81580       -1.39320        6.08130
C          2.48760       -1.53060        7.43070
C          2.64590       -0.48840        8.32090
C          3.13800        0.73270        7.87980
S          3.35960        2.15120        8.90590
C          2.86070        1.58140       10.55490
C          3.50490        0.86640        6.54440
C          3.36410       -0.18260        5.66050
C          2.29880       -1.17480        3.14620
S          1.17320        0.12710        3.03500
C          2.12340        0.85930        1.76980
C          3.26810        0.14340        1.48980
N          4.16210        0.48100        0.48750
C          4.61040        1.79840        0.37480
C          4.83380        2.38000       -0.87250
C          5.32190        3.66590       -0.96130
C          5.59490        4.39720        0.18990
S          6.23890        6.03450        0.00060
C          7.28340        6.20790        1.48310
C          5.33730        3.83750        1.43360
C          4.85400        2.54930        1.52400
C          4.56260       -0.53190       -0.39840
C          5.85790       -0.56920       -0.90170
C          6.25420       -1.58740       -1.74710
C          5.36360       -2.59610       -2.09110
S          5.75150       -3.94590       -3.15560
C          7.50860       -3.70560       -3.54580
C          4.06440       -2.56100       -1.58710
C          3.66440       -1.53820       -0.75820
C          3.35710       -1.02460        2.28810
S          4.48650       -2.38580        2.30750
C          1.53050        1.85740        0.90280
C          1.50300        3.20960        0.92920
C          0.75660        3.77750       -0.14410
C          0.53160        5.13370       -0.43270
C          1.14010        6.19400        0.35140
S          2.83990        6.19350        0.70820
C          2.76040        7.71850        1.51690
C          3.96100        8.33270        2.14830
C          4.23480        7.71250        3.52060
C          1.47800        8.18010        1.51630
F          1.11510        9.33700        2.08750
C          0.56290        7.32960        0.85080
F         -0.74790        7.58990        0.78200
C         -0.27620        5.42440       -1.52980
C         -0.86870        4.41850       -2.34050
C         -0.61800        3.06050       -2.06930
C         -1.14200        1.99590       -2.90430
S         -1.85700        0.56780       -2.21520
C         -2.10770       -0.16140       -3.76110
C         -2.66990       -1.53350       -3.88840
C         -1.68990       -2.58330       -3.35970
C         -1.66500        0.67100       -4.74560
C         -1.12600        1.89040       -4.26890
F         -0.58170        2.80590       -5.07940
F         -1.72640        0.36440       -6.04910
C          0.18290        2.78140       -0.97010
S          0.63510        1.18820       -0.45310
C         -1.67070        4.95910       -3.36600
C         -1.66120        6.32890       -3.40490
S         -0.66950        7.00600       -2.11680
C         -2.26170        7.26250       -4.28810
C         -3.03600        7.08210       -5.39380
C         -3.51360        5.81490       -6.00910
O         -3.53090        4.69980       -5.53560
C         -4.03180        6.19310       -7.33830
C         -4.49340        5.36700       -8.33430
C         -4.93080        5.94390       -9.53510
O         -5.36310        5.08080      -10.47610
C         -5.81050        5.57740      -11.71760
C         -4.89300        7.33340       -9.68370
C         -4.43460        8.15800       -8.66900
C         -3.99740        7.59340       -7.47980
C         -3.46630        8.17900       -6.26040
C         -3.42810        9.51890       -5.98020
C         -3.88080       10.51780       -6.86910
N         -4.22790       11.38010       -7.54270
C         -2.98490       10.11460       -4.77950
N         -2.66440       10.69250       -3.84000
H         -0.75070       -7.17090       -0.07660
H         -3.72480       -1.71250       -0.56110
H         -6.00860       -6.11560       -1.59040
H         -8.27640       -3.53880       -1.58920
H         -7.78250       -4.25430       -4.10510
H         -9.60770       -2.36430       -4.13250
H         -8.40000       -0.04330       -3.66730
H         -5.83940       -0.49910       -3.35310
H         -5.37370       -3.10660       -3.88310
H         -6.30430       -2.34410       -5.19290
H         -7.12170       -1.25130       -1.13910
H         -1.28610       -1.11030        4.99100
H          0.45160       -1.17010        5.25600
H         -1.62870       -2.92580        6.64460
H         -0.62630       -1.66330        7.36150
H          0.11140       -3.15930        6.78650
H         -3.45910       -3.22000        3.24650
H         -2.92210       -2.52130        4.78100
H         -3.21110       -5.49960        4.15330
H         -4.33160       -4.55030        5.13770
H         -2.68930       -4.85590        5.71090
H          1.37230       -4.92110        5.23190
H          2.32040       -7.02440        6.02730
H          6.87910       -8.43950        7.86020
H          6.56860       -6.80080        8.47020
H          6.99740       -7.05930        6.74640
H          5.90130       -4.98850        7.18050
H          4.96980       -2.89410        6.35390
H          2.11770       -2.47860        7.79040
H          2.37780       -0.64380        9.35320
H          1.81310        1.29490       10.54980
H          3.00550        2.43250       11.21300
H          3.49560        0.75900       10.87150
H          3.92310        1.80260        6.20760
H          3.71080       -0.05460        4.65000
H          4.63030        1.81240       -1.76790
H          5.49990        4.11540       -1.92580
H          7.93860        7.05130        1.28940
H          6.67730        6.40940        2.36090
H          7.86900        5.30340        1.61300
H          5.52370        4.39490        2.33790
H          4.67290        2.11220        2.49520
H          6.56100        0.20220       -0.62440
H          7.26570       -1.58610       -2.11930
H          7.64830       -2.77470       -4.08800
H          7.78250       -4.54370       -4.17900
H          8.09700       -3.72600       -2.63320
H          3.37420       -3.34460       -1.85870
H          2.64900       -1.51320       -0.38830
H          1.99280        3.79150        1.68780
H          4.82280        8.18140        1.49530
H          3.78870        9.40470        2.25940
H          4.36500        6.63600        3.42950
H          5.13330        8.14370        3.95480
H          3.40190        7.90000        4.19380
H         -2.89040       -1.72310       -4.94060
H         -3.59830       -1.59930       -3.31830
H         -2.12250       -3.57590       -3.45690
H         -0.75910       -2.55430       -3.92110
H         -1.46860       -2.40310       -2.31020
H         -2.24560        4.36740       -4.05270
H         -2.00720        8.28750       -4.04370
H         -4.51630        4.29640       -8.21040
H         -6.68140        6.22890      -11.59820
H         -6.09320        4.70070      -12.29770
H         -5.01710        6.11780      -12.24240
H         -5.22350        7.79090      -10.60270
H         -4.41890        9.22390       -8.82640
