
  xtb     02052218523D
 energy: -375.475164835157 gnorm: 0.000551784923 xtb: 6.4.1 (unknown)
220240  0     0  0            999 V2000
   -5.4461    1.6791    4.3403 C   0  0  0  0  0  0  0  0  0  0  0  0
   -4.9601    2.3973    5.4126 C   0  0  0  0  0  0  0  0  0  0  0  0
   -3.5568    2.3703    5.8485 C   0  0  0  0  0  0  0  0  0  0  0  0
   -2.6195    1.8001    5.3171 O   0  0  0  0  0  0  0  0  0  0  0  0
   -3.5238    3.0761    7.1461 C   0  0  0  0  0  0  0  0  0  0  0  0
   -2.4180    3.2621    7.9694 C   0  0  0  0  0  0  0  0  0  0  0  0
   -2.6936    3.9385    9.1342 C   0  0  0  0  0  0  0  0  0  0  0  0
   -3.9786    4.3850    9.4639 C   0  0  0  0  0  0  0  0  0  0  0  0
   -5.0811    4.2001    8.6611 C   0  0  0  0  0  0  0  0  0  0  0  0
   -4.8187    3.5265    7.4657 C   0  0  0  0  0  0  0  0  0  0  0  0
   -5.7187    3.1498    6.3750 C   0  0  0  0  0  0  0  0  0  0  0  0
   -7.0173    3.5706    6.2244 C   0  0  0  0  0  0  0  0  0  0  0  0
   -7.6872    4.4069    7.1368 C   0  0  0  0  0  0  0  0  0  0  0  0
   -8.2683    5.0980    7.8473 N   0  0  0  0  0  0  0  0  0  0  0  0
   -7.8166    3.2728    5.1029 C   0  0  0  0  0  0  0  0  0  0  0  0
   -8.5141    3.0815    4.2107 N   0  0  0  0  0  0  0  0  0  0  0  0
   -3.5281    4.9515   10.7888 C   0  0  0  0  0  0  0  0  0  0  0  0
   -3.3440    6.4844   10.9086 C   0  0  0  0  0  0  0  0  0  0  0  0
   -3.0359    6.9899    9.5219 C   0  0  0  0  0  0  0  0  0  0  0  0
   -1.8211    6.5680    9.1973 C   0  0  0  0  0  0  0  0  0  0  0  0
   -1.2827    5.7755   10.3625 C   0  0  0  0  0  0  0  0  0  0  0  0
   -1.9387    6.5304   11.5300 C   0  0  0  0  0  0  0  0  0  0  0  0
   -2.0943    4.4583   10.4167 C   0  0  0  0  0  0  0  0  0  0  0  0
   -4.6819    1.2121    3.2682 C   0  0  0  0  0  0  0  0  0  0  0  0
   -3.4601    1.6766    2.7375 C   0  0  0  0  0  0  0  0  0  0  0  0
   -2.9183    2.9072    2.9466 N   0  0  0  0  0  0  0  0  0  0  0  0
   -3.6956    3.9774    3.4244 C   0  0  0  0  0  0  0  0  0  0  0  0
   -3.2029    4.7894    4.4409 C   0  0  0  0  0  0  0  0  0  0  0  0
   -3.9907    5.7861    4.9875 C   0  0  0  0  0  0  0  0  0  0  0  0
   -5.2788    5.9909    4.5102 C   0  0  0  0  0  0  0  0  0  0  0  0
   -6.4022    7.1689    5.1783 S   0  0  0  0  0  0  0  0  0  0  0  0
   -5.6803    7.5597    6.7966 C   0  0  0  0  0  0  0  0  0  0  0  0
   -5.7408    5.2332    3.4309 C   0  0  0  0  0  0  0  0  0  0  0  0
   -4.9619    4.2350    2.8966 C   0  0  0  0  0  0  0  0  0  0  0  0
   -1.5917    3.1900    2.5673 C   0  0  0  0  0  0  0  0  0  0  0  0
   -0.5313    2.3924    2.9936 C   0  0  0  0  0  0  0  0  0  0  0  0
    0.7541    2.6940    2.5987 C   0  0  0  0  0  0  0  0  0  0  0  0
    1.0044    3.7910    1.7752 C   0  0  0  0  0  0  0  0  0  0  0  0
    2.6848    4.0907    1.3400 S   0  0  0  0  0  0  0  0  0  0  0  0
    2.6209    5.6070    0.3456 C   0  0  0  0  0  0  0  0  0  0  0  0
   -0.0514    4.5933    1.3621 C   0  0  0  0  0  0  0  0  0  0  0  0
   -1.3393    4.2959    1.7626 C   0  0  0  0  0  0  0  0  0  0  0  0
   -2.9647    0.7644    1.7775 C   0  0  0  0  0  0  0  0  0  0  0  0
   -1.5010    0.6519    0.8763 S   0  0  0  0  0  0  0  0  0  0  0  0
   -2.1159   -0.7415   -0.0189 C   0  0  0  0  0  0  0  0  0  0  0  0
   -3.3835   -1.1082    0.4019 C   0  0  0  0  0  0  0  0  0  0  0  0
   -4.1977   -2.0618   -0.1885 N   0  0  0  0  0  0  0  0  0  0  0  0
   -3.7445   -3.3650   -0.4404 C   0  0  0  0  0  0  0  0  0  0  0  0
   -3.0282   -4.0706    0.5231 C   0  0  0  0  0  0  0  0  0  0  0  0
   -2.6868   -5.3929    0.3111 C   0  0  0  0  0  0  0  0  0  0  0  0
   -3.0583   -6.0228   -0.8686 C   0  0  0  0  0  0  0  0  0  0  0  0
   -2.7518   -7.7340   -1.1845 S   0  0  0  0  0  0  0  0  0  0  0  0
   -2.8639   -8.4586    0.4793 C   0  0  0  0  0  0  0  0  0  0  0  0
   -3.7196   -5.3020   -1.8597 C   0  0  0  0  0  0  0  0  0  0  0  0
   -4.0632   -3.9866   -1.6475 C   0  0  0  0  0  0  0  0  0  0  0  0
   -5.5441   -1.7421   -0.4100 C   0  0  0  0  0  0  0  0  0  0  0  0
   -6.5334   -2.7204   -0.3544 C   0  0  0  0  0  0  0  0  0  0  0  0
   -7.8587   -2.4011   -0.5779 C   0  0  0  0  0  0  0  0  0  0  0  0
   -8.2279   -1.0877   -0.8338 C   0  0  0  0  0  0  0  0  0  0  0  0
   -9.8822   -0.5601   -1.1497 S   0  0  0  0  0  0  0  0  0  0  0  0
  -10.8897   -2.0028   -0.7065 C   0  0  0  0  0  0  0  0  0  0  0  0
   -7.2447   -0.1017   -0.8723 C   0  0  0  0  0  0  0  0  0  0  0  0
   -5.9214   -0.4247   -0.6791 C   0  0  0  0  0  0  0  0  0  0  0  0
   -3.8361   -0.2608    1.4477 C   0  0  0  0  0  0  0  0  0  0  0  0
   -5.2855   -0.1985    2.3820 S   0  0  0  0  0  0  0  0  0  0  0  0
   -1.2150   -1.2440   -1.0101 C   0  0  0  0  0  0  0  0  0  0  0  0
   -0.4278   -0.4098   -1.7952 C   0  0  0  0  0  0  0  0  0  0  0  0
   -0.5972    0.9635   -1.9098 N   0  0  0  0  0  0  0  0  0  0  0  0
   -1.8800    1.5021   -2.0555 C   0  0  0  0  0  0  0  0  0  0  0  0
   -2.2085    2.7211   -1.4604 C   0  0  0  0  0  0  0  0  0  0  0  0
   -3.4842    3.2262   -1.5757 C   0  0  0  0  0  0  0  0  0  0  0  0
   -4.4593    2.5349   -2.2933 C   0  0  0  0  0  0  0  0  0  0  0  0
   -6.0732    3.2500   -2.3440 S   0  0  0  0  0  0  0  0  0  0  0  0
   -6.8965    2.3590   -3.6950 C   0  0  0  0  0  0  0  0  0  0  0  0
   -4.1334    1.3251   -2.8928 C   0  0  0  0  0  0  0  0  0  0  0  0
   -2.8566    0.8142   -2.7699 C   0  0  0  0  0  0  0  0  0  0  0  0
    0.5488    1.7639   -1.9634 C   0  0  0  0  0  0  0  0  0  0  0  0
    0.6170    2.8734   -2.8055 C   0  0  0  0  0  0  0  0  0  0  0  0
    1.7872    3.5924   -2.9068 C   0  0  0  0  0  0  0  0  0  0  0  0
    2.9168    3.2166   -2.1823 C   0  0  0  0  0  0  0  0  0  0  0  0
    4.3761    4.1814   -2.4357 S   0  0  0  0  0  0  0  0  0  0  0  0
    5.5784    3.4627   -1.2822 C   0  0  0  0  0  0  0  0  0  0  0  0
    2.8442    2.1333   -1.3191 C   0  0  0  0  0  0  0  0  0  0  0  0
    1.6657    1.4243   -1.2042 C   0  0  0  0  0  0  0  0  0  0  0  0
    0.5801   -1.1292   -2.4661 C   0  0  0  0  0  0  0  0  0  0  0  0
    1.8400   -0.6649   -3.5478 S   0  0  0  0  0  0  0  0  0  0  0  0
    2.4628   -2.3171   -3.5370 C   0  0  0  0  0  0  0  0  0  0  0  0
    1.6238   -3.2002   -2.8419 C   0  0  0  0  0  0  0  0  0  0  0  0
    1.7432   -4.5673   -2.7971 N   0  0  0  0  0  0  0  0  0  0  0  0
    2.2344   -5.2930   -3.8883 C   0  0  0  0  0  0  0  0  0  0  0  0
    1.9841   -4.8639   -5.1898 C   0  0  0  0  0  0  0  0  0  0  0  0
    2.4766   -5.5576   -6.2747 C   0  0  0  0  0  0  0  0  0  0  0  0
    3.2317   -6.7094   -6.0809 C   0  0  0  0  0  0  0  0  0  0  0  0
    3.8835   -7.6874   -7.3870 S   0  0  0  0  0  0  0  0  0  0  0  0
    3.7291   -6.6102   -8.8415 C   0  0  0  0  0  0  0  0  0  0  0  0
    3.4688   -7.1563   -4.7811 C   0  0  0  0  0  0  0  0  0  0  0  0
    2.9778   -6.4621   -3.6991 C   0  0  0  0  0  0  0  0  0  0  0  0
    1.4077   -5.2299   -1.6070 C   0  0  0  0  0  0  0  0  0  0  0  0
    0.7675   -6.4677   -1.6336 C   0  0  0  0  0  0  0  0  0  0  0  0
    0.4735   -7.1174   -0.4566 C   0  0  0  0  0  0  0  0  0  0  0  0
    0.7744   -6.5297    0.7701 C   0  0  0  0  0  0  0  0  0  0  0  0
    0.3017   -7.4208    2.2230 S   0  0  0  0  0  0  0  0  0  0  0  0
    1.2383   -6.6194    3.5531 C   0  0  0  0  0  0  0  0  0  0  0  0
    1.3991   -5.2911    0.8021 C   0  0  0  0  0  0  0  0  0  0  0  0
    1.7277   -4.6574   -0.3789 C   0  0  0  0  0  0  0  0  0  0  0  0
    0.5713   -2.4908   -2.2115 C   0  0  0  0  0  0  0  0  0  0  0  0
   -0.7510   -2.9331   -1.1751 S   0  0  0  0  0  0  0  0  0  0  0  0
    3.7834   -2.4999   -4.0268 C   0  0  0  0  0  0  0  0  0  0  0  0
    4.6606   -3.5096   -3.5500 C   0  0  0  0  0  0  0  0  0  0  0  0
    6.0139   -3.6105   -4.0308 C   0  0  0  0  0  0  0  0  0  0  0  0
    6.5781   -4.6190   -3.3974 N   0  0  0  0  0  0  0  0  0  0  0  0
    5.6488   -5.1033   -2.5595 O   0  0  0  0  0  0  0  0  0  0  0  0
    4.4928   -4.4446   -2.6420 N   0  0  0  0  0  0  0  0  0  0  0  0
    6.5721   -2.6484   -4.9092 C   0  0  0  0  0  0  0  0  0  0  0  0
    5.7237   -1.5771   -5.2664 C   0  0  0  0  0  0  0  0  0  0  0  0
    6.3004   -0.6316   -6.0308 O   0  0  0  0  0  0  0  0  0  0  0  0
    5.8660    0.7266   -6.0106 C   0  0  0  0  0  0  0  0  0  0  0  0
    5.7719    1.3036   -4.6049 C   0  0  0  0  0  0  0  0  0  0  0  0
    4.3537   -1.5814   -4.9173 C   0  0  0  0  0  0  0  0  0  0  0  0
    3.5236   -0.6350   -5.4901 O   0  0  0  0  0  0  0  0  0  0  0  0
    2.7139   -1.1376   -6.5526 C   0  0  0  0  0  0  0  0  0  0  0  0
    3.5133   -1.7636   -7.6867 C   0  0  0  0  0  0  0  0  0  0  0  0
    7.9212   -2.6679   -5.3372 C   0  0  0  0  0  0  0  0  0  0  0  0
    8.7754   -3.7327   -5.4032 C   0  0  0  0  0  0  0  0  0  0  0  0
   10.2387   -3.5020   -5.4385 C   0  0  0  0  0  0  0  0  0  0  0  0
   10.8089   -2.4495   -5.6084 O   0  0  0  0  0  0  0  0  0  0  0  0
   10.8414   -4.8320   -5.1714 C   0  0  0  0  0  0  0  0  0  0  0  0
    9.8211   -5.8000   -5.0951 C   0  0  0  0  0  0  0  0  0  0  0  0
   10.1320   -7.1216   -4.8236 C   0  0  0  0  0  0  0  0  0  0  0  0
   11.4632   -7.4632   -4.6326 C   0  0  0  0  0  0  0  0  0  0  0  0
   12.4665   -6.5109   -4.7197 C   0  0  0  0  0  0  0  0  0  0  0  0
   14.2615   -7.0421   -4.4607 Br  0  0  0  0  0  0  0  0  0  0  0  0
   12.1723   -5.1700   -4.9923 C   0  0  0  0  0  0  0  0  0  0  0  0
   13.4115   -3.9930   -5.0993 Cl  0  0  0  0  0  0  0  0  0  0  0  0
    8.5408   -5.1504   -5.3647 C   0  0  0  0  0  0  0  0  0  0  0  0
    7.3832   -5.7948   -5.7311 C   0  0  0  0  0  0  0  0  0  0  0  0
    7.1956   -7.1890   -5.6702 C   0  0  0  0  0  0  0  0  0  0  0  0
    6.9802   -8.3151   -5.6094 N   0  0  0  0  0  0  0  0  0  0  0  0
    6.2799   -5.1293   -6.2895 C   0  0  0  0  0  0  0  0  0  0  0  0
    5.3698   -4.6370   -6.7919 N   0  0  0  0  0  0  0  0  0  0  0  0
   -6.4894    1.3881    4.3396 H   0  0  0  0  0  0  0  0  0  0  0  0
   -1.4459    2.8887    7.6864 H   0  0  0  0  0  0  0  0  0  0  0  0
   -6.0706    4.5253    8.9388 H   0  0  0  0  0  0  0  0  0  0  0  0
   -3.9992    4.5222   11.6710 H   0  0  0  0  0  0  0  0  0  0  0  0
   -4.1434    6.9958   11.4380 H   0  0  0  0  0  0  0  0  0  0  0  0
   -3.7342    7.5435    8.9221 H   0  0  0  0  0  0  0  0  0  0  0  0
   -1.2996    6.6907    8.2656 H   0  0  0  0  0  0  0  0  0  0  0  0
   -0.2042    5.6437   10.3945 H   0  0  0  0  0  0  0  0  0  0  0  0
   -1.8672    6.0044   12.4809 H   0  0  0  0  0  0  0  0  0  0  0  0
   -1.5606    7.5456   11.6421 H   0  0  0  0  0  0  0  0  0  0  0  0
   -1.6297    3.7135   11.0603 H   0  0  0  0  0  0  0  0  0  0  0  0
   -2.2034    4.6250    4.8152 H   0  0  0  0  0  0  0  0  0  0  0  0
   -3.5930    6.3838    5.7919 H   0  0  0  0  0  0  0  0  0  0  0  0
   -4.8113    8.2010    6.6755 H   0  0  0  0  0  0  0  0  0  0  0  0
   -5.4277    6.6368    7.3113 H   0  0  0  0  0  0  0  0  0  0  0  0
   -6.4572    8.0854    7.3430 H   0  0  0  0  0  0  0  0  0  0  0  0
   -6.7249    5.4283    3.0346 H   0  0  0  0  0  0  0  0  0  0  0  0
   -5.3355    3.6425    2.0751 H   0  0  0  0  0  0  0  0  0  0  0  0
   -0.7314    1.5661    3.6572 H   0  0  0  0  0  0  0  0  0  0  0  0
    1.5835    2.0886    2.9305 H   0  0  0  0  0  0  0  0  0  0  0  0
    3.6492    5.8338    0.0816 H   0  0  0  0  0  0  0  0  0  0  0  0
    2.2063    6.4187    0.9359 H   0  0  0  0  0  0  0  0  0  0  0  0
    2.0443    5.4316   -0.5583 H   0  0  0  0  0  0  0  0  0  0  0  0
    0.1114    5.4485    0.7265 H   0  0  0  0  0  0  0  0  0  0  0  0
   -2.1606    4.9206    1.4426 H   0  0  0  0  0  0  0  0  0  0  0  0
   -2.7611   -3.5836    1.4495 H   0  0  0  0  0  0  0  0  0  0  0  0
   -2.1474   -5.9313    1.0736 H   0  0  0  0  0  0  0  0  0  0  0  0
   -3.7388   -8.0574    0.9810 H   0  0  0  0  0  0  0  0  0  0  0  0
   -1.9618   -8.2605    1.0508 H   0  0  0  0  0  0  0  0  0  0  0  0
   -2.9766   -9.5278    0.3301 H   0  0  0  0  0  0  0  0  0  0  0  0
   -3.9758   -5.7941   -2.7852 H   0  0  0  0  0  0  0  0  0  0  0  0
   -4.6027   -3.4328   -2.4015 H   0  0  0  0  0  0  0  0  0  0  0  0
   -6.2653   -3.7423   -0.1323 H   0  0  0  0  0  0  0  0  0  0  0  0
   -8.5942   -3.1882   -0.5365 H   0  0  0  0  0  0  0  0  0  0  0  0
  -10.6634   -2.3071    0.3110 H   0  0  0  0  0  0  0  0  0  0  0  0
  -10.7193   -2.8129   -1.4099 H   0  0  0  0  0  0  0  0  0  0  0  0
  -11.9210   -1.6705   -0.7727 H   0  0  0  0  0  0  0  0  0  0  0  0
   -7.5343    0.9228   -1.0476 H   0  0  0  0  0  0  0  0  0  0  0  0
   -5.1705    0.3486   -0.7332 H   0  0  0  0  0  0  0  0  0  0  0  0
   -1.4584    3.2550   -0.8961 H   0  0  0  0  0  0  0  0  0  0  0  0
   -3.7458    4.1618   -1.1053 H   0  0  0  0  0  0  0  0  0  0  0  0
   -7.0859    1.3271   -3.4129 H   0  0  0  0  0  0  0  0  0  0  0  0
   -6.2889    2.4201   -4.5929 H   0  0  0  0  0  0  0  0  0  0  0  0
   -7.8401    2.8734   -3.8487 H   0  0  0  0  0  0  0  0  0  0  0  0
   -4.8676    0.7667   -3.4507 H   0  0  0  0  0  0  0  0  0  0  0  0
   -2.6136   -0.1307   -3.2333 H   0  0  0  0  0  0  0  0  0  0  0  0
   -0.2452    3.1556   -3.3907 H   0  0  0  0  0  0  0  0  0  0  0  0
    1.8474    4.4439   -3.5680 H   0  0  0  0  0  0  0  0  0  0  0  0
    5.7932    2.4364   -1.5647 H   0  0  0  0  0  0  0  0  0  0  0  0
    5.1980    3.5233   -0.2663 H   0  0  0  0  0  0  0  0  0  0  0  0
    6.4750    4.0669   -1.3804 H   0  0  0  0  0  0  0  0  0  0  0  0
    3.6912    1.8327   -0.7255 H   0  0  0  0  0  0  0  0  0  0  0  0
    1.6096    0.5912   -0.5192 H   0  0  0  0  0  0  0  0  0  0  0  0
    1.3777   -3.9851   -5.3536 H   0  0  0  0  0  0  0  0  0  0  0  0
    2.2575   -5.1990   -7.2667 H   0  0  0  0  0  0  0  0  0  0  0  0
    4.2835   -7.1052   -9.6325 H   0  0  0  0  0  0  0  0  0  0  0  0
    2.6867   -6.5115   -9.1300 H   0  0  0  0  0  0  0  0  0  0  0  0
    4.1780   -5.6477   -8.6150 H   0  0  0  0  0  0  0  0  0  0  0  0
    4.0585   -8.0481   -4.6345 H   0  0  0  0  0  0  0  0  0  0  0  0
    3.1869   -6.8072   -2.6990 H   0  0  0  0  0  0  0  0  0  0  0  0
    0.5063   -6.9205   -2.5775 H   0  0  0  0  0  0  0  0  0  0  0  0
    0.0035   -8.0874   -0.4809 H   0  0  0  0  0  0  0  0  0  0  0  0
    0.8405   -5.6283    3.7515 H   0  0  0  0  0  0  0  0  0  0  0  0
    2.2889   -6.5783    3.2818 H   0  0  0  0  0  0  0  0  0  0  0  0
    1.1041   -7.2500    4.4266 H   0  0  0  0  0  0  0  0  0  0  0  0
    1.6474   -4.8151    1.7370 H   0  0  0  0  0  0  0  0  0  0  0  0
    2.2505   -3.7134   -0.3519 H   0  0  0  0  0  0  0  0  0  0  0  0
    4.9106    0.8444   -6.5281 H   0  0  0  0  0  0  0  0  0  0  0  0
    6.6459    1.2388   -6.5810 H   0  0  0  0  0  0  0  0  0  0  0  0
    6.6946    1.1140   -4.0595 H   0  0  0  0  0  0  0  0  0  0  0  0
    4.9367    0.8642   -4.0644 H   0  0  0  0  0  0  0  0  0  0  0  0
    5.6117    2.3763   -4.6687 H   0  0  0  0  0  0  0  0  0  0  0  0
    2.1605   -0.2601   -6.8958 H   0  0  0  0  0  0  0  0  0  0  0  0
    1.9991   -1.8712   -6.1583 H   0  0  0  0  0  0  0  0  0  0  0  0
    2.8336   -2.0409   -8.4881 H   0  0  0  0  0  0  0  0  0  0  0  0
    4.2452   -1.0613   -8.0790 H   0  0  0  0  0  0  0  0  0  0  0  0
    4.0351   -2.6558   -7.3453 H   0  0  0  0  0  0  0  0  0  0  0  0
    8.3472   -1.7050   -5.5980 H   0  0  0  0  0  0  0  0  0  0  0  0
    9.3679   -7.8771   -4.7465 H   0  0  0  0  0  0  0  0  0  0  0  0
   11.7300   -8.4856   -4.4132 H   0  0  0  0  0  0  0  0  0  0  0  0
  1  2  2  0  0  0  0
  2  3  1  0  0  0  0
  3  4  2  0  0  0  0
  3  5  1  0  0  0  0
  5  6  2  0  0  0  0
  6  7  1  0  0  0  0
  7  8  2  0  0  0  0
  8  9  1  0  0  0  0
  9 10  2  0  0  0  0
 10 11  1  0  0  0  0
 11 12  2  0  0  0  0
 12 13  1  0  0  0  0
 13 14  3  0  0  0  0
 12 15  1  0  0  0  0
 15 16  3  0  0  0  0
  8 17  1  0  0  0  0
 17 18  1  0  0  0  0
 18 19  1  0  0  0  0
 19 20  2  0  0  0  0
 20 21  1  0  0  0  0
 21 22  1  0  0  0  0
 21 23  1  0  0  0  0
  1 24  1  0  0  0  0
 24 25  2  0  0  0  0
 25 26  1  0  0  0  0
 26 27  1  0  0  0  0
 27 28  2  0  0  0  0
 28 29  1  0  0  0  0
 29 30  2  0  0  0  0
 30 31  1  0  0  0  0
 31 32  1  0  0  0  0
 30 33  1  0  0  0  0
 33 34  2  0  0  0  0
 26 35  1  0  0  0  0
 35 36  2  0  0  0  0
 36 37  1  0  0  0  0
 37 38  2  0  0  0  0
 38 39  1  0  0  0  0
 39 40  1  0  0  0  0
 38 41  1  0  0  0  0
 41 42  2  0  0  0  0
 25 43  1  0  0  0  0
 43 44  1  0  0  0  0
 44 45  1  0  0  0  0
 45 46  2  0  0  0  0
 46 47  1  0  0  0  0
 47 48  1  0  0  0  0
 48 49  2  0  0  0  0
 49 50  1  0  0  0  0
 50 51  2  0  0  0  0
 51 52  1  0  0  0  0
 52 53  1  0  0  0  0
 51 54  1  0  0  0  0
 54 55  2  0  0  0  0
 47 56  1  0  0  0  0
 56 57  2  0  0  0  0
 57 58  1  0  0  0  0
 58 59  2  0  0  0  0
 59 60  1  0  0  0  0
 60 61  1  0  0  0  0
 59 62  1  0  0  0  0
 62 63  2  0  0  0  0
 46 64  1  0  0  0  0
 64 65  1  0  0  0  0
 45 66  1  0  0  0  0
 66 67  2  0  0  0  0
 67 68  1  0  0  0  0
 68 69  1  0  0  0  0
 69 70  2  0  0  0  0
 70 71  1  0  0  0  0
 71 72  2  0  0  0  0
 72 73  1  0  0  0  0
 73 74  1  0  0  0  0
 72 75  1  0  0  0  0
 75 76  2  0  0  0  0
 68 77  1  0  0  0  0
 77 78  2  0  0  0  0
 78 79  1  0  0  0  0
 79 80  2  0  0  0  0
 80 81  1  0  0  0  0
 81 82  1  0  0  0  0
 80 83  1  0  0  0  0
 83 84  2  0  0  0  0
 67 85  1  0  0  0  0
 85 86  1  0  0  0  0
 86 87  1  0  0  0  0
 87 88  2  0  0  0  0
 88 89  1  0  0  0  0
 89 90  1  0  0  0  0
 90 91  2  0  0  0  0
 91 92  1  0  0  0  0
 92 93  2  0  0  0  0
 93 94  1  0  0  0  0
 94 95  1  0  0  0  0
 93 96  1  0  0  0  0
 96 97  2  0  0  0  0
 89 98  1  0  0  0  0
 98 99  2  0  0  0  0
 99100  1  0  0  0  0
100101  2  0  0  0  0
101102  1  0  0  0  0
102103  1  0  0  0  0
101104  1  0  0  0  0
104105  2  0  0  0  0
 88106  1  0  0  0  0
106107  1  0  0  0  0
 87108  1  0  0  0  0
108109  1  0  0  0  0
109110  1  0  0  0  0
110111  2  0  0  0  0
111112  1  0  0  0  0
112113  1  0  0  0  0
110114  1  0  0  0  0
114115  2  0  0  0  0
115116  1  0  0  0  0
116117  1  0  0  0  0
117118  1  0  0  0  0
115119  1  0  0  0  0
119120  1  0  0  0  0
120121  1  0  0  0  0
121122  1  0  0  0  0
114123  1  0  0  0  0
123124  2  0  0  0  0
124125  1  0  0  0  0
125126  2  0  0  0  0
125127  1  0  0  0  0
127128  2  0  0  0  0
128129  1  0  0  0  0
129130  2  0  0  0  0
130131  1  0  0  0  0
131132  1  0  0  0  0
131133  2  0  0  0  0
133134  1  0  0  0  0
128135  1  0  0  0  0
135136  2  0  0  0  0
136137  1  0  0  0  0
137138  3  0  0  0  0
136139  1  0  0  0  0
139140  3  0  0  0  0
 11  2  1  0  0  0  0
 23 17  1  0  0  0  0
 65 24  1  0  0  0  0
107 66  1  0  0  0  0
119108  2  0  0  0  0
135124  1  0  0  0  0
 10  5  1  0  0  0  0
 22 18  1  0  0  0  0
 34 27  1  0  0  0  0
 42 35  1  0  0  0  0
 64 43  2  0  0  0  0
 76 69  1  0  0  0  0
 84 77  1  0  0  0  0
106 85  2  0  0  0  0
113109  2  0  0  0  0
133127  1  0  0  0  0
 23  7  1  0  0  0  0
 55 48  1  0  0  0  0
 63 56  1  0  0  0  0
 97 90  1  0  0  0  0
105 98  1  0  0  0  0
  1141  1  0  0  0  0
  6142  1  0  0  0  0
  9143  1  0  0  0  0
 17144  1  0  0  0  0
 18145  1  0  0  0  0
 19146  1  0  0  0  0
 20147  1  0  0  0  0
 21148  1  0  0  0  0
 22149  1  0  0  0  0
 22150  1  0  0  0  0
 23151  1  0  0  0  0
 28152  1  0  0  0  0
 29153  1  0  0  0  0
 32154  1  0  0  0  0
 32155  1  0  0  0  0
 32156  1  0  0  0  0
 33157  1  0  0  0  0
 34158  1  0  0  0  0
 36159  1  0  0  0  0
 37160  1  0  0  0  0
 40161  1  0  0  0  0
 40162  1  0  0  0  0
 40163  1  0  0  0  0
 41164  1  0  0  0  0
 42165  1  0  0  0  0
 49166  1  0  0  0  0
 50167  1  0  0  0  0
 53168  1  0  0  0  0
 53169  1  0  0  0  0
 53170  1  0  0  0  0
 54171  1  0  0  0  0
 55172  1  0  0  0  0
 57173  1  0  0  0  0
 58174  1  0  0  0  0
 61175  1  0  0  0  0
 61176  1  0  0  0  0
 61177  1  0  0  0  0
 62178  1  0  0  0  0
 63179  1  0  0  0  0
 70180  1  0  0  0  0
 71181  1  0  0  0  0
 74182  1  0  0  0  0
 74183  1  0  0  0  0
 74184  1  0  0  0  0
 75185  1  0  0  0  0
 76186  1  0  0  0  0
 78187  1  0  0  0  0
 79188  1  0  0  0  0
 82189  1  0  0  0  0
 82190  1  0  0  0  0
 82191  1  0  0  0  0
 83192  1  0  0  0  0
 84193  1  0  0  0  0
 91194  1  0  0  0  0
 92195  1  0  0  0  0
 95196  1  0  0  0  0
 95197  1  0  0  0  0
 95198  1  0  0  0  0
 96199  1  0  0  0  0
 97200  1  0  0  0  0
 99201  1  0  0  0  0
100202  1  0  0  0  0
103203  1  0  0  0  0
103204  1  0  0  0  0
103205  1  0  0  0  0
104206  1  0  0  0  0
105207  1  0  0  0  0
117208  1  0  0  0  0
117209  1  0  0  0  0
118210  1  0  0  0  0
118211  1  0  0  0  0
118212  1  0  0  0  0
121213  1  0  0  0  0
121214  1  0  0  0  0
122215  1  0  0  0  0
122216  1  0  0  0  0
122217  1  0  0  0  0
123218  1  0  0  0  0
129219  1  0  0  0  0
130220  1  0  0  0  0
M  END
