256

C          7.26670       -3.79150        3.48010
C          7.36020       -4.81110        4.40240
C          6.52710       -6.00950        4.46890
O          5.60250       -6.32040        3.73190
C          7.05340       -6.81520        5.58830
C          6.57460       -8.03750        6.05210
C          7.27320       -8.54680        7.12080
C          8.37670       -7.89510        7.68320
C          8.86170       -6.68900        7.23470
C          8.15790       -6.14860        6.15630
C          8.34730       -4.88160        5.44990
C          9.26740       -3.91620        5.78960
C         10.23460       -4.05360        6.80460
N         11.05720       -4.09130        7.60590
C          9.35760       -2.63330        5.21920
N          9.46680       -1.55050        4.84500
C          8.57920       -8.96580        8.72630
C          8.10610       -8.66180       10.16930
C          6.99360       -7.64980       10.05130
C          5.94410       -8.26240        9.52030
C          6.32760       -9.70020        9.27070
C          7.28770       -9.93260       10.44820
C          7.34460       -9.69000        8.10220
C          6.27790       -3.50520        2.54630
C          6.25800       -2.29210        1.80710
N          7.34870       -1.49800        1.58990
C          7.18890       -0.13300        1.27470
C          6.41660        0.69560        2.08480
C          6.26550        2.02770        1.77420
C          6.88800        2.56400        0.64830
S          6.61300        4.27740        0.34590
C          7.57430        4.62140       -1.15470
C          7.67360        1.74400       -0.15240
C          7.82190        0.40750        0.16070
C          8.64700       -2.03540        1.47370
C          9.73760       -1.30380        1.94370
C         11.01010       -1.81840        1.83690
C         11.22310       -3.06940        1.26050
S         12.89370       -3.62860        1.19310
C         12.76710       -5.31990        0.54440
C         10.13970       -3.78760        0.76880
C          8.86380       -3.27080        0.87030
C          4.96400       -2.03860        1.32360
S          4.22020       -0.66440        0.58170
C          2.66960       -1.49540        0.58520
C          2.77340       -2.82440        0.98080
N          1.76520       -3.74590        0.79680
C          0.79460       -3.52210       -0.20290
C          1.12170       -2.96600       -1.43920
C          0.14450       -2.74010       -2.37980
C         -1.18140       -3.08060       -2.11670
S         -2.35020       -2.68510       -3.37650
C         -3.88740       -3.47540       -2.82700
C         -1.50260       -3.68790       -0.91100
C         -0.51880       -3.90580        0.03700
C          1.89840       -5.08140        1.23610
C          1.78050       -6.12250        0.31510
C          1.96280       -7.42710        0.71660
C          2.26810       -7.71640        2.04320
S          2.57600       -9.40080        2.47250
C          3.74600       -9.20780        3.85110
C          2.32320       -6.68990        2.97390
C          2.13930       -5.38160        2.57050
C          4.07030       -3.09460        1.49230
S          4.78250       -4.41780        2.35060
C          1.49880       -0.72420        0.28360
C          0.37930       -0.52940        1.07910
N          0.16440       -1.08180        2.33090
C          1.23080       -1.34060        3.20470
C          2.33410       -0.49500        3.28080
C          3.40480       -0.80270        4.09840
C          3.38900       -1.95470        4.87160
S          4.72830       -2.51000        5.88190
C          5.97560       -1.20190        5.73770
C          2.25100       -2.75850        4.86090
C          1.18920       -2.46080        4.03490
C         -1.15000       -1.24650        2.79500
C         -1.46800       -0.98210        4.12850
C         -2.75850       -1.13600        4.57960
C         -3.76870       -1.54970        3.71290
S         -5.38540       -1.71410        4.40280
C         -6.46000       -1.84480        2.94440
C         -3.45770       -1.81880        2.38830
C         -2.16100       -1.66670        1.93560
C         -0.50820        0.39800        0.47560
S         -1.96970        1.15910        0.99590
C         -1.99020        2.15030       -0.44650
C         -0.89670        1.92620       -1.26920
N         -0.57940        2.65510       -2.41130
C         -0.22430        1.95110       -3.56580
C          0.60310        2.52080       -4.53100
C          0.94300        1.82140       -5.67260
C          0.47480        0.52830       -5.86370
S          0.86740       -0.46940       -7.26720
C          1.38490        0.73980       -8.51720
C         -0.33590       -0.05100       -4.89230
C         -0.68830        0.65000       -3.76250
C         -0.80410        4.03660       -2.41210
C         -0.58940        4.76900       -1.24480
C         -0.94910        6.09880       -1.15980
C         -1.52790        6.73240       -2.25090
S         -2.12820        8.39320       -2.22510
C         -2.05940        8.85490       -0.46960
C         -1.65960        6.03430       -3.44960
C         -1.29610        4.70830       -3.53330
C         -0.06430        0.91610       -0.73030
S          1.47710        0.27550       -1.16800
C         -2.98380        3.18290       -0.62700
C         -3.27160        4.09710        0.37310
F         -2.71610        3.95230        1.58750
C         -4.00020        5.26710        0.13450
F         -4.02060        6.18160        1.11510
C         -4.51160        5.56710       -1.11600
C         -4.29970        4.60630       -2.14550
N         -4.80610        4.85460       -3.36090
C         -4.59200        3.99990       -4.33410
C         -5.20290        4.31920       -5.62660
C         -5.29020        5.65020       -6.03870
C         -5.86250        5.94630       -7.25220
C         -6.39550        4.97630       -8.12510
O         -6.88040        5.44440       -9.28710
C         -7.61990        4.62500      -10.18020
C         -9.02960        4.34490       -9.67390
C         -6.31630        3.66150       -7.65780
C         -5.74090        3.33390       -6.44580
F         -6.81360        2.62860       -8.38350
F         -5.92990        7.22530       -7.65060
C         -3.82580        2.81470       -4.09580
N         -3.37400        2.53330       -2.89700
C         -3.57150        3.41570       -1.90320
C         -3.45550        1.90170       -5.18560
C         -3.67780        0.53700       -5.09470
C         -3.34180       -0.30280       -6.14040
F         -3.66930       -1.60800       -5.99550
C         -2.71420        0.15490       -7.30320
O         -2.28990       -0.52670       -8.37650
C         -2.36620       -1.94350       -8.44910
C         -3.73130       -2.42160       -8.92820
C         -2.48410        1.54280       -7.33770
F         -1.86720        2.04430       -8.42590
C         -2.85160        2.40590       -6.33610
C         -5.09380        6.82740       -1.49440
C         -5.89570        7.62270       -0.75530
C         -6.54690        7.25890        0.53600
O         -6.63510        6.15460        1.02210
C         -7.15830        8.50480        1.03060
C         -7.80330        8.68850        2.25170
C         -8.27830        9.96210        2.44840
C         -8.12480       10.98280        1.49870
C         -7.49590       10.81540        0.28910
C         -7.00790        9.52320        0.06470
C         -6.31310        8.97720       -1.09580
C         -6.11140        9.61100       -2.29170
C         -6.52540       10.93180       -2.56950
N         -6.83790       11.99770       -2.85830
C         -5.51510        9.03070       -3.43330
N         -5.06360        8.62860       -4.40930
C         -8.84840       11.99380        2.35190
C        -10.31150       12.33590        1.97620
C        -10.86640       11.12590        1.26610
C        -11.01200       10.16070        2.16430
C        -10.55780       10.70050        3.49800
C        -10.97760       12.17190        3.35170
C         -9.01930       10.85750        3.40900
H          8.05350       -3.04960        3.52640
H          5.72300       -8.51510        5.59480
H          9.71200       -6.19890        7.67830
H          9.53750       -9.48090        8.70300
H          8.90520       -8.41780       10.86410
H          7.09970       -6.61080       10.30270
H          4.99860       -7.83630        9.23990
H          5.50660      -10.40210        9.14860
H          7.86770      -10.85050       10.36100
H          6.78430       -9.90600       11.41360
H          7.49600      -10.68010        7.67580
H          5.94600        0.28630        2.96360
H          5.66860        2.67200        2.40090
H          8.62730        4.42580       -0.97490
H          7.19500        4.02940       -1.98250
H          7.42630        5.67720       -1.35930
H          8.17140        2.12970       -1.02690
H          8.43010       -0.22660       -0.46720
H          9.57950       -0.34260        2.40580
H         11.85390       -1.26210        2.21340
H         12.12660       -5.91550        1.18820
H         13.77810       -5.71460        0.56320
H         12.39830       -5.30420       -0.47700
H         10.27390       -4.74640        0.29500
H          8.02880       -3.83330        0.47970
H          2.14730       -2.71720       -1.66620
H          0.40120       -2.29850       -3.32950
H         -4.59020       -3.33000       -3.64150
H         -3.72010       -4.53650       -2.66770
H         -4.25840       -2.99390       -1.92660
H         -2.51450       -3.98800       -0.68910
H         -0.77110       -4.37130        0.97830
H          1.57270       -5.90090       -0.72150
H          1.89790       -8.23300        0.00180
H          4.32330      -10.12720        3.88920
H          3.20520       -9.07290        4.78480
H          4.38870       -8.35720        3.63890
H          2.51860       -6.89240        4.01380
H          2.18680       -4.58690        3.29430
H          2.35710        0.41240        2.69600
H          4.23980       -0.12290        4.13370
H          5.55280       -0.24850        6.03980
H          6.36790       -1.16440        4.72560
H          6.77400       -1.47850        6.41930
H          2.22160       -3.62820        5.50010
H          0.31940       -3.10080        4.01840
H         -0.69840       -0.64340        4.80540
H         -3.00460       -0.92390        5.60850
H         -7.47570       -1.77890        3.32140
H         -6.31450       -2.80220        2.45190
H         -6.26000       -1.01720        2.27040
H         -4.21410       -2.15210        1.69600
H         -1.92650       -1.88470        0.90510
H          0.99200        3.51720       -4.38250
H          1.58460        2.29130       -6.40090
H          0.63150        1.51610       -8.60240
H          2.35720        1.15310       -8.26460
H          1.45240        0.18780       -9.44940
H         -0.70340       -1.05490       -5.04040
H         -1.34500        0.19650       -3.03780
H         -0.15260        4.28320       -0.38470
H         -0.77920        6.62490       -0.23450
H         -1.02730        8.92430       -0.13910
H         -2.52720        9.83290       -0.40840
H         -2.61810        8.14150        0.12850
H         -2.07550        6.54080       -4.30720
H         -1.42850        4.17130       -4.45970
H         -4.91940        6.45190       -5.41930
H         -7.08710        3.69430      -10.39540
H         -7.66340        5.22180      -11.09490
H         -9.53000        5.28110       -9.43790
H         -9.59300        3.82610      -10.44390
H         -9.00970        3.72400       -8.78210
H         -5.74620        2.29680       -6.15220
H         -4.13450        0.11230       -4.21580
H         -2.09680       -2.39810       -7.49260
H         -1.60000       -2.20540       -9.18370
H         -3.70330       -3.49650       -9.07970
H         -3.98350       -1.93750       -9.86860
H         -4.50490       -2.19440       -8.19990
H         -2.65180        3.45920       -6.45360
H         -4.82600        7.12930       -2.49680
H         -7.89510        7.87610        2.95540
H         -7.38390       11.61040       -0.42920
H         -8.27640       12.87450        2.63680
H        -10.43590       13.28880        1.46900
H        -11.03630       11.07960        0.20640
H        -11.32780        9.14630        2.00490
H        -10.90660       10.16500        4.37710
H        -10.55710       12.82160        4.11810
H        -12.05840       12.29930        3.31400
H         -8.55890       10.99510        4.38540
