
  xtb     02142203053D
 energy: -352.654772056641 gnorm: 0.000354556238 xtb: 6.4.1 (unknown)
206229  0     0  0            999 V2000
    8.8369   -8.7032   -0.3464 C   0  0  0  0  0  0  0  0  0  0  0  0
    9.7028   -8.5524    0.6828 C   0  0  0  0  0  0  0  0  0  0  0  0
   10.8890   -9.4479    0.8158 C   0  0  0  0  0  0  0  0  0  0  0  0
   11.3436  -10.1728   -0.0385 O   0  0  0  0  0  0  0  0  0  0  0  0
   11.3332   -9.2939    2.2133 C   0  0  0  0  0  0  0  0  0  0  0  0
   12.3377  -10.0093    2.8628 C   0  0  0  0  0  0  0  0  0  0  0  0
   12.5232   -9.6498    4.1759 C   0  0  0  0  0  0  0  0  0  0  0  0
   11.7539   -8.6635    4.8100 C   0  0  0  0  0  0  0  0  0  0  0  0
   10.7612   -7.9485    4.1845 C   0  0  0  0  0  0  0  0  0  0  0  0
   10.5719   -8.2842    2.8418 C   0  0  0  0  0  0  0  0  0  0  0  0
    9.6737   -7.6967    1.8544 C   0  0  0  0  0  0  0  0  0  0  0  0
    9.1357   -6.4395    1.9155 C   0  0  0  0  0  0  0  0  0  0  0  0
    9.2084   -5.6025    3.0475 C   0  0  0  0  0  0  0  0  0  0  0  0
    9.2249   -4.8840    3.9425 N   0  0  0  0  0  0  0  0  0  0  0  0
    8.5392   -5.7932    0.8115 C   0  0  0  0  0  0  0  0  0  0  0  0
    8.1058   -5.2067   -0.0753 N   0  0  0  0  0  0  0  0  0  0  0  0
   12.4843   -8.8222    6.1190 C   0  0  0  0  0  0  0  0  0  0  0  0
   13.5311   -7.7423    6.4887 C   0  0  0  0  0  0  0  0  0  0  0  0
   14.0269   -7.1627    5.1868 C   0  0  0  0  0  0  0  0  0  0  0  0
   14.7605   -8.0895    4.5849 C   0  0  0  0  0  0  0  0  0  0  0  0
   14.7733   -9.3125    5.4685 C   0  0  0  0  0  0  0  0  0  0  0  0
   14.7193   -8.6466    6.8528 C   0  0  0  0  0  0  0  0  0  0  0  0
   13.3468   -9.9144    5.4113 C   0  0  0  0  0  0  0  0  0  0  0  0
    7.5081   -8.1977   -0.4504 C   0  0  0  0  0  0  0  0  0  0  0  0
    6.8484   -7.8770   -1.6029 C   0  0  0  0  0  0  0  0  0  0  0  0
    5.5549   -7.3437   -1.3904 C   0  0  0  0  0  0  0  0  0  0  0  0
    4.6802   -6.7932   -2.3428 C   0  0  0  0  0  0  0  0  0  0  0  0
    4.9798   -6.8484   -3.7793 C   0  0  0  0  0  0  0  0  0  0  0  0
    5.3044   -8.0651   -4.3729 C   0  0  0  0  0  0  0  0  0  0  0  0
    5.5469   -8.1161   -5.7307 C   0  0  0  0  0  0  0  0  0  0  0  0
    5.8503   -9.3109   -6.2786 F   0  0  0  0  0  0  0  0  0  0  0  0
    5.4963   -6.9988   -6.5568 C   0  0  0  0  0  0  0  0  0  0  0  0
    5.7205   -7.0872   -8.0368 C   0  0  0  0  0  0  0  0  0  0  0  0
    4.4004   -7.3661   -8.7599 C   0  0  0  0  0  0  0  0  0  0  0  0
    5.1731   -5.8034   -5.9238 C   0  0  0  0  0  0  0  0  0  0  0  0
    5.1125   -4.6803   -6.6659 F   0  0  0  0  0  0  0  0  0  0  0  0
    4.9162   -5.7065   -4.5706 C   0  0  0  0  0  0  0  0  0  0  0  0
    3.5194   -6.2128   -1.8599 C   0  0  0  0  0  0  0  0  0  0  0  0
    3.1617   -6.2124   -0.4860 C   0  0  0  0  0  0  0  0  0  0  0  0
    4.0333   -6.7694    0.4661 C   0  0  0  0  0  0  0  0  0  0  0  0
    3.7475   -6.7264    1.9062 C   0  0  0  0  0  0  0  0  0  0  0  0
    3.8808   -7.8720    2.6852 C   0  0  0  0  0  0  0  0  0  0  0  0
    3.6418   -7.8041    4.0430 C   0  0  0  0  0  0  0  0  0  0  0  0
    3.2727   -6.6334    4.6954 C   0  0  0  0  0  0  0  0  0  0  0  0
    2.9874   -6.5924    6.1673 C   0  0  0  0  0  0  0  0  0  0  0  0
    1.5204   -6.9338    6.4398 C   0  0  0  0  0  0  0  0  0  0  0  0
    3.1478   -5.5122    3.8819 C   0  0  0  0  0  0  0  0  0  0  0  0
    3.3779   -5.5333    2.5208 C   0  0  0  0  0  0  0  0  0  0  0  0
    2.7902   -4.3433    4.4494 F   0  0  0  0  0  0  0  0  0  0  0  0
    3.7763   -8.9320    4.7707 F   0  0  0  0  0  0  0  0  0  0  0  0
    5.2131   -7.3141   -0.0150 C   0  0  0  0  0  0  0  0  0  0  0  0
    6.5005   -7.9527    0.9687 S   0  0  0  0  0  0  0  0  0  0  0  0
    1.9036   -5.6011   -0.2693 C   0  0  0  0  0  0  0  0  0  0  0  0
    1.3334   -5.1047   -1.4075 C   0  0  0  0  0  0  0  0  0  0  0  0
    2.3072   -5.4172   -2.8273 S   0  0  0  0  0  0  0  0  0  0  0  0
    0.1451   -4.3229   -1.5029 C   0  0  0  0  0  0  0  0  0  0  0  0
   -0.0048   -3.1503   -2.8074 S   0  0  0  0  0  0  0  0  0  0  0  0
   -1.4367   -2.5237   -2.0842 C   0  0  0  0  0  0  0  0  0  0  0  0
   -2.3370   -1.4637   -2.1885 C   0  0  0  0  0  0  0  0  0  0  0  0
   -3.2239   -1.5773   -1.0976 C   0  0  0  0  0  0  0  0  0  0  0  0
   -2.9192   -2.6952   -0.3675 N   0  0  0  0  0  0  0  0  0  0  0  0
   -3.6683   -3.2502    0.7320 C   0  0  0  0  0  0  0  0  0  0  0  0
   -3.1272   -2.8217    2.0918 C   0  0  0  0  0  0  0  0  0  0  0  0
   -1.8020   -3.2520   -0.9322 C   0  0  0  0  0  0  0  0  0  0  0  0
   -0.8947   -4.2646   -0.6034 C   0  0  0  0  0  0  0  0  0  0  0  0
   -4.0842   -0.4788   -0.9712 C   0  0  0  0  0  0  0  0  0  0  0  0
   -3.8687    0.4519   -1.9584 C   0  0  0  0  0  0  0  0  0  0  0  0
   -2.6379   -0.0449   -3.1170 S   0  0  0  0  0  0  0  0  0  0  0  0
   -4.3696    1.7930   -1.9877 C   0  0  0  0  0  0  0  0  0  0  0  0
   -4.3732    2.6683   -0.9122 C   0  0  0  0  0  0  0  0  0  0  0  0
   -3.8618    2.4087    0.3500 N   0  0  0  0  0  0  0  0  0  0  0  0
   -2.6956    1.6634    0.5325 C   0  0  0  0  0  0  0  0  0  0  0  0
   -1.7039    1.6120   -0.4457 C   0  0  0  0  0  0  0  0  0  0  0  0
   -0.6346    0.7461   -0.3290 C   0  0  0  0  0  0  0  0  0  0  0  0
   -0.5081   -0.0520    0.7990 C   0  0  0  0  0  0  0  0  0  0  0  0
    0.7305   -1.2946    1.0072 S   0  0  0  0  0  0  0  0  0  0  0  0
    1.8682   -1.0205   -0.3783 C   0  0  0  0  0  0  0  0  0  0  0  0
   -1.4265    0.0905    1.8366 C   0  0  0  0  0  0  0  0  0  0  0  0
   -2.5168    0.9211    1.7007 C   0  0  0  0  0  0  0  0  0  0  0  0
   -4.4767    3.0759    1.4248 C   0  0  0  0  0  0  0  0  0  0  0  0
   -3.7228    3.7968    2.3459 C   0  0  0  0  0  0  0  0  0  0  0  0
   -4.3524    4.5520    3.3125 C   0  0  0  0  0  0  0  0  0  0  0  0
   -5.7393    4.5963    3.3682 C   0  0  0  0  0  0  0  0  0  0  0  0
   -6.5792    5.6461    4.5217 S   0  0  0  0  0  0  0  0  0  0  0  0
   -5.6104    7.1726    4.3068 C   0  0  0  0  0  0  0  0  0  0  0  0
   -6.4943    3.8254    2.4950 C   0  0  0  0  0  0  0  0  0  0  0  0
   -5.8666    3.0696    1.5281 C   0  0  0  0  0  0  0  0  0  0  0  0
   -4.9126    3.9256   -1.2754 C   0  0  0  0  0  0  0  0  0  0  0  0
   -5.1327    5.4044   -0.4131 S   0  0  0  0  0  0  0  0  0  0  0  0
   -5.7327    6.1775   -1.8820 C   0  0  0  0  0  0  0  0  0  0  0  0
   -5.6652    5.3112   -3.0044 C   0  0  0  0  0  0  0  0  0  0  0  0
   -5.9251    5.6676   -4.3010 N   0  0  0  0  0  0  0  0  0  0  0  0
   -5.6495    6.9570   -4.7920 C   0  0  0  0  0  0  0  0  0  0  0  0
   -6.5049    7.5473   -5.7173 C   0  0  0  0  0  0  0  0  0  0  0  0
   -6.2856    8.8426   -6.1455 C   0  0  0  0  0  0  0  0  0  0  0  0
   -5.2190    9.5714   -5.6388 C   0  0  0  0  0  0  0  0  0  0  0  0
   -4.9213   11.2643   -6.0361 S   0  0  0  0  0  0  0  0  0  0  0  0
   -6.5473   11.8454   -6.5974 C   0  0  0  0  0  0  0  0  0  0  0  0
   -4.3193    8.9563   -4.7679 C   0  0  0  0  0  0  0  0  0  0  0  0
   -4.5234    7.6595   -4.3574 C   0  0  0  0  0  0  0  0  0  0  0  0
   -6.3803    4.6861   -5.1997 C   0  0  0  0  0  0  0  0  0  0  0  0
   -7.3877    3.7990   -4.8198 C   0  0  0  0  0  0  0  0  0  0  0  0
   -7.8221    2.8313   -5.6961 C   0  0  0  0  0  0  0  0  0  0  0  0
   -7.2658    2.7295   -6.9708 C   0  0  0  0  0  0  0  0  0  0  0  0
   -7.8961    1.4436   -7.9971 S   0  0  0  0  0  0  0  0  0  0  0  0
   -6.9315    1.5873   -9.5281 C   0  0  0  0  0  0  0  0  0  0  0  0
   -6.2751    3.6235   -7.3570 C   0  0  0  0  0  0  0  0  0  0  0  0
   -5.8372    4.5927   -6.4766 C   0  0  0  0  0  0  0  0  0  0  0  0
   -5.2396    4.0266   -2.6211 C   0  0  0  0  0  0  0  0  0  0  0  0
   -4.9188    2.5472   -3.4745 S   0  0  0  0  0  0  0  0  0  0  0  0
   -6.2841    7.4563   -1.9244 C   0  0  0  0  0  0  0  0  0  0  0  0
   -6.3174    8.4547   -0.9761 C   0  0  0  0  0  0  0  0  0  0  0  0
   -5.7016    8.4313    0.3513 C   0  0  0  0  0  0  0  0  0  0  0  0
   -5.1936    7.4807    0.9273 O   0  0  0  0  0  0  0  0  0  0  0  0
   -5.8090    9.8029    0.8825 C   0  0  0  0  0  0  0  0  0  0  0  0
   -5.3405   10.2753    2.1056 C   0  0  0  0  0  0  0  0  0  0  0  0
   -5.5930   11.6084    2.3257 C   0  0  0  0  0  0  0  0  0  0  0  0
   -6.2640   12.4148    1.3983 C   0  0  0  0  0  0  0  0  0  0  0  0
   -6.7320   11.9611    0.1873 C   0  0  0  0  0  0  0  0  0  0  0  0
   -6.4804   10.6096   -0.0579 C   0  0  0  0  0  0  0  0  0  0  0  0
   -6.8388    9.7803   -1.2073 C   0  0  0  0  0  0  0  0  0  0  0  0
   -7.5529   10.2119   -2.2998 C   0  0  0  0  0  0  0  0  0  0  0  0
   -8.0652    9.3926   -3.3219 C   0  0  0  0  0  0  0  0  0  0  0  0
   -8.5613    8.8100   -4.1812 N   0  0  0  0  0  0  0  0  0  0  0  0
   -7.9039   11.5517   -2.5560 C   0  0  0  0  0  0  0  0  0  0  0  0
   -8.1998   12.6160   -2.8726 N   0  0  0  0  0  0  0  0  0  0  0  0
   -6.1562   13.6426    2.2672 C   0  0  0  0  0  0  0  0  0  0  0  0
   -5.0848   14.6967    1.8936 C   0  0  0  0  0  0  0  0  0  0  0  0
   -3.9921   13.9579    1.1615 C   0  0  0  0  0  0  0  0  0  0  0  0
   -3.3581   13.1957    2.0425 C   0  0  0  0  0  0  0  0  0  0  0  0
   -4.0115   13.4045    3.3862 C   0  0  0  0  0  0  0  0  0  0  0  0
   -4.4147   14.8826    3.2644 C   0  0  0  0  0  0  0  0  0  0  0  0
   -5.4096   12.7432    3.3024 C   0  0  0  0  0  0  0  0  0  0  0  0
    9.1780   -9.3251   -1.1683 H   0  0  0  0  0  0  0  0  0  0  0  0
   12.9030  -10.7671    2.3433 H   0  0  0  0  0  0  0  0  0  0  0  0
   10.1684   -7.1976    4.6807 H   0  0  0  0  0  0  0  0  0  0  0  0
   11.8782   -9.1232    6.9711 H   0  0  0  0  0  0  0  0  0  0  0  0
   13.1970   -7.0271    7.2354 H   0  0  0  0  0  0  0  0  0  0  0  0
   13.7539   -6.1897    4.8227 H   0  0  0  0  0  0  0  0  0  0  0  0
   15.2240   -8.0453    3.6168 H   0  0  0  0  0  0  0  0  0  0  0  0
   15.5718  -10.0273    5.2876 H   0  0  0  0  0  0  0  0  0  0  0  0
   15.6217   -8.0829    7.0839 H   0  0  0  0  0  0  0  0  0  0  0  0
   14.5030   -9.3431    7.6617 H   0  0  0  0  0  0  0  0  0  0  0  0
   13.3087  -10.9290    5.8031 H   0  0  0  0  0  0  0  0  0  0  0  0
    7.3096   -7.9455   -2.5717 H   0  0  0  0  0  0  0  0  0  0  0  0
    5.3427   -8.9735   -3.7927 H   0  0  0  0  0  0  0  0  0  0  0  0
    6.1391   -6.1460   -8.3965 H   0  0  0  0  0  0  0  0  0  0  0  0
    6.4270   -7.8912   -8.2494 H   0  0  0  0  0  0  0  0  0  0  0  0
    4.5678   -7.4209   -9.8324 H   0  0  0  0  0  0  0  0  0  0  0  0
    3.9770   -8.3107   -8.4258 H   0  0  0  0  0  0  0  0  0  0  0  0
    3.6837   -6.5729   -8.5598 H   0  0  0  0  0  0  0  0  0  0  0  0
    4.6883   -4.7432   -4.1440 H   0  0  0  0  0  0  0  0  0  0  0  0
    4.1522   -8.8180    2.2448 H   0  0  0  0  0  0  0  0  0  0  0  0
    3.6276   -7.3127    6.6791 H   0  0  0  0  0  0  0  0  0  0  0  0
    3.2049   -5.5940    6.5496 H   0  0  0  0  0  0  0  0  0  0  0  0
    0.8664   -6.2205    5.9430 H   0  0  0  0  0  0  0  0  0  0  0  0
    1.3226   -6.9002    7.5079 H   0  0  0  0  0  0  0  0  0  0  0  0
    1.2892   -7.9324    6.0753 H   0  0  0  0  0  0  0  0  0  0  0  0
    3.2937   -4.6177    1.9575 H   0  0  0  0  0  0  0  0  0  0  0  0
    1.4483   -5.5049    0.6986 H   0  0  0  0  0  0  0  0  0  0  0  0
   -3.6300   -4.3406    0.6436 H   0  0  0  0  0  0  0  0  0  0  0  0
   -4.7089   -2.9325    0.6258 H   0  0  0  0  0  0  0  0  0  0  0  0
   -2.0655   -3.0450    2.1624 H   0  0  0  0  0  0  0  0  0  0  0  0
   -3.6532   -3.3515    2.8814 H   0  0  0  0  0  0  0  0  0  0  0  0
   -3.2658   -1.7539    2.2303 H   0  0  0  0  0  0  0  0  0  0  0  0
   -0.9708   -4.9149    0.2479 H   0  0  0  0  0  0  0  0  0  0  0  0
   -4.8101   -0.3439   -0.1905 H   0  0  0  0  0  0  0  0  0  0  0  0
   -1.7802    2.2419   -1.3190 H   0  0  0  0  0  0  0  0  0  0  0  0
    0.0879    0.7035   -1.1279 H   0  0  0  0  0  0  0  0  0  0  0  0
    1.3641   -1.2053   -1.3223 H   0  0  0  0  0  0  0  0  0  0  0  0
    2.2648   -0.0106   -0.3320 H   0  0  0  0  0  0  0  0  0  0  0  0
    2.6712   -1.7391   -0.2455 H   0  0  0  0  0  0  0  0  0  0  0  0
   -1.2825   -0.4789    2.7418 H   0  0  0  0  0  0  0  0  0  0  0  0
   -3.2463    0.9944    2.4943 H   0  0  0  0  0  0  0  0  0  0  0  0
   -2.6450    3.7827    2.2802 H   0  0  0  0  0  0  0  0  0  0  0  0
   -3.7613    5.1257    4.0088 H   0  0  0  0  0  0  0  0  0  0  0  0
   -4.7225    7.1508    4.9326 H   0  0  0  0  0  0  0  0  0  0  0  0
   -5.3507    7.2601    3.2555 H   0  0  0  0  0  0  0  0  0  0  0  0
   -6.2563    7.9905    4.6114 H   0  0  0  0  0  0  0  0  0  0  0  0
   -7.5708    3.8440    2.5654 H   0  0  0  0  0  0  0  0  0  0  0  0
   -6.4491    2.4943    0.8228 H   0  0  0  0  0  0  0  0  0  0  0  0
   -7.3610    7.0009   -6.0804 H   0  0  0  0  0  0  0  0  0  0  0  0
   -6.9738    9.2806   -6.8490 H   0  0  0  0  0  0  0  0  0  0  0  0
   -7.3087   11.5257   -5.8922 H   0  0  0  0  0  0  0  0  0  0  0  0
   -6.4849   12.9290   -6.6074 H   0  0  0  0  0  0  0  0  0  0  0  0
   -6.7563   11.4795   -7.5985 H   0  0  0  0  0  0  0  0  0  0  0  0
   -3.4651    9.5134   -4.4152 H   0  0  0  0  0  0  0  0  0  0  0  0
   -3.8296    7.1920   -3.6749 H   0  0  0  0  0  0  0  0  0  0  0  0
   -7.8293    3.8816   -3.8380 H   0  0  0  0  0  0  0  0  0  0  0  0
   -8.6014    2.1432   -5.4077 H   0  0  0  0  0  0  0  0  0  0  0  0
   -7.2890    0.7905  -10.1729 H   0  0  0  0  0  0  0  0  0  0  0  0
   -5.8760    1.4440   -9.3162 H   0  0  0  0  0  0  0  0  0  0  0  0
   -7.1161    2.5497   -9.9963 H   0  0  0  0  0  0  0  0  0  0  0  0
   -5.8287    3.5732   -8.3366 H   0  0  0  0  0  0  0  0  0  0  0  0
   -5.0603    5.2800   -6.7771 H   0  0  0  0  0  0  0  0  0  0  0  0
   -6.7409    7.7049   -2.8735 H   0  0  0  0  0  0  0  0  0  0  0  0
   -4.8263    9.6257    2.7965 H   0  0  0  0  0  0  0  0  0  0  0  0
   -7.2483   12.5929   -0.5163 H   0  0  0  0  0  0  0  0  0  0  0  0
   -7.0969   14.0974    2.5713 H   0  0  0  0  0  0  0  0  0  0  0  0
   -5.4765   15.5833    1.4025 H   0  0  0  0  0  0  0  0  0  0  0  0
   -3.8350   14.0192    0.1006 H   0  0  0  0  0  0  0  0  0  0  0  0
   -2.5650   12.4932    1.8646 H   0  0  0  0  0  0  0  0  0  0  0  0
   -3.4263   13.1155    4.2555 H   0  0  0  0  0  0  0  0  0  0  0  0
   -5.1025   15.2104    4.0427 H   0  0  0  0  0  0  0  0  0  0  0  0
   -3.5562   15.5515    3.2264 H   0  0  0  0  0  0  0  0  0  0  0  0
   -5.8651   12.6089    4.2818 H   0  0  0  0  0  0  0  0  0  0  0  0
  1  2  2  0  0  0  0
  2  3  1  0  0  0  0
  3  4  2  0  0  0  0
  3  5  1  0  0  0  0
  5  6  2  0  0  0  0
  6  7  1  0  0  0  0
  7  8  2  0  0  0  0
  8  9  1  0  0  0  0
  9 10  2  0  0  0  0
 10 11  1  0  0  0  0
 11 12  2  0  0  0  0
 12 13  1  0  0  0  0
 13 14  3  0  0  0  0
 12 15  1  0  0  0  0
 15 16  3  0  0  0  0
  8 17  1  0  0  0  0
 17 18  1  0  0  0  0
 18 19  1  0  0  0  0
 19 20  2  0  0  0  0
 20 21  1  0  0  0  0
 21 22  1  0  0  0  0
 21 23  1  0  0  0  0
  1 24  1  0  0  0  0
 24 25  2  0  0  0  0
 25 26  1  0  0  0  0
 26 27  2  0  0  0  0
 27 28  1  0  0  0  0
 28 29  2  0  0  0  0
 29 30  1  0  0  0  0
 30 31  1  0  0  0  0
 30 32  2  0  0  0  0
 32 33  1  0  0  0  0
 33 34  1  0  0  0  0
 32 35  1  0  0  0  0
 35 36  1  0  0  0  0
 35 37  2  0  0  0  0
 27 38  1  0  0  0  0
 38 39  2  0  0  0  0
 39 40  1  0  0  0  0
 40 41  1  0  0  0  0
 41 42  2  0  0  0  0
 42 43  1  0  0  0  0
 43 44  2  0  0  0  0
 44 45  1  0  0  0  0
 45 46  1  0  0  0  0
 44 47  1  0  0  0  0
 47 48  2  0  0  0  0
 47 49  1  0  0  0  0
 43 50  1  0  0  0  0
 40 51  2  0  0  0  0
 51 52  1  0  0  0  0
 39 53  1  0  0  0  0
 53 54  2  0  0  0  0
 54 55  1  0  0  0  0
 54 56  1  0  0  0  0
 56 57  1  0  0  0  0
 57 58  1  0  0  0  0
 58 59  1  0  0  0  0
 59 60  2  0  0  0  0
 60 61  1  0  0  0  0
 61 62  1  0  0  0  0
 62 63  1  0  0  0  0
 61 64  1  0  0  0  0
 64 65  1  0  0  0  0
 60 66  1  0  0  0  0
 66 67  2  0  0  0  0
 67 68  1  0  0  0  0
 67 69  1  0  0  0  0
 69 70  2  0  0  0  0
 70 71  1  0  0  0  0
 71 72  1  0  0  0  0
 72 73  2  0  0  0  0
 73 74  1  0  0  0  0
 74 75  2  0  0  0  0
 75 76  1  0  0  0  0
 76 77  1  0  0  0  0
 75 78  1  0  0  0  0
 78 79  2  0  0  0  0
 71 80  1  0  0  0  0
 80 81  2  0  0  0  0
 81 82  1  0  0  0  0
 82 83  2  0  0  0  0
 83 84  1  0  0  0  0
 84 85  1  0  0  0  0
 83 86  1  0  0  0  0
 86 87  2  0  0  0  0
 70 88  1  0  0  0  0
 88 89  1  0  0  0  0
 89 90  1  0  0  0  0
 90 91  2  0  0  0  0
 91 92  1  0  0  0  0
 92 93  1  0  0  0  0
 93 94  2  0  0  0  0
 94 95  1  0  0  0  0
 95 96  2  0  0  0  0
 96 97  1  0  0  0  0
 97 98  1  0  0  0  0
 96 99  1  0  0  0  0
 99100  2  0  0  0  0
 92101  1  0  0  0  0
101102  2  0  0  0  0
102103  1  0  0  0  0
103104  2  0  0  0  0
104105  1  0  0  0  0
105106  1  0  0  0  0
104107  1  0  0  0  0
107108  2  0  0  0  0
 91109  1  0  0  0  0
109110  1  0  0  0  0
 90111  1  0  0  0  0
111112  2  0  0  0  0
112113  1  0  0  0  0
113114  2  0  0  0  0
113115  1  0  0  0  0
115116  2  0  0  0  0
116117  1  0  0  0  0
117118  2  0  0  0  0
118119  1  0  0  0  0
119120  2  0  0  0  0
120121  1  0  0  0  0
121122  2  0  0  0  0
122123  1  0  0  0  0
123124  3  0  0  0  0
122125  1  0  0  0  0
125126  3  0  0  0  0
118127  1  0  0  0  0
127128  1  0  0  0  0
128129  1  0  0  0  0
129130  2  0  0  0  0
130131  1  0  0  0  0
131132  1  0  0  0  0
131133  1  0  0  0  0
 11  2  1  0  0  0  0
 23 17  1  0  0  0  0
 52 24  1  0  0  0  0
 65 56  2  0  0  0  0
110 69  1  0  0  0  0
121112  1  0  0  0  0
133127  1  0  0  0  0
 10  5  1  0  0  0  0
 22 18  1  0  0  0  0
 51 26  1  0  0  0  0
 64 58  2  0  0  0  0
 79 72  1  0  0  0  0
 87 80  1  0  0  0  0
109 88  2  0  0  0  0
120115  1  0  0  0  0
132128  1  0  0  0  0
 23  7  1  0  0  0  0
 37 28  1  0  0  0  0
 55 38  1  0  0  0  0
 68 59  1  0  0  0  0
100 93  1  0  0  0  0
108101  1  0  0  0  0
133117  1  0  0  0  0
 48 41  1  0  0  0  0
  1134  1  0  0  0  0
  6135  1  0  0  0  0
  9136  1  0  0  0  0
 17137  1  0  0  0  0
 18138  1  0  0  0  0
 19139  1  0  0  0  0
 20140  1  0  0  0  0
 21141  1  0  0  0  0
 22142  1  0  0  0  0
 22143  1  0  0  0  0
 23144  1  0  0  0  0
 25145  1  0  0  0  0
 29146  1  0  0  0  0
 33147  1  0  0  0  0
 33148  1  0  0  0  0
 34149  1  0  0  0  0
 34150  1  0  0  0  0
 34151  1  0  0  0  0
 37152  1  0  0  0  0
 42153  1  0  0  0  0
 45154  1  0  0  0  0
 45155  1  0  0  0  0
 46156  1  0  0  0  0
 46157  1  0  0  0  0
 46158  1  0  0  0  0
 48159  1  0  0  0  0
 53160  1  0  0  0  0
 62161  1  0  0  0  0
 62162  1  0  0  0  0
 63163  1  0  0  0  0
 63164  1  0  0  0  0
 63165  1  0  0  0  0
 65166  1  0  0  0  0
 66167  1  0  0  0  0
 73168  1  0  0  0  0
 74169  1  0  0  0  0
 77170  1  0  0  0  0
 77171  1  0  0  0  0
 77172  1  0  0  0  0
 78173  1  0  0  0  0
 79174  1  0  0  0  0
 81175  1  0  0  0  0
 82176  1  0  0  0  0
 85177  1  0  0  0  0
 85178  1  0  0  0  0
 85179  1  0  0  0  0
 86180  1  0  0  0  0
 87181  1  0  0  0  0
 94182  1  0  0  0  0
 95183  1  0  0  0  0
 98184  1  0  0  0  0
 98185  1  0  0  0  0
 98186  1  0  0  0  0
 99187  1  0  0  0  0
100188  1  0  0  0  0
102189  1  0  0  0  0
103190  1  0  0  0  0
106191  1  0  0  0  0
106192  1  0  0  0  0
106193  1  0  0  0  0
107194  1  0  0  0  0
108195  1  0  0  0  0
111196  1  0  0  0  0
116197  1  0  0  0  0
119198  1  0  0  0  0
127199  1  0  0  0  0
128200  1  0  0  0  0
129201  1  0  0  0  0
130202  1  0  0  0  0
131203  1  0  0  0  0
132204  1  0  0  0  0
132205  1  0  0  0  0
133206  1  0  0  0  0
M  END
