
  xtb     02082204073D
 energy: -373.073198369093 gnorm: 0.000546979971 xtb: 6.4.1 (unknown)
182201  0     0  0            999 V2000
    3.3024    2.3622    5.2926 C   0  0  0  0  0  0  0  0  0  0  0  0
    3.8633    2.7806    4.1372 C   0  0  0  0  0  0  0  0  0  0  0  0
    3.2638    2.5092    2.7935 C   0  0  0  0  0  0  0  0  0  0  0  0
    2.2441    1.8997    2.5490 O   0  0  0  0  0  0  0  0  0  0  0  0
    4.2389    3.0039    1.8146 C   0  0  0  0  0  0  0  0  0  0  0  0
    4.1121    2.9570    0.4283 C   0  0  0  0  0  0  0  0  0  0  0  0
    5.1933    3.4660   -0.2474 C   0  0  0  0  0  0  0  0  0  0  0  0
    6.3233    3.9801    0.4064 C   0  0  0  0  0  0  0  0  0  0  0  0
    6.4584    4.0366    1.7726 C   0  0  0  0  0  0  0  0  0  0  0  0
    5.3677    3.5226    2.4834 C   0  0  0  0  0  0  0  0  0  0  0  0
    5.1622    3.4031    3.9207 C   0  0  0  0  0  0  0  0  0  0  0  0
    6.0159    3.8374    4.8969 C   0  0  0  0  0  0  0  0  0  0  0  0
    7.2674    4.4451    4.6586 C   0  0  0  0  0  0  0  0  0  0  0  0
    8.3006    4.9317    4.5442 N   0  0  0  0  0  0  0  0  0  0  0  0
    5.7720    3.7363    6.2835 C   0  0  0  0  0  0  0  0  0  0  0  0
    5.6513    3.6856    7.4241 N   0  0  0  0  0  0  0  0  0  0  0  0
    7.0279    4.2914   -0.8903 C   0  0  0  0  0  0  0  0  0  0  0  0
    8.1478    3.3254   -1.3527 C   0  0  0  0  0  0  0  0  0  0  0  0
    7.8318    1.9785   -0.7503 C   0  0  0  0  0  0  0  0  0  0  0  0
    6.7573    1.4999   -1.3641 C   0  0  0  0  0  0  0  0  0  0  0  0
    6.3311    2.5142   -2.3971 C   0  0  0  0  0  0  0  0  0  0  0  0
    7.6999    3.0833   -2.8030 C   0  0  0  0  0  0  0  0  0  0  0  0
    5.7663    3.7264   -1.6163 C   0  0  0  0  0  0  0  0  0  0  0  0
    1.9350    1.8816    5.3098 C   0  0  0  0  0  0  0  0  0  0  0  0
    0.9310    2.6937    4.7113 C   0  0  0  0  0  0  0  0  0  0  0  0
    1.1894    3.9743    4.4251 N   0  0  0  0  0  0  0  0  0  0  0  0
    0.2702    4.6996    3.8357 C   0  0  0  0  0  0  0  0  0  0  0  0
    0.6234    6.0974    3.5438 C   0  0  0  0  0  0  0  0  0  0  0  0
   -0.2294    7.1701    3.7762 C   0  0  0  0  0  0  0  0  0  0  0  0
    0.0911    8.4737    3.4190 C   0  0  0  0  0  0  0  0  0  0  0  0
    1.3062    8.7846    2.7994 C   0  0  0  0  0  0  0  0  0  0  0  0
    1.7630    9.9772    2.4014 O   0  0  0  0  0  0  0  0  0  0  0  0
    0.9020   11.1035    2.2594 C   0  0  0  0  0  0  0  0  0  0  0  0
   -0.0627   10.9451    1.0915 C   0  0  0  0  0  0  0  0  0  0  0  0
    2.1818    7.7009    2.6045 C   0  0  0  0  0  0  0  0  0  0  0  0
    1.8589    6.4078    2.9697 C   0  0  0  0  0  0  0  0  0  0  0  0
    2.7469    5.4411    2.7228 F   0  0  0  0  0  0  0  0  0  0  0  0
    3.3694    7.9453    2.0324 F   0  0  0  0  0  0  0  0  0  0  0  0
   -0.8250    9.4259    3.6940 F   0  0  0  0  0  0  0  0  0  0  0  0
   -1.4066    6.9733    4.3938 F   0  0  0  0  0  0  0  0  0  0  0  0
   -1.0002    4.1356    3.5159 C   0  0  0  0  0  0  0  0  0  0  0  0
   -2.0636    4.8617    2.8038 C   0  0  0  0  0  0  0  0  0  0  0  0
   -3.3872    4.7885    3.2488 C   0  0  0  0  0  0  0  0  0  0  0  0
   -3.6848    4.0951    4.3471 F   0  0  0  0  0  0  0  0  0  0  0  0
   -4.4046    5.4547    2.5916 C   0  0  0  0  0  0  0  0  0  0  0  0
   -5.6597    5.3681    3.0528 F   0  0  0  0  0  0  0  0  0  0  0  0
   -4.1786    6.2346    1.4423 C   0  0  0  0  0  0  0  0  0  0  0  0
   -5.2550    6.8230    0.9144 O   0  0  0  0  0  0  0  0  0  0  0  0
   -5.1646    7.5990   -0.2774 C   0  0  0  0  0  0  0  0  0  0  0  0
   -6.5742    8.0523   -0.6155 C   0  0  0  0  0  0  0  0  0  0  0  0
   -2.8543    6.2951    0.9993 C   0  0  0  0  0  0  0  0  0  0  0  0
   -2.5058    7.0207   -0.0869 F   0  0  0  0  0  0  0  0  0  0  0  0
   -1.8373    5.6166    1.6600 C   0  0  0  0  0  0  0  0  0  0  0  0
   -0.6015    5.7026    1.1379 F   0  0  0  0  0  0  0  0  0  0  0  0
   -1.2891    2.9098    3.8710 N   0  0  0  0  0  0  0  0  0  0  0  0
   -0.3536    2.1493    4.4475 C   0  0  0  0  0  0  0  0  0  0  0  0
   -0.6175    0.7889    4.7572 C   0  0  0  0  0  0  0  0  0  0  0  0
    0.3151    0.0980    5.5054 C   0  0  0  0  0  0  0  0  0  0  0  0
    1.5695    0.6418    5.7902 C   0  0  0  0  0  0  0  0  0  0  0  0
   -1.7344    0.0869    4.1366 C   0  0  0  0  0  0  0  0  0  0  0  0
   -2.4276   -0.9686    4.7664 C   0  0  0  0  0  0  0  0  0  0  0  0
   -2.3937   -1.3980    6.0356 N   0  0  0  0  0  0  0  0  0  0  0  0
   -3.1798   -2.4365    6.0501 N   0  0  0  0  0  0  0  0  0  0  0  0
   -3.4600   -3.1452    7.2660 C   0  0  0  0  0  0  0  0  0  0  0  0
   -4.6271   -2.4928    8.0010 C   0  0  0  0  0  0  0  0  0  0  0  0
   -3.7402   -2.7701    4.9211 N   0  0  0  0  0  0  0  0  0  0  0  0
   -3.2975   -1.8526    4.0504 C   0  0  0  0  0  0  0  0  0  0  0  0
   -3.4872   -1.7248    2.6638 C   0  0  0  0  0  0  0  0  0  0  0  0
   -2.8936   -0.6148    2.0999 C   0  0  0  0  0  0  0  0  0  0  0  0
   -2.0507    0.2644    2.8026 C   0  0  0  0  0  0  0  0  0  0  0  0
   -1.4318    1.1843    2.0459 F   0  0  0  0  0  0  0  0  0  0  0  0
   -3.0598   -0.3705    0.7893 F   0  0  0  0  0  0  0  0  0  0  0  0
   -3.9059   -2.8195    1.7807 C   0  0  0  0  0  0  0  0  0  0  0  0
   -2.8537   -3.2863    0.9443 C   0  0  0  0  0  0  0  0  0  0  0  0
   -1.6366   -2.7499    1.0705 N   0  0  0  0  0  0  0  0  0  0  0  0
   -0.6381   -3.2040    0.3624 C   0  0  0  0  0  0  0  0  0  0  0  0
    0.6380   -2.4986    0.5608 C   0  0  0  0  0  0  0  0  0  0  0  0
    1.5175   -2.1762   -0.4722 C   0  0  0  0  0  0  0  0  0  0  0  0
    2.7150   -1.5296   -0.2283 C   0  0  0  0  0  0  0  0  0  0  0  0
    3.1306   -1.1760    1.0679 C   0  0  0  0  0  0  0  0  0  0  0  0
    4.3389   -0.6118    1.1644 O   0  0  0  0  0  0  0  0  0  0  0  0
    4.9689   -0.4565    2.4328 C   0  0  0  0  0  0  0  0  0  0  0  0
    6.3740    0.0569    2.1717 C   0  0  0  0  0  0  0  0  0  0  0  0
    2.2318   -1.4727    2.0973 C   0  0  0  0  0  0  0  0  0  0  0  0
    1.0187   -2.0998    1.8423 C   0  0  0  0  0  0  0  0  0  0  0  0
    0.2375   -2.3708    2.8923 F   0  0  0  0  0  0  0  0  0  0  0  0
    2.5192   -1.1854    3.3820 F   0  0  0  0  0  0  0  0  0  0  0  0
    3.5344   -1.2478   -1.2534 F   0  0  0  0  0  0  0  0  0  0  0  0
    1.2071   -2.4944   -1.7401 F   0  0  0  0  0  0  0  0  0  0  0  0
   -0.8295   -4.3490   -0.4718 C   0  0  0  0  0  0  0  0  0  0  0  0
    0.2886   -5.0566   -1.1142 C   0  0  0  0  0  0  0  0  0  0  0  0
    1.4914   -5.3304   -0.4599 C   0  0  0  0  0  0  0  0  0  0  0  0
    1.6447   -5.0039    0.8343 F   0  0  0  0  0  0  0  0  0  0  0  0
    2.5340   -5.9768   -1.0946 C   0  0  0  0  0  0  0  0  0  0  0  0
    3.6651   -6.2192   -0.4170 F   0  0  0  0  0  0  0  0  0  0  0  0
    2.4592   -6.4034   -2.4341 C   0  0  0  0  0  0  0  0  0  0  0  0
    3.5631   -6.9846   -2.9131 O   0  0  0  0  0  0  0  0  0  0  0  0
    3.5896   -7.6424   -4.1768 C   0  0  0  0  0  0  0  0  0  0  0  0
    2.8605   -8.9792   -4.1469 C   0  0  0  0  0  0  0  0  0  0  0  0
    1.2470   -6.1402   -3.0800 C   0  0  0  0  0  0  0  0  0  0  0  0
    1.0382   -6.5000   -4.3640 F   0  0  0  0  0  0  0  0  0  0  0  0
    0.1981   -5.5008   -2.4298 C   0  0  0  0  0  0  0  0  0  0  0  0
   -0.9182   -5.2962   -3.1321 F   0  0  0  0  0  0  0  0  0  0  0  0
   -2.0296   -4.8478   -0.6500 N   0  0  0  0  0  0  0  0  0  0  0  0
   -3.0750   -4.3119   -0.0065 C   0  0  0  0  0  0  0  0  0  0  0  0
   -4.3969   -4.8161   -0.1751 C   0  0  0  0  0  0  0  0  0  0  0  0
   -5.3692   -4.4069    0.7143 C   0  0  0  0  0  0  0  0  0  0  0  0
   -5.1320   -3.4247    1.6874 C   0  0  0  0  0  0  0  0  0  0  0  0
   -4.6752   -5.7375   -1.2593 C   0  0  0  0  0  0  0  0  0  0  0  0
   -4.2547   -5.5179   -2.5223 C   0  0  0  0  0  0  0  0  0  0  0  0
   -3.6784   -4.2220   -2.9964 C   0  0  0  0  0  0  0  0  0  0  0  0
   -3.6057   -3.1835   -2.3798 O   0  0  0  0  0  0  0  0  0  0  0  0
   -3.3097   -4.4429   -4.4023 C   0  0  0  0  0  0  0  0  0  0  0  0
   -2.6548   -3.5411   -5.2389 C   0  0  0  0  0  0  0  0  0  0  0  0
   -2.3983   -4.0306   -6.4958 C   0  0  0  0  0  0  0  0  0  0  0  0
   -2.7707   -5.3221   -6.8969 C   0  0  0  0  0  0  0  0  0  0  0  0
   -3.4186   -6.2198   -6.0847 C   0  0  0  0  0  0  0  0  0  0  0  0
   -3.6888   -5.7431   -4.7958 C   0  0  0  0  0  0  0  0  0  0  0  0
   -4.3302   -6.4120   -3.6718 C   0  0  0  0  0  0  0  0  0  0  0  0
   -4.8911   -7.6596   -3.6934 C   0  0  0  0  0  0  0  0  0  0  0  0
   -5.5134   -8.2907   -2.5950 C   0  0  0  0  0  0  0  0  0  0  0  0
   -6.0357   -8.8718   -1.7535 N   0  0  0  0  0  0  0  0  0  0  0  0
   -4.9523   -8.4932   -4.8313 C   0  0  0  0  0  0  0  0  0  0  0  0
   -5.0458   -9.2242   -5.7113 N   0  0  0  0  0  0  0  0  0  0  0  0
   -2.1971   -5.1438   -8.2806 C   0  0  0  0  0  0  0  0  0  0  0  0
   -3.2054   -4.8673   -9.4161 C   0  0  0  0  0  0  0  0  0  0  0  0
   -2.3564   -4.2729  -10.5166 C   0  0  0  0  0  0  0  0  0  0  0  0
   -1.9997   -3.0525  -10.1366 C   0  0  0  0  0  0  0  0  0  0  0  0
   -2.6021   -2.8013   -8.7732 C   0  0  0  0  0  0  0  0  0  0  0  0
   -3.9051   -3.5995   -8.9092 C   0  0  0  0  0  0  0  0  0  0  0  0
   -1.7790   -3.7067   -7.8322 C   0  0  0  0  0  0  0  0  0  0  0  0
    3.8519    2.3641    6.2239 H   0  0  0  0  0  0  0  0  0  0  0  0
    3.2256    2.5516   -0.0331 H   0  0  0  0  0  0  0  0  0  0  0  0
    7.3317    4.4375    2.2596 H   0  0  0  0  0  0  0  0  0  0  0  0
    7.2869    5.3355   -1.0525 H   0  0  0  0  0  0  0  0  0  0  0  0
    9.1567    3.6971   -1.1950 H   0  0  0  0  0  0  0  0  0  0  0  0
    8.3759    1.5521    0.0725 H   0  0  0  0  0  0  0  0  0  0  0  0
    6.2135    0.5970   -1.1568 H   0  0  0  0  0  0  0  0  0  0  0  0
    5.6849    2.1463   -3.1893 H   0  0  0  0  0  0  0  0  0  0  0  0
    8.3227    2.3544   -3.3194 H   0  0  0  0  0  0  0  0  0  0  0  0
    7.6330    3.9952   -3.3947 H   0  0  0  0  0  0  0  0  0  0  0  0
    5.1975    4.4030   -2.2505 H   0  0  0  0  0  0  0  0  0  0  0  0
    0.3662   11.3095    3.1898 H   0  0  0  0  0  0  0  0  0  0  0  0
    1.5962   11.9245    2.0658 H   0  0  0  0  0  0  0  0  0  0  0  0
   -0.6096   11.8722    0.9490 H   0  0  0  0  0  0  0  0  0  0  0  0
    0.4886   10.7151    0.1830 H   0  0  0  0  0  0  0  0  0  0  0  0
   -0.7778   10.1474    1.2756 H   0  0  0  0  0  0  0  0  0  0  0  0
   -4.7516    6.9917   -1.0903 H   0  0  0  0  0  0  0  0  0  0  0  0
   -4.5125    8.4641   -0.1123 H   0  0  0  0  0  0  0  0  0  0  0  0
   -7.2138    7.1895   -0.7777 H   0  0  0  0  0  0  0  0  0  0  0  0
   -6.9833    8.6367    0.2035 H   0  0  0  0  0  0  0  0  0  0  0  0
   -6.5570    8.6594   -1.5155 H   0  0  0  0  0  0  0  0  0  0  0  0
    0.1076   -0.9224    5.7853 H   0  0  0  0  0  0  0  0  0  0  0  0
    2.3069    0.0269    6.2842 H   0  0  0  0  0  0  0  0  0  0  0  0
   -3.7017   -4.1748    6.9970 H   0  0  0  0  0  0  0  0  0  0  0  0
   -2.5590   -3.1156    7.8812 H   0  0  0  0  0  0  0  0  0  0  0  0
   -4.8290   -3.0298    8.9232 H   0  0  0  0  0  0  0  0  0  0  0  0
   -5.5197   -2.5124    7.3808 H   0  0  0  0  0  0  0  0  0  0  0  0
   -4.3871   -1.4599    8.2406 H   0  0  0  0  0  0  0  0  0  0  0  0
    5.0011   -1.4230    2.9492 H   0  0  0  0  0  0  0  0  0  0  0  0
    4.4083    0.2534    3.0491 H   0  0  0  0  0  0  0  0  0  0  0  0
    6.3317    0.9930    1.6218 H   0  0  0  0  0  0  0  0  0  0  0  0
    6.9315   -0.6651    1.5816 H   0  0  0  0  0  0  0  0  0  0  0  0
    6.8859    0.2167    3.1162 H   0  0  0  0  0  0  0  0  0  0  0  0
    4.6563   -7.8012   -4.3523 H   0  0  0  0  0  0  0  0  0  0  0  0
    3.1966   -6.9946   -4.9646 H   0  0  0  0  0  0  0  0  0  0  0  0
    3.0224   -9.4964   -5.0878 H   0  0  0  0  0  0  0  0  0  0  0  0
    3.2444   -9.5930   -3.3358 H   0  0  0  0  0  0  0  0  0  0  0  0
    1.7911   -8.8434   -4.0087 H   0  0  0  0  0  0  0  0  0  0  0  0
   -6.3660   -4.8125    0.6181 H   0  0  0  0  0  0  0  0  0  0  0  0
   -5.9369   -3.1116    2.3342 H   0  0  0  0  0  0  0  0  0  0  0  0
   -5.2370   -6.6267   -1.0067 H   0  0  0  0  0  0  0  0  0  0  0  0
   -2.3760   -2.5619   -4.8833 H   0  0  0  0  0  0  0  0  0  0  0  0
   -3.6872   -7.2126   -6.4050 H   0  0  0  0  0  0  0  0  0  0  0  0
   -1.4184   -5.8489   -8.5646 H   0  0  0  0  0  0  0  0  0  0  0  0
   -3.8324   -5.7133   -9.6840 H   0  0  0  0  0  0  0  0  0  0  0  0
   -2.0661   -4.8042  -11.4039 H   0  0  0  0  0  0  0  0  0  0  0  0
   -1.3516   -2.3614  -10.6430 H   0  0  0  0  0  0  0  0  0  0  0  0
   -2.6792   -1.7651   -8.4555 H   0  0  0  0  0  0  0  0  0  0  0  0
   -4.5733   -3.1724   -9.6553 H   0  0  0  0  0  0  0  0  0  0  0  0
   -4.4428   -3.7334   -7.9725 H   0  0  0  0  0  0  0  0  0  0  0  0
   -0.7208   -3.4534   -7.8145 H   0  0  0  0  0  0  0  0  0  0  0  0
  1  2  2  0  0  0  0
  2  3  1  0  0  0  0
  3  4  2  0  0  0  0
  3  5  1  0  0  0  0
  5  6  2  0  0  0  0
  6  7  1  0  0  0  0
  7  8  2  0  0  0  0
  8  9  1  0  0  0  0
  9 10  2  0  0  0  0
 10 11  1  0  0  0  0
 11 12  2  0  0  0  0
 12 13  1  0  0  0  0
 13 14  3  0  0  0  0
 12 15  1  0  0  0  0
 15 16  3  0  0  0  0
  8 17  1  0  0  0  0
 17 18  1  0  0  0  0
 18 19  1  0  0  0  0
 19 20  2  0  0  0  0
 20 21  1  0  0  0  0
 21 22  1  0  0  0  0
 21 23  1  0  0  0  0
  1 24  1  0  0  0  0
 24 25  1  0  0  0  0
 25 26  2  0  0  0  0
 26 27  1  0  0  0  0
 27 28  1  0  0  0  0
 28 29  2  0  0  0  0
 29 30  1  0  0  0  0
 30 31  2  0  0  0  0
 31 32  1  0  0  0  0
 32 33  1  0  0  0  0
 33 34  1  0  0  0  0
 31 35  1  0  0  0  0
 35 36  2  0  0  0  0
 36 37  1  0  0  0  0
 35 38  1  0  0  0  0
 30 39  1  0  0  0  0
 29 40  1  0  0  0  0
 27 41  2  0  0  0  0
 41 42  1  0  0  0  0
 42 43  2  0  0  0  0
 43 44  1  0  0  0  0
 43 45  1  0  0  0  0
 45 46  1  0  0  0  0
 45 47  2  0  0  0  0
 47 48  1  0  0  0  0
 48 49  1  0  0  0  0
 49 50  1  0  0  0  0
 47 51  1  0  0  0  0
 51 52  1  0  0  0  0
 51 53  2  0  0  0  0
 53 54  1  0  0  0  0
 41 55  1  0  0  0  0
 55 56  2  0  0  0  0
 56 57  1  0  0  0  0
 57 58  2  0  0  0  0
 58 59  1  0  0  0  0
 57 60  1  0  0  0  0
 60 61  1  0  0  0  0
 61 62  2  0  0  0  0
 62 63  1  0  0  0  0
 63 64  1  0  0  0  0
 64 65  1  0  0  0  0
 63 66  1  0  0  0  0
 66 67  2  0  0  0  0
 67 68  1  0  0  0  0
 68 69  2  0  0  0  0
 69 70  1  0  0  0  0
 70 71  1  0  0  0  0
 69 72  1  0  0  0  0
 68 73  1  0  0  0  0
 73 74  1  0  0  0  0
 74 75  2  0  0  0  0
 75 76  1  0  0  0  0
 76 77  1  0  0  0  0
 77 78  2  0  0  0  0
 78 79  1  0  0  0  0
 79 80  2  0  0  0  0
 80 81  1  0  0  0  0
 81 82  1  0  0  0  0
 82 83  1  0  0  0  0
 80 84  1  0  0  0  0
 84 85  2  0  0  0  0
 85 86  1  0  0  0  0
 84 87  1  0  0  0  0
 79 88  1  0  0  0  0
 78 89  1  0  0  0  0
 76 90  2  0  0  0  0
 90 91  1  0  0  0  0
 91 92  2  0  0  0  0
 92 93  1  0  0  0  0
 92 94  1  0  0  0  0
 94 95  1  0  0  0  0
 94 96  2  0  0  0  0
 96 97  1  0  0  0  0
 97 98  1  0  0  0  0
 98 99  1  0  0  0  0
 96100  1  0  0  0  0
100101  1  0  0  0  0
100102  2  0  0  0  0
102103  1  0  0  0  0
 90104  1  0  0  0  0
104105  2  0  0  0  0
105106  1  0  0  0  0
106107  2  0  0  0  0
107108  1  0  0  0  0
106109  1  0  0  0  0
109110  2  0  0  0  0
110111  1  0  0  0  0
111112  2  0  0  0  0
111113  1  0  0  0  0
113114  2  0  0  0  0
114115  1  0  0  0  0
115116  2  0  0  0  0
116117  1  0  0  0  0
117118  2  0  0  0  0
118119  1  0  0  0  0
119120  2  0  0  0  0
120121  1  0  0  0  0
121122  3  0  0  0  0
120123  1  0  0  0  0
123124  3  0  0  0  0
116125  1  0  0  0  0
125126  1  0  0  0  0
126127  1  0  0  0  0
127128  2  0  0  0  0
128129  1  0  0  0  0
129130  1  0  0  0  0
129131  1  0  0  0  0
 11  2  1  0  0  0  0
 23 17  1  0  0  0  0
 59 24  2  0  0  0  0
 70 60  2  0  0  0  0
108 73  2  0  0  0  0
119110  1  0  0  0  0
131125  1  0  0  0  0
 10  5  1  0  0  0  0
 22 18  1  0  0  0  0
 56 25  1  0  0  0  0
 67 61  1  0  0  0  0
105 74  1  0  0  0  0
118113  1  0  0  0  0
130126  1  0  0  0  0
 23  7  1  0  0  0  0
 36 28  1  0  0  0  0
 53 42  1  0  0  0  0
 85 77  1  0  0  0  0
102 91  1  0  0  0  0
131115  1  0  0  0  0
  1132  1  0  0  0  0
  6133  1  0  0  0  0
  9134  1  0  0  0  0
 17135  1  0  0  0  0
 18136  1  0  0  0  0
 19137  1  0  0  0  0
 20138  1  0  0  0  0
 21139  1  0  0  0  0
 22140  1  0  0  0  0
 22141  1  0  0  0  0
 23142  1  0  0  0  0
 33143  1  0  0  0  0
 33144  1  0  0  0  0
 34145  1  0  0  0  0
 34146  1  0  0  0  0
 34147  1  0  0  0  0
 49148  1  0  0  0  0
 49149  1  0  0  0  0
 50150  1  0  0  0  0
 50151  1  0  0  0  0
 50152  1  0  0  0  0
 58153  1  0  0  0  0
 59154  1  0  0  0  0
 64155  1  0  0  0  0
 64156  1  0  0  0  0
 65157  1  0  0  0  0
 65158  1  0  0  0  0
 65159  1  0  0  0  0
 82160  1  0  0  0  0
 82161  1  0  0  0  0
 83162  1  0  0  0  0
 83163  1  0  0  0  0
 83164  1  0  0  0  0
 98165  1  0  0  0  0
 98166  1  0  0  0  0
 99167  1  0  0  0  0
 99168  1  0  0  0  0
 99169  1  0  0  0  0
107170  1  0  0  0  0
108171  1  0  0  0  0
109172  1  0  0  0  0
114173  1  0  0  0  0
117174  1  0  0  0  0
125175  1  0  0  0  0
126176  1  0  0  0  0
127177  1  0  0  0  0
128178  1  0  0  0  0
129179  1  0  0  0  0
130180  1  0  0  0  0
130181  1  0  0  0  0
131182  1  0  0  0  0
M  END
