179

C          6.85290       -3.84620       -0.39050
C          7.74450       -3.40160       -1.34160
C          7.59740       -2.22460       -2.19600
O          6.62120       -1.49790       -2.31190
C          8.86750       -2.07790       -2.92720
C          9.20160       -1.07920       -3.83820
C         10.46570       -1.20320       -4.36320
C         11.33290       -2.24350       -4.00670
C         11.01370       -3.23580       -3.10920
C          9.73270       -3.12890       -2.56290
C          9.03550       -3.99240       -1.60850
C          9.52590       -5.17410       -1.10570
C         10.82220       -5.66890       -1.35220
N         11.86670       -6.12600       -1.49310
C          8.80400       -6.09110       -0.31830
N          8.27370       -6.91430        0.28500
C         12.43490       -1.74000       -4.90490
C         13.61700       -0.98810       -4.24490
C         13.08120       -0.37660       -2.97430
C         12.25990        0.60810       -3.31360
C         12.22550        0.68010       -4.82010
C         13.66720        0.25730       -5.14440
C         11.46760       -0.58100       -5.30350
C          5.59250       -3.37200       -0.03330
C          4.78910       -3.98260        0.96340
N          5.19920       -4.95930        1.83440
C          6.47450       -4.95510        2.42410
C          7.09820       -6.16060        2.74830
C          8.34300       -6.15780        3.33620
C          8.99970       -4.95790        3.60250
S         10.59700       -5.08530        4.33740
C         11.17380       -3.36650        4.44300
C          8.37530       -3.75570        3.29220
C          7.12070       -3.75650        2.71680
C          4.25600       -5.91050        2.26470
C          4.15200       -6.25640        3.61170
C          3.21800       -7.18220        4.01530
C          2.36590       -7.78210        3.08790
S          1.20660       -8.94270        3.73120
C          0.29590       -9.51450        2.26870
C          2.47270       -7.44490        1.74520
C          3.41290       -6.51840        1.33980
C          3.48980       -3.44750        0.95620
S          2.05700       -3.76180        1.88230
C          1.21120       -2.47720        1.02900
C          2.02900       -1.79720        0.13280
N          1.69080       -0.63880       -0.54460
C          2.33820       -0.34540       -1.75490
C          2.78610        0.94810       -2.01800
C          3.50860        1.21010       -3.16100
C          3.80040        0.18600       -4.05550
S          4.81250        0.55870       -5.45610
C          5.77080       -0.98040       -5.60500
C          3.29770       -1.08760       -3.83260
C          2.56870       -1.35030       -2.69060
C          0.79140        0.28320        0.00670
C         -0.12620        0.93900       -0.81150
C         -1.12670        1.72100       -0.26740
C         -1.22910        1.85890        1.11000
S         -2.53970        2.71060        1.93210
C         -3.59210        3.31410        0.58380
C         -0.25840        1.28050        1.92620
C          0.74530        0.51140        1.38340
C          3.31510       -2.39260        0.06980
S          4.74110       -2.05510       -0.84620
C         -0.15000       -2.21130        1.36520
S         -1.31930       -1.78140        0.13960
C         -2.47910       -1.42830        1.35970
C         -3.76010       -0.84360        1.26000
C         -4.44260       -0.62830        2.45140
Si        -3.35470       -1.21260        3.88440
C         -4.09700       -2.69290        4.82830
C         -3.12580       -3.26950        5.85340
C         -2.79940        0.23400        4.99480
C         -3.90280        0.70390        5.93710
C         -2.02170       -1.71430        2.63980
C         -0.70750       -2.17720        2.62620
C         -5.66150        0.00830        2.24400
C         -5.91810        0.29160        0.91640
S         -4.61350       -0.25940       -0.11560
C         -7.04940        0.94670        0.36970
C         -7.25340        1.32470       -0.93880
C         -8.46620        1.99160       -1.15760
S         -9.05710        2.47500       -2.71760
C         -8.19670        1.30110       -3.84260
C         -6.93650        1.89570       -4.44320
C         -9.22650        2.13180        0.01090
S         -8.39490        1.39500        1.36850
C        -10.52580        2.60770        0.23240
C        -11.19600        3.57270       -0.47750
C        -10.55120        4.62100       -1.27890
O         -9.36690        4.71290       -1.55480
C        -11.60840        5.60330       -1.58710
C        -11.46720        6.79760       -2.28940
C        -12.62840        7.52610       -2.39500
C        -13.84320        7.10000       -1.84340
C        -13.99780        5.92390       -1.14860
C        -12.82740        5.16960       -1.02750
C        -12.60190        3.88870       -0.36330
C        -13.56560        3.08140        0.18520
C        -13.32150        1.79590        0.71170
N        -13.20350        0.73310        1.13140
C        -14.93460        3.40680        0.25940
N        -16.06000        3.61340        0.35940
C        -14.58200        8.32770       -2.31560
C        -14.87400        9.40690       -1.25180
C        -15.15020       10.65130       -2.06420
C        -13.99930       11.05610       -2.58590
C        -12.92590       10.09200       -2.13470
C        -13.46320        9.73140       -0.74370
C        -13.22700        8.80390       -2.93050
H          7.16890       -4.71190        0.17720
H          8.50530       -0.29180       -4.08150
H         11.69390       -4.02860       -2.84690
H         12.76280       -2.42270       -5.68640
H         14.52700       -1.57420       -4.14860
H         13.30250       -0.74940       -1.99130
H         11.65720        1.22280       -2.67080
H         11.86880        1.61330       -5.24820
H         14.40480        0.98680       -4.81340
H         13.82510        0.02600       -6.19690
H         11.16330       -0.50780       -6.34600
H          6.60840       -7.09480        2.52600
H          8.83050       -7.08880        3.57740
H         11.20520       -2.92400        3.45160
H         12.17740       -3.42210        4.85290
H         10.53510       -2.79680        5.11180
H          8.84800       -2.81000        3.50270
H          6.63900       -2.81700        2.48840
H          4.80270       -5.78950        4.33540
H          3.12940       -7.44930        5.05700
H         -0.22200       -8.68070        1.80370
H          0.97550       -9.99830        1.57330
H         -0.42580      -10.23590        2.63900
H          1.83650       -7.89810        1.00270
H          3.50080       -6.26640        0.29310
H          2.59120        1.73500       -1.30450
H          3.88160        2.20350       -3.35620
H          6.03350       -1.31460       -4.60570
H          5.19990       -1.73660       -6.13650
H          6.66280       -0.73320       -6.17220
H          3.47520       -1.88130       -4.54070
H          2.17930       -2.34260       -2.51510
H         -0.07790        0.79880       -1.88090
H         -1.83670        2.18870       -0.92950
H         -3.94880        2.47870       -0.01120
H         -4.43140        3.80680        1.06500
H         -3.04410        4.02810       -0.02410
H         -0.31000        1.43030        2.99350
H          1.48700        0.06300        2.02680
H         -4.38730       -3.47810        4.12880
H         -5.00800       -2.37630        5.33640
H         -2.84900       -2.51690        6.58720
H         -2.21920       -3.62040        5.36690
H         -3.57600       -4.10830        6.38070
H         -1.93130       -0.06860        5.58140
H         -2.48540        1.07340        4.37240
H         -4.21920       -0.10050        6.59660
H         -4.76710        1.04330        5.37270
H         -3.55360        1.53070        6.55230
H         -0.13980       -2.42580        3.50550
H         -6.35290        0.27500        3.02370
H         -6.52030        1.12830       -1.69970
H         -8.00310        0.38150       -3.29420
H         -8.93020        1.09930       -4.62280
H         -7.17800        2.79690       -5.00130
H         -6.47390        1.17940       -5.11970
H         -6.21660        2.16000       -3.67220
H        -11.02570        2.17290        1.09020
H        -10.51350        7.08830       -2.70130
H        -14.93720        5.60940       -0.72510
H        -15.42280        8.14920       -2.98320
H        -15.62110        9.12800       -0.51380
H        -16.13060       11.06300       -2.21660
H        -13.82640       11.87350       -3.26140
H        -11.89790       10.43860       -2.20020
H        -13.45570       10.58350       -0.06580
H        -12.95540        8.88980       -0.27640
H        -13.16530        8.94510       -4.00800
