
  xtb     02082214453D
 energy: -401.857491644844 gnorm: 0.000285155089 xtb: 6.4.1 (unknown)
238260  0     0  0            999 V2000
   -0.5180   -0.1297   -8.3098 C   0  0  0  0  0  0  0  0  0  0  0  0
   -0.0077    0.9867   -8.9068 C   0  0  0  0  0  0  0  0  0  0  0  0
   -0.4846    2.3560   -8.5785 C   0  0  0  0  0  0  0  0  0  0  0  0
   -1.4702    2.6493   -7.9361 O   0  0  0  0  0  0  0  0  0  0  0  0
    0.3760    3.2727   -9.3403 C   0  0  0  0  0  0  0  0  0  0  0  0
    0.3728    4.6641   -9.2777 C   0  0  0  0  0  0  0  0  0  0  0  0
    1.3112    5.2584  -10.0847 C   0  0  0  0  0  0  0  0  0  0  0  0
    2.1766    4.5253  -10.9093 C   0  0  0  0  0  0  0  0  0  0  0  0
    2.1738    3.1534  -10.9969 C   0  0  0  0  0  0  0  0  0  0  0  0
    1.2342    2.5250  -10.1721 C   0  0  0  0  0  0  0  0  0  0  0  0
    0.9665    1.1021   -9.9697 C   0  0  0  0  0  0  0  0  0  0  0  0
    1.5896    0.0639  -10.6137 C   0  0  0  0  0  0  0  0  0  0  0  0
    1.3412   -1.2977  -10.3454 C   0  0  0  0  0  0  0  0  0  0  0  0
    1.1910   -2.4217  -10.1636 N   0  0  0  0  0  0  0  0  0  0  0  0
    2.5539    0.2143  -11.6307 C   0  0  0  0  0  0  0  0  0  0  0  0
    3.3376    0.2655  -12.4684 N   0  0  0  0  0  0  0  0  0  0  0  0
    2.8642    5.7667  -11.4242 C   0  0  0  0  0  0  0  0  0  0  0  0
    4.2508    6.0816  -10.8238 C   0  0  0  0  0  0  0  0  0  0  0  0
    4.4538    7.5493  -11.1244 C   0  0  0  0  0  0  0  0  0  0  0  0
    3.6338    8.2393  -10.3417 C   0  0  0  0  0  0  0  0  0  0  0  0
    2.8609    7.2500   -9.5004 C   0  0  0  0  0  0  0  0  0  0  0  0
    3.9285    6.1615   -9.3262 C   0  0  0  0  0  0  0  0  0  0  0  0
    1.8987    6.5815  -10.5048 C   0  0  0  0  0  0  0  0  0  0  0  0
   -1.0623   -0.0507   -7.0038 C   0  0  0  0  0  0  0  0  0  0  0  0
   -0.5688    0.7665   -5.9913 C   0  0  0  0  0  0  0  0  0  0  0  0
    0.6875    1.4185   -6.0201 N   0  0  0  0  0  0  0  0  0  0  0  0
    1.5767    0.6668   -5.1999 C   0  0  0  0  0  0  0  0  0  0  0  0
    2.1676    1.2058   -4.0616 C   0  0  0  0  0  0  0  0  0  0  0  0
    2.8878    0.4037   -3.1978 C   0  0  0  0  0  0  0  0  0  0  0  0
    3.0142   -0.9560   -3.4467 C   0  0  0  0  0  0  0  0  0  0  0  0
    3.8171   -2.0876   -2.3560 S   0  0  0  0  0  0  0  0  0  0  0  0
    4.0354   -1.1281   -0.8282 C   0  0  0  0  0  0  0  0  0  0  0  0
    2.4720   -1.4898   -4.6139 C   0  0  0  0  0  0  0  0  0  0  0  0
    1.7660   -0.6870   -5.4819 C   0  0  0  0  0  0  0  0  0  0  0  0
    0.8247    2.8128   -5.9996 C   0  0  0  0  0  0  0  0  0  0  0  0
    2.0792    3.3468   -6.2849 C   0  0  0  0  0  0  0  0  0  0  0  0
    2.2952    4.7077   -6.2337 C   0  0  0  0  0  0  0  0  0  0  0  0
    1.2499    5.5589   -5.9059 C   0  0  0  0  0  0  0  0  0  0  0  0
    1.4401    7.3167   -5.8193 S   0  0  0  0  0  0  0  0  0  0  0  0
    3.2211    7.5170   -5.5133 C   0  0  0  0  0  0  0  0  0  0  0  0
   -0.0130    5.0344   -5.6531 C   0  0  0  0  0  0  0  0  0  0  0  0
   -0.2263    3.6726   -5.6918 C   0  0  0  0  0  0  0  0  0  0  0  0
   -1.2141    0.4977   -4.7746 C   0  0  0  0  0  0  0  0  0  0  0  0
   -1.0384    1.1954   -3.2160 S   0  0  0  0  0  0  0  0  0  0  0  0
   -2.0798   -0.0462   -2.5397 C   0  0  0  0  0  0  0  0  0  0  0  0
   -2.5943   -0.8989   -3.5086 C   0  0  0  0  0  0  0  0  0  0  0  0
   -3.4321   -1.9628   -3.2205 N   0  0  0  0  0  0  0  0  0  0  0  0
   -4.5232   -1.7536   -2.3668 C   0  0  0  0  0  0  0  0  0  0  0  0
   -5.2441   -0.5619   -2.4412 C   0  0  0  0  0  0  0  0  0  0  0  0
   -6.3213   -0.3521   -1.6125 C   0  0  0  0  0  0  0  0  0  0  0  0
   -6.6827   -1.3092   -0.6678 C   0  0  0  0  0  0  0  0  0  0  0  0
   -8.0460   -0.8984    0.3802 S   0  0  0  0  0  0  0  0  0  0  0  0
   -8.4259   -2.4492    1.2401 C   0  0  0  0  0  0  0  0  0  0  0  0
   -5.9660   -2.4948   -0.5856 C   0  0  0  0  0  0  0  0  0  0  0  0
   -4.9011   -2.7184   -1.4377 C   0  0  0  0  0  0  0  0  0  0  0  0
   -3.2097   -3.1867   -3.8602 C   0  0  0  0  0  0  0  0  0  0  0  0
   -4.2714   -4.0137   -4.2154 C   0  0  0  0  0  0  0  0  0  0  0  0
   -4.0443   -5.2077   -4.8719 C   0  0  0  0  0  0  0  0  0  0  0  0
   -2.7504   -5.5830   -5.2074 C   0  0  0  0  0  0  0  0  0  0  0  0
   -2.3446   -7.0893   -6.0384 S   0  0  0  0  0  0  0  0  0  0  0  0
   -3.9324   -7.6425   -6.7232 C   0  0  0  0  0  0  0  0  0  0  0  0
   -1.6847   -4.7583   -4.8533 C   0  0  0  0  0  0  0  0  0  0  0  0
   -1.9082   -3.5824   -4.1744 C   0  0  0  0  0  0  0  0  0  0  0  0
   -2.1133   -0.5591   -4.7970 C   0  0  0  0  0  0  0  0  0  0  0  0
   -2.2602   -1.1901   -6.4033 S   0  0  0  0  0  0  0  0  0  0  0  0
   -2.0381   -0.2002   -1.1254 C   0  0  0  0  0  0  0  0  0  0  0  0
   -1.7187    0.8062   -0.2234 C   0  0  0  0  0  0  0  0  0  0  0  0
   -1.8996    2.1610   -0.5383 N   0  0  0  0  0  0  0  0  0  0  0  0
   -3.2432    2.4959   -0.8134 C   0  0  0  0  0  0  0  0  0  0  0  0
   -4.2180    2.1218    0.1068 C   0  0  0  0  0  0  0  0  0  0  0  0
   -5.5519    2.3973   -0.1172 C   0  0  0  0  0  0  0  0  0  0  0  0
   -5.9344    3.0517   -1.2803 C   0  0  0  0  0  0  0  0  0  0  0  0
   -7.6079    3.4367   -1.6900 S   0  0  0  0  0  0  0  0  0  0  0  0
   -8.5447    2.9700   -0.2068 C   0  0  0  0  0  0  0  0  0  0  0  0
   -4.9643    3.4134   -2.2135 C   0  0  0  0  0  0  0  0  0  0  0  0
   -3.6336    3.1378   -1.9874 C   0  0  0  0  0  0  0  0  0  0  0  0
   -0.8374    3.0174   -0.7923 C   0  0  0  0  0  0  0  0  0  0  0  0
    0.4716    2.5326   -0.8633 C   0  0  0  0  0  0  0  0  0  0  0  0
    1.5064    3.3668   -1.2219 C   0  0  0  0  0  0  0  0  0  0  0  0
    1.2671    4.7023   -1.5308 C   0  0  0  0  0  0  0  0  0  0  0  0
    2.6433    5.6502   -2.1096 S   0  0  0  0  0  0  0  0  0  0  0  0
    2.0311    7.3601   -2.0758 C   0  0  0  0  0  0  0  0  0  0  0  0
   -0.0172    5.2071   -1.3941 C   0  0  0  0  0  0  0  0  0  0  0  0
   -1.0509    4.3784   -1.0068 C   0  0  0  0  0  0  0  0  0  0  0  0
   -1.3280    0.2728    1.0192 C   0  0  0  0  0  0  0  0  0  0  0  0
   -0.7669    0.9378    2.5064 S   0  0  0  0  0  0  0  0  0  0  0  0
   -0.5378   -0.6773    3.1851 C   0  0  0  0  0  0  0  0  0  0  0  0
   -0.9488   -1.6766    2.3029 C   0  0  0  0  0  0  0  0  0  0  0  0
   -0.9009   -3.0526    2.4664 N   0  0  0  0  0  0  0  0  0  0  0  0
   -0.5525   -3.7837    1.3068 C   0  0  0  0  0  0  0  0  0  0  0  0
   -1.3527   -4.8165    0.8325 C   0  0  0  0  0  0  0  0  0  0  0  0
   -1.0229   -5.4804   -0.3333 C   0  0  0  0  0  0  0  0  0  0  0  0
    0.1110   -5.1147   -1.0479 C   0  0  0  0  0  0  0  0  0  0  0  0
    0.6197   -5.8724   -2.5526 S   0  0  0  0  0  0  0  0  0  0  0  0
   -0.5437   -7.2467   -2.7701 C   0  0  0  0  0  0  0  0  0  0  0  0
    0.9181   -4.0811   -0.5719 C   0  0  0  0  0  0  0  0  0  0  0  0
    0.5929   -3.4274    0.5945 C   0  0  0  0  0  0  0  0  0  0  0  0
   -1.3538   -3.7185    3.6005 C   0  0  0  0  0  0  0  0  0  0  0  0
   -0.9274   -5.0265    3.8527 C   0  0  0  0  0  0  0  0  0  0  0  0
   -1.3410   -5.6865    4.9861 C   0  0  0  0  0  0  0  0  0  0  0  0
   -2.1654   -5.0540    5.9128 C   0  0  0  0  0  0  0  0  0  0  0  0
   -2.6073   -5.9711    7.3563 S   0  0  0  0  0  0  0  0  0  0  0  0
   -2.9246   -4.6629    8.5758 C   0  0  0  0  0  0  0  0  0  0  0  0
   -2.6105   -3.7643    5.6590 C   0  0  0  0  0  0  0  0  0  0  0  0
   -2.2161   -3.1066    4.5104 C   0  0  0  0  0  0  0  0  0  0  0  0
   -1.3769   -1.1128    1.0753 C   0  0  0  0  0  0  0  0  0  0  0  0
   -1.9631   -1.7958   -0.4067 S   0  0  0  0  0  0  0  0  0  0  0  0
    0.0769   -0.7344    4.4669 C   0  0  0  0  0  0  0  0  0  0  0  0
    0.4499   -1.7977    5.2434 C   0  0  0  0  0  0  0  0  0  0  0  0
    1.0705   -1.4304    6.4618 C   0  0  0  0  0  0  0  0  0  0  0  0
    1.5309   -2.2696    7.4891 C   0  0  0  0  0  0  0  0  0  0  0  0
    1.3542   -3.7279    7.4398 C   0  0  0  0  0  0  0  0  0  0  0  0
    0.7706   -4.3847    8.5198 C   0  0  0  0  0  0  0  0  0  0  0  0
    0.5960   -5.7520    8.4756 C   0  0  0  0  0  0  0  0  0  0  0  0
    0.0220   -6.3539    9.5351 F   0  0  0  0  0  0  0  0  0  0  0  0
    0.9707   -6.5328    7.3872 C   0  0  0  0  0  0  0  0  0  0  0  0
    0.7742   -8.0191    7.3787 C   0  0  0  0  0  0  0  0  0  0  0  0
    1.8487   -8.7132    8.2182 C   0  0  0  0  0  0  0  0  0  0  0  0
    1.5564   -5.8413    6.3343 C   0  0  0  0  0  0  0  0  0  0  0  0
    1.9484   -6.5331    5.2428 F   0  0  0  0  0  0  0  0  0  0  0  0
    1.7536   -4.4743    6.3373 C   0  0  0  0  0  0  0  0  0  0  0  0
    2.1333   -1.6600    8.5824 C   0  0  0  0  0  0  0  0  0  0  0  0
    2.2990   -0.2535    8.6845 C   0  0  0  0  0  0  0  0  0  0  0  0
    1.8050    0.5933    7.6709 C   0  0  0  0  0  0  0  0  0  0  0  0
    1.9629    2.0521    7.7359 C   0  0  0  0  0  0  0  0  0  0  0  0
    3.2165    2.6165    7.9525 C   0  0  0  0  0  0  0  0  0  0  0  0
    3.3482    3.9904    7.9815 C   0  0  0  0  0  0  0  0  0  0  0  0
    2.2792    4.8637    7.8139 C   0  0  0  0  0  0  0  0  0  0  0  0
    2.4513    6.3533    7.8072 C   0  0  0  0  0  0  0  0  0  0  0  0
    2.6856    6.8563    6.3806 C   0  0  0  0  0  0  0  0  0  0  0  0
    1.0449    4.2596    7.6001 C   0  0  0  0  0  0  0  0  0  0  0  0
    0.8678    2.8914    7.5573 C   0  0  0  0  0  0  0  0  0  0  0  0
   -0.0364    5.0478    7.4365 F   0  0  0  0  0  0  0  0  0  0  0  0
    4.5771    4.5069    8.1889 F   0  0  0  0  0  0  0  0  0  0  0  0
    1.1866   -0.0204    6.5989 C   0  0  0  0  0  0  0  0  0  0  0  0
    0.5031    0.7984    5.2218 S   0  0  0  0  0  0  0  0  0  0  0  0
    2.9478    0.1013    9.8804 C   0  0  0  0  0  0  0  0  0  0  0  0
    3.3087   -0.9748   10.6645 C   0  0  0  0  0  0  0  0  0  0  0  0
    2.8255   -2.4968    9.9450 S   0  0  0  0  0  0  0  0  0  0  0  0
    3.9865   -0.8195   11.8965 C   0  0  0  0  0  0  0  0  0  0  0  0
    4.4371   -1.7515   12.7771 C   0  0  0  0  0  0  0  0  0  0  0  0
    5.2733   -1.2786   14.2465 S   0  0  0  0  0  0  0  0  0  0  0  0
    5.5008   -2.9541   14.7267 C   0  0  0  0  0  0  0  0  0  0  0  0
    6.2638   -3.4232   16.0891 S   0  0  0  0  0  0  0  0  0  0  0  0
    4.9596   -3.7825   13.7974 N   0  0  0  0  0  0  0  0  0  0  0  0
    4.9784   -5.2253   13.9485 C   0  0  0  0  0  0  0  0  0  0  0  0
    3.8286   -5.7027   14.8261 C   0  0  0  0  0  0  0  0  0  0  0  0
    4.3486   -3.2036   12.7006 C   0  0  0  0  0  0  0  0  0  0  0  0
    3.8320   -3.8602   11.8186 O   0  0  0  0  0  0  0  0  0  0  0  0
   -0.4564   -1.1056   -8.7714 H   0  0  0  0  0  0  0  0  0  0  0  0
   -0.3110    5.1885   -8.6295 H   0  0  0  0  0  0  0  0  0  0  0  0
    2.8377    2.6047  -11.6442 H   0  0  0  0  0  0  0  0  0  0  0  0
    2.8197    5.9250  -12.4998 H   0  0  0  0  0  0  0  0  0  0  0  0
    5.0441    5.4049  -11.1301 H   0  0  0  0  0  0  0  0  0  0  0  0
    5.1114    7.9190  -11.8891 H   0  0  0  0  0  0  0  0  0  0  0  0
    3.4690    9.3007  -10.3226 H   0  0  0  0  0  0  0  0  0  0  0  0
    2.3775    7.6366   -8.6073 H   0  0  0  0  0  0  0  0  0  0  0  0
    4.7832    6.5072   -8.7448 H   0  0  0  0  0  0  0  0  0  0  0  0
    3.5488    5.2316   -8.9068 H   0  0  0  0  0  0  0  0  0  0  0  0
    1.2083    7.2854  -10.9650 H   0  0  0  0  0  0  0  0  0  0  0  0
    2.0380    2.2523   -3.8296 H   0  0  0  0  0  0  0  0  0  0  0  0
    3.3243    0.8510   -2.3197 H   0  0  0  0  0  0  0  0  0  0  0  0
    4.3814   -1.8383   -0.0836 H   0  0  0  0  0  0  0  0  0  0  0  0
    4.7841   -0.3542   -0.9713 H   0  0  0  0  0  0  0  0  0  0  0  0
    3.0834   -0.7031   -0.5235 H   0  0  0  0  0  0  0  0  0  0  0  0
    2.5941   -2.5419   -4.8201 H   0  0  0  0  0  0  0  0  0  0  0  0
    1.3356   -1.1143   -6.3748 H   0  0  0  0  0  0  0  0  0  0  0  0
    2.8918    2.6797   -6.5335 H   0  0  0  0  0  0  0  0  0  0  0  0
    3.2790    5.0925   -6.4474 H   0  0  0  0  0  0  0  0  0  0  0  0
    3.3529    8.5452   -5.1907 H   0  0  0  0  0  0  0  0  0  0  0  0
    3.5268    6.8329   -4.7273 H   0  0  0  0  0  0  0  0  0  0  0  0
    3.7850    7.3460   -6.4257 H   0  0  0  0  0  0  0  0  0  0  0  0
   -0.8241    5.7039   -5.4093 H   0  0  0  0  0  0  0  0  0  0  0  0
   -1.2074    3.2729   -5.4889 H   0  0  0  0  0  0  0  0  0  0  0  0
   -4.9674    0.1915   -3.1634 H   0  0  0  0  0  0  0  0  0  0  0  0
   -6.9029    0.5502   -1.7027 H   0  0  0  0  0  0  0  0  0  0  0  0
   -9.3361   -2.2594    1.8005 H   0  0  0  0  0  0  0  0  0  0  0  0
   -8.5962   -3.2373    0.5127 H   0  0  0  0  0  0  0  0  0  0  0  0
   -7.6211   -2.7071    1.9226 H   0  0  0  0  0  0  0  0  0  0  0  0
   -6.2205   -3.2523    0.1385 H   0  0  0  0  0  0  0  0  0  0  0  0
   -4.3454   -3.6423   -1.3752 H   0  0  0  0  0  0  0  0  0  0  0  0
   -5.2826   -3.7159   -3.9810 H   0  0  0  0  0  0  0  0  0  0  0  0
   -4.8874   -5.8300   -5.1260 H   0  0  0  0  0  0  0  0  0  0  0  0
   -4.5857   -7.9954   -5.9303 H   0  0  0  0  0  0  0  0  0  0  0  0
   -3.6930   -8.4632   -7.3921 H   0  0  0  0  0  0  0  0  0  0  0  0
   -4.3898   -6.8309   -7.2809 H   0  0  0  0  0  0  0  0  0  0  0  0
   -0.6795   -5.0555   -5.1069 H   0  0  0  0  0  0  0  0  0  0  0  0
   -1.0711   -2.9660   -3.8817 H   0  0  0  0  0  0  0  0  0  0  0  0
   -3.9257    1.6130    1.0135 H   0  0  0  0  0  0  0  0  0  0  0  0
   -6.2789    2.0915    0.6173 H   0  0  0  0  0  0  0  0  0  0  0  0
   -9.5718    3.2543   -0.4138 H   0  0  0  0  0  0  0  0  0  0  0  0
   -8.1739    3.5240    0.6504 H   0  0  0  0  0  0  0  0  0  0  0  0
   -8.4870    1.8974   -0.0411 H   0  0  0  0  0  0  0  0  0  0  0  0
   -5.2709    3.9065   -3.1234 H   0  0  0  0  0  0  0  0  0  0  0  0
   -2.8923    3.4123   -2.7223 H   0  0  0  0  0  0  0  0  0  0  0  0
    0.6680    1.4898   -0.6616 H   0  0  0  0  0  0  0  0  0  0  0  0
    2.5152    2.9883   -1.2851 H   0  0  0  0  0  0  0  0  0  0  0  0
    1.6235    7.5806   -1.0940 H   0  0  0  0  0  0  0  0  0  0  0  0
    1.2910    7.5087   -2.8574 H   0  0  0  0  0  0  0  0  0  0  0  0
    2.8967    7.9880   -2.2636 H   0  0  0  0  0  0  0  0  0  0  0  0
   -0.2333    6.2444   -1.5921 H   0  0  0  0  0  0  0  0  0  0  0  0
   -2.0399    4.7928   -0.8876 H   0  0  0  0  0  0  0  0  0  0  0  0
   -2.2437   -5.0939    1.3765 H   0  0  0  0  0  0  0  0  0  0  0  0
   -1.6666   -6.2723   -0.6801 H   0  0  0  0  0  0  0  0  0  0  0  0
   -1.5531   -6.8643   -2.8889 H   0  0  0  0  0  0  0  0  0  0  0  0
   -0.2389   -7.7474   -3.6837 H   0  0  0  0  0  0  0  0  0  0  0  0
   -0.4693   -7.9291   -1.9287 H   0  0  0  0  0  0  0  0  0  0  0  0
    1.8003   -3.8063   -1.1296 H   0  0  0  0  0  0  0  0  0  0  0  0
    1.2192   -2.6287    0.9649 H   0  0  0  0  0  0  0  0  0  0  0  0
   -0.2542   -5.5136    3.1643 H   0  0  0  0  0  0  0  0  0  0  0  0
   -1.0186   -6.6982    5.1735 H   0  0  0  0  0  0  0  0  0  0  0  0
   -2.1610   -3.8969    8.4797 H   0  0  0  0  0  0  0  0  0  0  0  0
   -2.8542   -5.1407    9.5479 H   0  0  0  0  0  0  0  0  0  0  0  0
   -3.9191   -4.2475    8.4396 H   0  0  0  0  0  0  0  0  0  0  0  0
   -3.2755   -3.2648    6.3457 H   0  0  0  0  0  0  0  0  0  0  0  0
   -2.5775   -2.1081    4.3169 H   0  0  0  0  0  0  0  0  0  0  0  0
    0.3004   -2.8207    4.9645 H   0  0  0  0  0  0  0  0  0  0  0  0
    0.4449   -3.8401    9.3915 H   0  0  0  0  0  0  0  0  0  0  0  0
   -0.2114   -8.2471    7.7904 H   0  0  0  0  0  0  0  0  0  0  0  0
    0.8201   -8.3871    6.3528 H   0  0  0  0  0  0  0  0  0  0  0  0
    1.8067   -8.3695    9.2487 H   0  0  0  0  0  0  0  0  0  0  0  0
    1.6939   -9.7890    8.2046 H   0  0  0  0  0  0  0  0  0  0  0  0
    2.8383   -8.4991    7.8201 H   0  0  0  0  0  0  0  0  0  0  0  0
    2.2400   -4.0094    5.4947 H   0  0  0  0  0  0  0  0  0  0  0  0
    4.0916    1.9970    8.0691 H   0  0  0  0  0  0  0  0  0  0  0  0
    3.3035    6.6237    8.4324 H   0  0  0  0  0  0  0  0  0  0  0  0
    1.5536    6.8228    8.2131 H   0  0  0  0  0  0  0  0  0  0  0  0
    1.8405    6.6015    5.7451 H   0  0  0  0  0  0  0  0  0  0  0  0
    2.8063    7.9364    6.3821 H   0  0  0  0  0  0  0  0  0  0  0  0
    3.5834    6.4067    5.9623 H   0  0  0  0  0  0  0  0  0  0  0  0
   -0.1210    2.4916    7.3999 H   0  0  0  0  0  0  0  0  0  0  0  0
    3.1425    1.1179   10.1726 H   0  0  0  0  0  0  0  0  0  0  0  0
    4.1771    0.2141   12.1642 H   0  0  0  0  0  0  0  0  0  0  0  0
    5.9378   -5.5055   14.3893 H   0  0  0  0  0  0  0  0  0  0  0  0
    4.8894   -5.6427   12.9428 H   0  0  0  0  0  0  0  0  0  0  0  0
    3.8620   -6.7848   14.9097 H   0  0  0  0  0  0  0  0  0  0  0  0
    3.9095   -5.2734   15.8220 H   0  0  0  0  0  0  0  0  0  0  0  0
    2.8756   -5.4146   14.3888 H   0  0  0  0  0  0  0  0  0  0  0  0
  1  2  2  0  0  0  0
  2  3  1  0  0  0  0
  3  4  2  0  0  0  0
  3  5  1  0  0  0  0
  5  6  2  0  0  0  0
  6  7  1  0  0  0  0
  7  8  2  0  0  0  0
  8  9  1  0  0  0  0
  9 10  2  0  0  0  0
 10 11  1  0  0  0  0
 11 12  2  0  0  0  0
 12 13  1  0  0  0  0
 13 14  3  0  0  0  0
 12 15  1  0  0  0  0
 15 16  3  0  0  0  0
  8 17  1  0  0  0  0
 17 18  1  0  0  0  0
 18 19  1  0  0  0  0
 19 20  2  0  0  0  0
 20 21  1  0  0  0  0
 21 22  1  0  0  0  0
 21 23  1  0  0  0  0
  1 24  1  0  0  0  0
 24 25  2  0  0  0  0
 25 26  1  0  0  0  0
 26 27  1  0  0  0  0
 27 28  2  0  0  0  0
 28 29  1  0  0  0  0
 29 30  2  0  0  0  0
 30 31  1  0  0  0  0
 31 32  1  0  0  0  0
 30 33  1  0  0  0  0
 33 34  2  0  0  0  0
 26 35  1  0  0  0  0
 35 36  2  0  0  0  0
 36 37  1  0  0  0  0
 37 38  2  0  0  0  0
 38 39  1  0  0  0  0
 39 40  1  0  0  0  0
 38 41  1  0  0  0  0
 41 42  2  0  0  0  0
 25 43  1  0  0  0  0
 43 44  1  0  0  0  0
 44 45  1  0  0  0  0
 45 46  2  0  0  0  0
 46 47  1  0  0  0  0
 47 48  1  0  0  0  0
 48 49  2  0  0  0  0
 49 50  1  0  0  0  0
 50 51  2  0  0  0  0
 51 52  1  0  0  0  0
 52 53  1  0  0  0  0
 51 54  1  0  0  0  0
 54 55  2  0  0  0  0
 47 56  1  0  0  0  0
 56 57  2  0  0  0  0
 57 58  1  0  0  0  0
 58 59  2  0  0  0  0
 59 60  1  0  0  0  0
 60 61  1  0  0  0  0
 59 62  1  0  0  0  0
 62 63  2  0  0  0  0
 46 64  1  0  0  0  0
 64 65  1  0  0  0  0
 45 66  1  0  0  0  0
 66 67  2  0  0  0  0
 67 68  1  0  0  0  0
 68 69  1  0  0  0  0
 69 70  2  0  0  0  0
 70 71  1  0  0  0  0
 71 72  2  0  0  0  0
 72 73  1  0  0  0  0
 73 74  1  0  0  0  0
 72 75  1  0  0  0  0
 75 76  2  0  0  0  0
 68 77  1  0  0  0  0
 77 78  2  0  0  0  0
 78 79  1  0  0  0  0
 79 80  2  0  0  0  0
 80 81  1  0  0  0  0
 81 82  1  0  0  0  0
 80 83  1  0  0  0  0
 83 84  2  0  0  0  0
 67 85  1  0  0  0  0
 85 86  1  0  0  0  0
 86 87  1  0  0  0  0
 87 88  2  0  0  0  0
 88 89  1  0  0  0  0
 89 90  1  0  0  0  0
 90 91  2  0  0  0  0
 91 92  1  0  0  0  0
 92 93  2  0  0  0  0
 93 94  1  0  0  0  0
 94 95  1  0  0  0  0
 93 96  1  0  0  0  0
 96 97  2  0  0  0  0
 89 98  1  0  0  0  0
 98 99  2  0  0  0  0
 99100  1  0  0  0  0
100101  2  0  0  0  0
101102  1  0  0  0  0
102103  1  0  0  0  0
101104  1  0  0  0  0
104105  2  0  0  0  0
 88106  1  0  0  0  0
106107  1  0  0  0  0
 87108  1  0  0  0  0
108109  2  0  0  0  0
109110  1  0  0  0  0
110111  2  0  0  0  0
111112  1  0  0  0  0
112113  2  0  0  0  0
113114  1  0  0  0  0
114115  1  0  0  0  0
114116  2  0  0  0  0
116117  1  0  0  0  0
117118  1  0  0  0  0
116119  1  0  0  0  0
119120  1  0  0  0  0
119121  2  0  0  0  0
111122  1  0  0  0  0
122123  2  0  0  0  0
123124  1  0  0  0  0
124125  1  0  0  0  0
125126  2  0  0  0  0
126127  1  0  0  0  0
127128  2  0  0  0  0
128129  1  0  0  0  0
129130  1  0  0  0  0
128131  1  0  0  0  0
131132  2  0  0  0  0
131133  1  0  0  0  0
127134  1  0  0  0  0
124135  2  0  0  0  0
135136  1  0  0  0  0
123137  1  0  0  0  0
137138  2  0  0  0  0
138139  1  0  0  0  0
138140  1  0  0  0  0
140141  2  0  0  0  0
141142  1  0  0  0  0
142143  1  0  0  0  0
143144  2  0  0  0  0
143145  1  0  0  0  0
145146  1  0  0  0  0
146147  1  0  0  0  0
145148  1  0  0  0  0
148149  2  0  0  0  0
 11  2  1  0  0  0  0
 23 17  1  0  0  0  0
 65 24  1  0  0  0  0
107 66  1  0  0  0  0
136108  1  0  0  0  0
148141  1  0  0  0  0
 10  5  1  0  0  0  0
 22 18  1  0  0  0  0
 34 27  1  0  0  0  0
 42 35  1  0  0  0  0
 64 43  2  0  0  0  0
 76 69  1  0  0  0  0
 84 77  1  0  0  0  0
106 85  2  0  0  0  0
135110  1  0  0  0  0
 23  7  1  0  0  0  0
 55 48  1  0  0  0  0
 63 56  1  0  0  0  0
 97 90  1  0  0  0  0
105 98  1  0  0  0  0
121112  1  0  0  0  0
139122  1  0  0  0  0
132125  1  0  0  0  0
  1150  1  0  0  0  0
  6151  1  0  0  0  0
  9152  1  0  0  0  0
 17153  1  0  0  0  0
 18154  1  0  0  0  0
 19155  1  0  0  0  0
 20156  1  0  0  0  0
 21157  1  0  0  0  0
 22158  1  0  0  0  0
 22159  1  0  0  0  0
 23160  1  0  0  0  0
 28161  1  0  0  0  0
 29162  1  0  0  0  0
 32163  1  0  0  0  0
 32164  1  0  0  0  0
 32165  1  0  0  0  0
 33166  1  0  0  0  0
 34167  1  0  0  0  0
 36168  1  0  0  0  0
 37169  1  0  0  0  0
 40170  1  0  0  0  0
 40171  1  0  0  0  0
 40172  1  0  0  0  0
 41173  1  0  0  0  0
 42174  1  0  0  0  0
 49175  1  0  0  0  0
 50176  1  0  0  0  0
 53177  1  0  0  0  0
 53178  1  0  0  0  0
 53179  1  0  0  0  0
 54180  1  0  0  0  0
 55181  1  0  0  0  0
 57182  1  0  0  0  0
 58183  1  0  0  0  0
 61184  1  0  0  0  0
 61185  1  0  0  0  0
 61186  1  0  0  0  0
 62187  1  0  0  0  0
 63188  1  0  0  0  0
 70189  1  0  0  0  0
 71190  1  0  0  0  0
 74191  1  0  0  0  0
 74192  1  0  0  0  0
 74193  1  0  0  0  0
 75194  1  0  0  0  0
 76195  1  0  0  0  0
 78196  1  0  0  0  0
 79197  1  0  0  0  0
 82198  1  0  0  0  0
 82199  1  0  0  0  0
 82200  1  0  0  0  0
 83201  1  0  0  0  0
 84202  1  0  0  0  0
 91203  1  0  0  0  0
 92204  1  0  0  0  0
 95205  1  0  0  0  0
 95206  1  0  0  0  0
 95207  1  0  0  0  0
 96208  1  0  0  0  0
 97209  1  0  0  0  0
 99210  1  0  0  0  0
100211  1  0  0  0  0
103212  1  0  0  0  0
103213  1  0  0  0  0
103214  1  0  0  0  0
104215  1  0  0  0  0
105216  1  0  0  0  0
109217  1  0  0  0  0
113218  1  0  0  0  0
117219  1  0  0  0  0
117220  1  0  0  0  0
118221  1  0  0  0  0
118222  1  0  0  0  0
118223  1  0  0  0  0
121224  1  0  0  0  0
126225  1  0  0  0  0
129226  1  0  0  0  0
129227  1  0  0  0  0
130228  1  0  0  0  0
130229  1  0  0  0  0
130230  1  0  0  0  0
132231  1  0  0  0  0
137232  1  0  0  0  0
140233  1  0  0  0  0
146234  1  0  0  0  0
146235  1  0  0  0  0
147236  1  0  0  0  0
147237  1  0  0  0  0
147238  1  0  0  0  0
M  END
