
  xtb     02092215023D
 energy: -350.264212306257 gnorm: 0.000228866189 xtb: 6.4.1 (unknown)
209230  0     0  0            999 V2000
    2.3989   -1.1486   -6.3810 C   0  0  0  0  0  0  0  0  0  0  0  0
    2.9399   -2.3902   -6.6084 C   0  0  0  0  0  0  0  0  0  0  0  0
    3.6579   -3.2237   -5.6387 C   0  0  0  0  0  0  0  0  0  0  0  0
    4.2178   -2.8613   -4.6166 O   0  0  0  0  0  0  0  0  0  0  0  0
    3.6091   -4.5980   -6.1667 C   0  0  0  0  0  0  0  0  0  0  0  0
    4.0378   -5.7611   -5.5316 C   0  0  0  0  0  0  0  0  0  0  0  0
    3.8359   -6.9044   -6.2678 C   0  0  0  0  0  0  0  0  0  0  0  0
    3.2525   -6.8942   -7.5412 C   0  0  0  0  0  0  0  0  0  0  0  0
    2.8245   -5.7529   -8.1789 C   0  0  0  0  0  0  0  0  0  0  0  0
    3.0160   -4.5787   -7.4461 C   0  0  0  0  0  0  0  0  0  0  0  0
    2.6676   -3.1980   -7.7756 C   0  0  0  0  0  0  0  0  0  0  0  0
    2.1639   -2.7649   -8.9770 C   0  0  0  0  0  0  0  0  0  0  0  0
    1.8189   -3.6014  -10.0563 C   0  0  0  0  0  0  0  0  0  0  0  0
    1.4880   -4.2041  -10.9768 N   0  0  0  0  0  0  0  0  0  0  0  0
    1.9493   -1.4183   -9.3271 C   0  0  0  0  0  0  0  0  0  0  0  0
    1.7669   -0.3506   -9.7130 N   0  0  0  0  0  0  0  0  0  0  0  0
    3.3350   -8.3945   -7.6787 C   0  0  0  0  0  0  0  0  0  0  0  0
    2.0238   -9.1783   -7.4574 C   0  0  0  0  0  0  0  0  0  0  0  0
    2.4888  -10.5890   -7.1765 C   0  0  0  0  0  0  0  0  0  0  0  0
    3.0434  -10.5987   -5.9710 C   0  0  0  0  0  0  0  0  0  0  0  0
    2.9628   -9.1946   -5.4168 C   0  0  0  0  0  0  0  0  0  0  0  0
    1.6354   -8.7421   -6.0387 C   0  0  0  0  0  0  0  0  0  0  0  0
    3.9874   -8.4051   -6.2589 C   0  0  0  0  0  0  0  0  0  0  0  0
    2.3314   -0.4067   -5.1977 C   0  0  0  0  0  0  0  0  0  0  0  0
    1.4025    0.6366   -4.9753 C   0  0  0  0  0  0  0  0  0  0  0  0
    0.4228    1.0415   -5.8541 N   0  0  0  0  0  0  0  0  0  0  0  0
   -0.0649    2.3519   -5.7639 C   0  0  0  0  0  0  0  0  0  0  0  0
    0.8029    3.4044   -5.4780 C   0  0  0  0  0  0  0  0  0  0  0  0
    0.3234    4.6837   -5.2775 C   0  0  0  0  0  0  0  0  0  0  0  0
   -1.0368    4.9387   -5.3817 C   0  0  0  0  0  0  0  0  0  0  0  0
   -1.7762    6.5053   -5.0536 S   0  0  0  0  0  0  0  0  0  0  0  0
   -0.3698    7.5792   -4.6571 C   0  0  0  0  0  0  0  0  0  0  0  0
   -1.8967    3.9054   -5.7525 C   0  0  0  0  0  0  0  0  0  0  0  0
   -1.4210    2.6279   -5.9400 C   0  0  0  0  0  0  0  0  0  0  0  0
   -0.2631    0.0927   -6.6400 C   0  0  0  0  0  0  0  0  0  0  0  0
   -0.5995    0.3779   -7.9583 C   0  0  0  0  0  0  0  0  0  0  0  0
   -1.1877   -0.5873   -8.7535 C   0  0  0  0  0  0  0  0  0  0  0  0
   -1.4333   -1.8548   -8.2430 C   0  0  0  0  0  0  0  0  0  0  0  0
   -2.0764   -3.1924   -9.1938 S   0  0  0  0  0  0  0  0  0  0  0  0
   -1.8878   -2.6297  -10.9076 C   0  0  0  0  0  0  0  0  0  0  0  0
   -1.1624   -2.1181   -6.8996 C   0  0  0  0  0  0  0  0  0  0  0  0
   -0.5940   -1.1527   -6.1030 C   0  0  0  0  0  0  0  0  0  0  0  0
    1.5242    1.1413   -3.6709 C   0  0  0  0  0  0  0  0  0  0  0  0
    0.5962    2.2747   -2.7542 S   0  0  0  0  0  0  0  0  0  0  0  0
    1.4488    1.8102   -1.2864 C   0  0  0  0  0  0  0  0  0  0  0  0
    2.5123    0.9477   -1.5516 C   0  0  0  0  0  0  0  0  0  0  0  0
    3.4742    0.5479   -0.6359 N   0  0  0  0  0  0  0  0  0  0  0  0
    3.9662   -0.7626   -0.8317 C   0  0  0  0  0  0  0  0  0  0  0  0
    3.0661   -1.8258   -0.8198 C   0  0  0  0  0  0  0  0  0  0  0  0
    3.4897   -3.0979   -1.1378 C   0  0  0  0  0  0  0  0  0  0  0  0
    4.8195   -3.3269   -1.4751 C   0  0  0  0  0  0  0  0  0  0  0  0
    5.2811   -4.9666   -1.9311 S   0  0  0  0  0  0  0  0  0  0  0  0
    6.6992   -4.6707   -3.0298 C   0  0  0  0  0  0  0  0  0  0  0  0
    5.7290   -2.2785   -1.4375 C   0  0  0  0  0  0  0  0  0  0  0  0
    5.3042   -1.0042   -1.1231 C   0  0  0  0  0  0  0  0  0  0  0  0
    4.2455    1.4932    0.0474 C   0  0  0  0  0  0  0  0  0  0  0  0
    4.2446    2.8388   -0.3125 C   0  0  0  0  0  0  0  0  0  0  0  0
    5.0247    3.7567    0.3625 C   0  0  0  0  0  0  0  0  0  0  0  0
    5.8479    3.3431    1.3991 C   0  0  0  0  0  0  0  0  0  0  0  0
    6.9172    4.4141    2.3050 S   0  0  0  0  0  0  0  0  0  0  0  0
    6.6912    6.0323    1.5111 C   0  0  0  0  0  0  0  0  0  0  0  0
    5.8538    1.9973    1.7630 C   0  0  0  0  0  0  0  0  0  0  0  0
    5.0523    1.0885    1.1137 C   0  0  0  0  0  0  0  0  0  0  0  0
    2.5029    0.5252   -2.9025 C   0  0  0  0  0  0  0  0  0  0  0  0
    3.3223   -0.7243   -3.7704 S   0  0  0  0  0  0  0  0  0  0  0  0
    0.9283    2.2191   -0.0353 C   0  0  0  0  0  0  0  0  0  0  0  0
   -0.2900    2.8609    0.1765 C   0  0  0  0  0  0  0  0  0  0  0  0
   -1.2013    3.2550   -0.8174 N   0  0  0  0  0  0  0  0  0  0  0  0
   -1.4129    4.6303   -0.9719 C   0  0  0  0  0  0  0  0  0  0  0  0
   -0.3206    5.4964   -0.9123 C   0  0  0  0  0  0  0  0  0  0  0  0
   -0.4917    6.8484   -1.1122 C   0  0  0  0  0  0  0  0  0  0  0  0
   -1.7559    7.3657   -1.3813 C   0  0  0  0  0  0  0  0  0  0  0  0
   -1.8656    9.1034   -1.6872 S   0  0  0  0  0  0  0  0  0  0  0  0
   -3.4650    9.2693   -2.5314 C   0  0  0  0  0  0  0  0  0  0  0  0
   -2.8532    6.5162   -1.3858 C   0  0  0  0  0  0  0  0  0  0  0  0
   -2.6832    5.1629   -1.1732 C   0  0  0  0  0  0  0  0  0  0  0  0
   -1.9460    2.2849   -1.4872 C   0  0  0  0  0  0  0  0  0  0  0  0
   -1.9848    0.9714   -1.0209 C   0  0  0  0  0  0  0  0  0  0  0  0
   -2.5920   -0.0303   -1.7551 C   0  0  0  0  0  0  0  0  0  0  0  0
   -3.1974    0.2648   -2.9670 C   0  0  0  0  0  0  0  0  0  0  0  0
   -3.9512   -0.9263   -4.0348 S   0  0  0  0  0  0  0  0  0  0  0  0
   -3.4632   -2.5200   -3.3170 C   0  0  0  0  0  0  0  0  0  0  0  0
   -3.2160    1.5855   -3.4085 C   0  0  0  0  0  0  0  0  0  0  0  0
   -2.5879    2.5775   -2.6945 C   0  0  0  0  0  0  0  0  0  0  0  0
   -0.5694    2.9964    1.5461 C   0  0  0  0  0  0  0  0  0  0  0  0
   -1.9538    3.5600    2.4065 S   0  0  0  0  0  0  0  0  0  0  0  0
   -1.2682    2.9711    3.9163 C   0  0  0  0  0  0  0  0  0  0  0  0
   -0.0179    2.3633    3.7441 C   0  0  0  0  0  0  0  0  0  0  0  0
    0.7206    1.7169    4.7085 N   0  0  0  0  0  0  0  0  0  0  0  0
    2.1185    1.8392    4.7159 C   0  0  0  0  0  0  0  0  0  0  0  0
    2.7383    3.0493    4.4029 C   0  0  0  0  0  0  0  0  0  0  0  0
    4.1026    3.1820    4.5335 C   0  0  0  0  0  0  0  0  0  0  0  0
    4.8806    2.1144    4.9782 C   0  0  0  0  0  0  0  0  0  0  0  0
    6.5953    2.4378    5.2326 S   0  0  0  0  0  0  0  0  0  0  0  0
    7.2849    0.8180    5.6835 C   0  0  0  0  0  0  0  0  0  0  0  0
    4.2746    0.8902    5.2284 C   0  0  0  0  0  0  0  0  0  0  0  0
    2.9080    0.7560    5.0926 C   0  0  0  0  0  0  0  0  0  0  0  0
    0.1039    0.9498    5.7076 C   0  0  0  0  0  0  0  0  0  0  0  0
   -0.9971    0.1470    5.4115 C   0  0  0  0  0  0  0  0  0  0  0  0
   -1.6201   -0.5724    6.4077 C   0  0  0  0  0  0  0  0  0  0  0  0
   -1.1510   -0.5160    7.7177 C   0  0  0  0  0  0  0  0  0  0  0  0
   -2.0346   -1.4568    8.9227 S   0  0  0  0  0  0  0  0  0  0  0  0
   -1.2966   -0.9393   10.4986 C   0  0  0  0  0  0  0  0  0  0  0  0
   -0.0334    0.2550    8.0101 C   0  0  0  0  0  0  0  0  0  0  0  0
    0.5854    0.9794    7.0136 C   0  0  0  0  0  0  0  0  0  0  0  0
    0.3752    2.4239    2.3866 C   0  0  0  0  0  0  0  0  0  0  0  0
    1.6985    1.7624    1.4803 S   0  0  0  0  0  0  0  0  0  0  0  0
   -2.0512    3.0878    5.0824 C   0  0  0  0  0  0  0  0  0  0  0  0
   -3.7651    3.5930    4.9555 S   0  0  0  0  0  0  0  0  0  0  0  0
   -3.9110    3.2640    6.6384 C   0  0  0  0  0  0  0  0  0  0  0  0
   -4.9326    3.2739    7.4975 N   0  0  0  0  0  0  0  0  0  0  0  0
   -4.5801    2.8207    8.6558 C   0  0  0  0  0  0  0  0  0  0  0  0
   -2.8493    2.3933    8.7922 S   0  0  0  0  0  0  0  0  0  0  0  0
   -2.6772    2.8333    7.1433 C   0  0  0  0  0  0  0  0  0  0  0  0
   -1.6615    2.7706    6.2835 N   0  0  0  0  0  0  0  0  0  0  0  0
   -5.4863    2.7344    9.7812 C   0  0  0  0  0  0  0  0  0  0  0  0
   -6.3339    3.8058   10.0065 C   0  0  0  0  0  0  0  0  0  0  0  0
   -7.1999    3.8215   11.0942 C   0  0  0  0  0  0  0  0  0  0  0  0
   -7.2351    2.7580   11.9744 C   0  0  0  0  0  0  0  0  0  0  0  0
   -8.1441    2.8047   13.1316 C   0  0  0  0  0  0  0  0  0  0  0  0
   -8.8581    3.7588   13.3659 O   0  0  0  0  0  0  0  0  0  0  0  0
   -8.1462    1.6955   13.9607 N   0  0  0  0  0  0  0  0  0  0  0  0
   -9.0514    1.7252   15.1056 C   0  0  0  0  0  0  0  0  0  0  0  0
  -10.4220    1.1745   14.7333 C   0  0  0  0  0  0  0  0  0  0  0  0
   -7.4040    0.5418   13.7755 C   0  0  0  0  0  0  0  0  0  0  0  0
   -7.4934   -0.3876   14.5522 O   0  0  0  0  0  0  0  0  0  0  0  0
   -6.5105    0.5135   12.6044 C   0  0  0  0  0  0  0  0  0  0  0  0
   -5.7753   -0.6241   12.3443 C   0  0  0  0  0  0  0  0  0  0  0  0
   -4.9549   -0.6828   11.2176 C   0  0  0  0  0  0  0  0  0  0  0  0
   -4.8381    0.3983   10.3815 C   0  0  0  0  0  0  0  0  0  0  0  0
   -5.5453    1.5915   10.6297 C   0  0  0  0  0  0  0  0  0  0  0  0
   -6.4254    1.6276   11.7436 C   0  0  0  0  0  0  0  0  0  0  0  0
    1.8447   -0.7167   -7.2042 H   0  0  0  0  0  0  0  0  0  0  0  0
    4.4649   -5.7322   -4.5419 H   0  0  0  0  0  0  0  0  0  0  0  0
    2.3700   -5.7594   -9.1557 H   0  0  0  0  0  0  0  0  0  0  0  0
    3.9147   -8.7644   -8.5222 H   0  0  0  0  0  0  0  0  0  0  0  0
    1.2814   -9.0540   -8.2410 H   0  0  0  0  0  0  0  0  0  0  0  0
    2.4185  -11.3957   -7.8824 H   0  0  0  0  0  0  0  0  0  0  0  0
    3.5290  -11.4150   -5.4690 H   0  0  0  0  0  0  0  0  0  0  0  0
    3.0766   -9.0844   -4.3417 H   0  0  0  0  0  0  0  0  0  0  0  0
    0.7872   -9.3056   -5.6533 H   0  0  0  0  0  0  0  0  0  0  0  0
    1.4391   -7.6761   -5.9400 H   0  0  0  0  0  0  0  0  0  0  0  0
    5.0035   -8.7815   -6.1556 H   0  0  0  0  0  0  0  0  0  0  0  0
    1.8639    3.2172   -5.4036 H   0  0  0  0  0  0  0  0  0  0  0  0
    1.0224    5.4677   -5.0367 H   0  0  0  0  0  0  0  0  0  0  0  0
    0.1432    7.1994   -3.7783 H   0  0  0  0  0  0  0  0  0  0  0  0
   -0.7921    8.5548   -4.4377 H   0  0  0  0  0  0  0  0  0  0  0  0
    0.2945    7.6487   -5.5135 H   0  0  0  0  0  0  0  0  0  0  0  0
   -2.9488    4.1164   -5.8691 H   0  0  0  0  0  0  0  0  0  0  0  0
   -2.0981    1.8293   -6.1999 H   0  0  0  0  0  0  0  0  0  0  0  0
   -0.3728    1.3488   -8.3706 H   0  0  0  0  0  0  0  0  0  0  0  0
   -1.4210   -0.3446   -9.7767 H   0  0  0  0  0  0  0  0  0  0  0  0
   -0.8654   -2.3040  -11.0742 H   0  0  0  0  0  0  0  0  0  0  0  0
   -2.1005   -3.4976  -11.5238 H   0  0  0  0  0  0  0  0  0  0  0  0
   -2.5993   -1.8383  -11.1252 H   0  0  0  0  0  0  0  0  0  0  0  0
   -1.4005   -3.0913   -6.4984 H   0  0  0  0  0  0  0  0  0  0  0  0
   -0.3762   -1.3599   -5.0656 H   0  0  0  0  0  0  0  0  0  0  0  0
    2.0283   -1.6363   -0.5868 H   0  0  0  0  0  0  0  0  0  0  0  0
    2.7925   -3.9216   -1.1497 H   0  0  0  0  0  0  0  0  0  0  0  0
    6.8775   -5.6036   -3.5563 H   0  0  0  0  0  0  0  0  0  0  0  0
    7.5811   -4.4071   -2.4531 H   0  0  0  0  0  0  0  0  0  0  0  0
    6.4286   -3.8848   -3.7291 H   0  0  0  0  0  0  0  0  0  0  0  0
    6.7684   -2.4388   -1.6740 H   0  0  0  0  0  0  0  0  0  0  0  0
    6.0076   -0.1848   -1.1285 H   0  0  0  0  0  0  0  0  0  0  0  0
    3.6384    3.1768   -1.1395 H   0  0  0  0  0  0  0  0  0  0  0  0
    4.9909    4.7889    0.0532 H   0  0  0  0  0  0  0  0  0  0  0  0
    6.9719    5.9766    0.4634 H   0  0  0  0  0  0  0  0  0  0  0  0
    7.3603    6.7071    2.0358 H   0  0  0  0  0  0  0  0  0  0  0  0
    5.6649    6.3681    1.6286 H   0  0  0  0  0  0  0  0  0  0  0  0
    6.5010    1.6789    2.5637 H   0  0  0  0  0  0  0  0  0  0  0  0
    5.0511    0.0526    1.4168 H   0  0  0  0  0  0  0  0  0  0  0  0
    0.6659    5.0968   -0.7272 H   0  0  0  0  0  0  0  0  0  0  0  0
    0.3539    7.5192   -1.0746 H   0  0  0  0  0  0  0  0  0  0  0  0
   -4.2796    9.1583   -1.8216 H   0  0  0  0  0  0  0  0  0  0  0  0
   -3.4780   10.2723   -2.9470 H   0  0  0  0  0  0  0  0  0  0  0  0
   -3.5298    8.5323   -3.3270 H   0  0  0  0  0  0  0  0  0  0  0  0
   -3.8487    6.8970   -1.5454 H   0  0  0  0  0  0  0  0  0  0  0  0
   -3.5451    4.5139   -1.1566 H   0  0  0  0  0  0  0  0  0  0  0  0
   -1.5171    0.7198   -0.0804 H   0  0  0  0  0  0  0  0  0  0  0  0
   -2.5834   -1.0360   -1.3654 H   0  0  0  0  0  0  0  0  0  0  0  0
   -3.8007   -3.2733   -4.0219 H   0  0  0  0  0  0  0  0  0  0  0  0
   -2.3824   -2.5628   -3.2184 H   0  0  0  0  0  0  0  0  0  0  0  0
   -3.9529   -2.6674   -2.3586 H   0  0  0  0  0  0  0  0  0  0  0  0
   -3.7139    1.8190   -4.3361 H   0  0  0  0  0  0  0  0  0  0  0  0
   -2.5568    3.5784   -3.0930 H   0  0  0  0  0  0  0  0  0  0  0  0
    2.1395    3.8926    4.0924 H   0  0  0  0  0  0  0  0  0  0  0  0
    4.5832    4.1240    4.3205 H   0  0  0  0  0  0  0  0  0  0  0  0
    7.1013    0.0994    4.8900 H   0  0  0  0  0  0  0  0  0  0  0  0
    6.8662    0.4802    6.6268 H   0  0  0  0  0  0  0  0  0  0  0  0
    8.3527    0.9803    5.7930 H   0  0  0  0  0  0  0  0  0  0  0  0
    4.8512    0.0351    5.5414 H   0  0  0  0  0  0  0  0  0  0  0  0
    2.4406   -0.1946    5.3027 H   0  0  0  0  0  0  0  0  0  0  0  0
   -1.3727    0.1038    4.3997 H   0  0  0  0  0  0  0  0  0  0  0  0
   -2.4817   -1.1829    6.1829 H   0  0  0  0  0  0  0  0  0  0  0  0
   -1.3904    0.1372   10.6092 H   0  0  0  0  0  0  0  0  0  0  0  0
   -0.2591   -1.2571   10.5472 H   0  0  0  0  0  0  0  0  0  0  0  0
   -1.8683   -1.4401   11.2733 H   0  0  0  0  0  0  0  0  0  0  0  0
    0.3545    0.3163    9.0135 H   0  0  0  0  0  0  0  0  0  0  0  0
    1.4350    1.6001    7.2535 H   0  0  0  0  0  0  0  0  0  0  0  0
   -6.2992    4.6452    9.3296 H   0  0  0  0  0  0  0  0  0  0  0  0
   -7.8462    4.6670   11.2749 H   0  0  0  0  0  0  0  0  0  0  0  0
   -9.1346    2.7644   15.4283 H   0  0  0  0  0  0  0  0  0  0  0  0
   -8.5998    1.1196   15.8932 H   0  0  0  0  0  0  0  0  0  0  0  0
  -10.8629    1.7724   13.9390 H   0  0  0  0  0  0  0  0  0  0  0  0
  -10.3332    0.1437   14.3977 H   0  0  0  0  0  0  0  0  0  0  0  0
  -11.0768    1.2054   15.5995 H   0  0  0  0  0  0  0  0  0  0  0  0
   -5.8675   -1.4662   13.0136 H   0  0  0  0  0  0  0  0  0  0  0  0
   -4.4202   -1.5925   10.9902 H   0  0  0  0  0  0  0  0  0  0  0  0
   -4.2158    0.3184    9.5048 H   0  0  0  0  0  0  0  0  0  0  0  0
  1  2  2  0  0  0  0
  2  3  1  0  0  0  0
  3  4  2  0  0  0  0
  3  5  1  0  0  0  0
  5  6  2  0  0  0  0
  6  7  1  0  0  0  0
  7  8  2  0  0  0  0
  8  9  1  0  0  0  0
  9 10  2  0  0  0  0
 10 11  1  0  0  0  0
 11 12  2  0  0  0  0
 12 13  1  0  0  0  0
 13 14  3  0  0  0  0
 12 15  1  0  0  0  0
 15 16  3  0  0  0  0
  8 17  1  0  0  0  0
 17 18  1  0  0  0  0
 18 19  1  0  0  0  0
 19 20  2  0  0  0  0
 20 21  1  0  0  0  0
 21 22  1  0  0  0  0
 21 23  1  0  0  0  0
  1 24  1  0  0  0  0
 24 25  2  0  0  0  0
 25 26  1  0  0  0  0
 26 27  1  0  0  0  0
 27 28  2  0  0  0  0
 28 29  1  0  0  0  0
 29 30  2  0  0  0  0
 30 31  1  0  0  0  0
 31 32  1  0  0  0  0
 30 33  1  0  0  0  0
 33 34  2  0  0  0  0
 26 35  1  0  0  0  0
 35 36  2  0  0  0  0
 36 37  1  0  0  0  0
 37 38  2  0  0  0  0
 38 39  1  0  0  0  0
 39 40  1  0  0  0  0
 38 41  1  0  0  0  0
 41 42  2  0  0  0  0
 25 43  1  0  0  0  0
 43 44  1  0  0  0  0
 44 45  1  0  0  0  0
 45 46  2  0  0  0  0
 46 47  1  0  0  0  0
 47 48  1  0  0  0  0
 48 49  2  0  0  0  0
 49 50  1  0  0  0  0
 50 51  2  0  0  0  0
 51 52  1  0  0  0  0
 52 53  1  0  0  0  0
 51 54  1  0  0  0  0
 54 55  2  0  0  0  0
 47 56  1  0  0  0  0
 56 57  2  0  0  0  0
 57 58  1  0  0  0  0
 58 59  2  0  0  0  0
 59 60  1  0  0  0  0
 60 61  1  0  0  0  0
 59 62  1  0  0  0  0
 62 63  2  0  0  0  0
 46 64  1  0  0  0  0
 64 65  1  0  0  0  0
 45 66  1  0  0  0  0
 66 67  2  0  0  0  0
 67 68  1  0  0  0  0
 68 69  1  0  0  0  0
 69 70  2  0  0  0  0
 70 71  1  0  0  0  0
 71 72  2  0  0  0  0
 72 73  1  0  0  0  0
 73 74  1  0  0  0  0
 72 75  1  0  0  0  0
 75 76  2  0  0  0  0
 68 77  1  0  0  0  0
 77 78  2  0  0  0  0
 78 79  1  0  0  0  0
 79 80  2  0  0  0  0
 80 81  1  0  0  0  0
 81 82  1  0  0  0  0
 80 83  1  0  0  0  0
 83 84  2  0  0  0  0
 67 85  1  0  0  0  0
 85 86  1  0  0  0  0
 86 87  1  0  0  0  0
 87 88  2  0  0  0  0
 88 89  1  0  0  0  0
 89 90  1  0  0  0  0
 90 91  2  0  0  0  0
 91 92  1  0  0  0  0
 92 93  2  0  0  0  0
 93 94  1  0  0  0  0
 94 95  1  0  0  0  0
 93 96  1  0  0  0  0
 96 97  2  0  0  0  0
 89 98  1  0  0  0  0
 98 99  2  0  0  0  0
 99100  1  0  0  0  0
100101  2  0  0  0  0
101102  1  0  0  0  0
102103  1  0  0  0  0
101104  1  0  0  0  0
104105  2  0  0  0  0
 88106  1  0  0  0  0
106107  1  0  0  0  0
 87108  1  0  0  0  0
108109  1  0  0  0  0
109110  1  0  0  0  0
110111  1  0  0  0  0
111112  2  0  0  0  0
112113  1  0  0  0  0
113114  1  0  0  0  0
114115  1  0  0  0  0
112116  1  0  0  0  0
116117  2  0  0  0  0
117118  1  0  0  0  0
118119  2  0  0  0  0
119120  1  0  0  0  0
120121  2  0  0  0  0
120122  1  0  0  0  0
122123  1  0  0  0  0
123124  1  0  0  0  0
122125  1  0  0  0  0
125126  2  0  0  0  0
125127  1  0  0  0  0
127128  1  0  0  0  0
128129  2  0  0  0  0
129130  1  0  0  0  0
130131  2  0  0  0  0
131132  1  0  0  0  0
 11  2  1  0  0  0  0
 23 17  1  0  0  0  0
 65 24  1  0  0  0  0
107 66  1  0  0  0  0
115108  2  0  0  0  0
131116  1  0  0  0  0
 10  5  1  0  0  0  0
 22 18  1  0  0  0  0
 34 27  1  0  0  0  0
 42 35  1  0  0  0  0
 64 43  2  0  0  0  0
 76 69  1  0  0  0  0
 84 77  1  0  0  0  0
106 85  2  0  0  0  0
114110  2  0  0  0  0
132119  1  0  0  0  0
 23  7  1  0  0  0  0
 55 48  1  0  0  0  0
 63 56  1  0  0  0  0
 97 90  1  0  0  0  0
105 98  1  0  0  0  0
132127  2  0  0  0  0
  1133  1  0  0  0  0
  6134  1  0  0  0  0
  9135  1  0  0  0  0
 17136  1  0  0  0  0
 18137  1  0  0  0  0
 19138  1  0  0  0  0
 20139  1  0  0  0  0
 21140  1  0  0  0  0
 22141  1  0  0  0  0
 22142  1  0  0  0  0
 23143  1  0  0  0  0
 28144  1  0  0  0  0
 29145  1  0  0  0  0
 32146  1  0  0  0  0
 32147  1  0  0  0  0
 32148  1  0  0  0  0
 33149  1  0  0  0  0
 34150  1  0  0  0  0
 36151  1  0  0  0  0
 37152  1  0  0  0  0
 40153  1  0  0  0  0
 40154  1  0  0  0  0
 40155  1  0  0  0  0
 41156  1  0  0  0  0
 42157  1  0  0  0  0
 49158  1  0  0  0  0
 50159  1  0  0  0  0
 53160  1  0  0  0  0
 53161  1  0  0  0  0
 53162  1  0  0  0  0
 54163  1  0  0  0  0
 55164  1  0  0  0  0
 57165  1  0  0  0  0
 58166  1  0  0  0  0
 61167  1  0  0  0  0
 61168  1  0  0  0  0
 61169  1  0  0  0  0
 62170  1  0  0  0  0
 63171  1  0  0  0  0
 70172  1  0  0  0  0
 71173  1  0  0  0  0
 74174  1  0  0  0  0
 74175  1  0  0  0  0
 74176  1  0  0  0  0
 75177  1  0  0  0  0
 76178  1  0  0  0  0
 78179  1  0  0  0  0
 79180  1  0  0  0  0
 82181  1  0  0  0  0
 82182  1  0  0  0  0
 82183  1  0  0  0  0
 83184  1  0  0  0  0
 84185  1  0  0  0  0
 91186  1  0  0  0  0
 92187  1  0  0  0  0
 95188  1  0  0  0  0
 95189  1  0  0  0  0
 95190  1  0  0  0  0
 96191  1  0  0  0  0
 97192  1  0  0  0  0
 99193  1  0  0  0  0
100194  1  0  0  0  0
103195  1  0  0  0  0
103196  1  0  0  0  0
103197  1  0  0  0  0
104198  1  0  0  0  0
105199  1  0  0  0  0
117200  1  0  0  0  0
118201  1  0  0  0  0
123202  1  0  0  0  0
123203  1  0  0  0  0
124204  1  0  0  0  0
124205  1  0  0  0  0
124206  1  0  0  0  0
128207  1  0  0  0  0
129208  1  0  0  0  0
130209  1  0  0  0  0
M  END
