146

C         -4.26150       -6.00840        0.71960
C         -3.69820       -7.18850        0.30690
C         -2.50540       -7.28250       -0.55730
O         -1.91360       -6.37350       -1.11320
C         -2.27600       -8.72180       -0.77880
C         -1.22140       -9.30730       -1.47470
C         -1.28410      -10.67880       -1.53500
C         -2.32670      -11.41490       -0.95850
C         -3.37460      -10.84910       -0.27090
C         -3.32340       -9.45550       -0.18610
C         -4.22430       -8.52000        0.48730
C         -5.32670       -8.86510        1.22970
C         -6.12630       -7.96100        1.95870
N         -6.81670       -7.30150        2.59770
C         -5.80810      -10.18020        1.38280
N         -6.26220      -11.22320        1.54380
C         -1.74340      -12.73550       -1.39680
C         -1.01680      -13.59090       -0.32960
C         -0.50850      -12.62950        0.71580
C          0.48050      -11.93000        0.17560
C          0.65940      -12.40660       -1.24460
C          0.29040      -13.88970       -1.08110
C         -0.57850      -11.91450       -2.03460
C         -3.58080       -4.77410        0.78060
C         -4.27010       -3.54220        0.70790
C         -3.57840       -2.27700        0.65440
N         -4.42610       -1.25640        0.54350
S         -5.93790       -1.81880        0.51450
N         -5.59030       -3.38350        0.62490
C         -2.16500       -2.15520        0.68500
C         -1.50200       -3.36830        0.99070
N         -0.22250       -3.49510        1.34460
S          0.08540       -5.04070        1.66580
N         -1.38150       -5.62930        1.39100
C         -2.19130       -4.64240        1.01970
C         -1.56600       -0.89260        0.47870
C         -0.22370       -0.50590        0.29890
N          0.88530       -1.28370        0.06810
C          0.90860       -2.44930       -0.67690
C          1.98780       -3.33300       -0.54370
C          2.00880       -4.51380       -1.24370
C          0.96610       -4.84710       -2.11290
S          1.09100       -6.38880       -2.93570
C         -0.44060       -6.50190       -3.89930
C         -0.08100       -3.94900       -2.29050
C         -0.10270       -2.76360       -1.58870
C          2.08900       -0.73950        0.58320
C          2.17720       -0.48750        1.95070
C          3.22430        0.25640        2.44810
C          4.17920        0.77910        1.58000
S          5.35400        1.92930        2.22300
C          5.37670        3.17530        0.89780
C          4.15560        0.42620        0.23470
C          3.11900       -0.33820       -0.26290
C         -0.10570        0.90710        0.34830
S          1.23800        1.98740        0.21120
C          0.16500        3.36890        0.38560
C         -1.18390        3.00590        0.46240
N         -2.27190        3.83740        0.52000
C         -3.46140        3.29190        1.05690
C         -4.63230        3.26600        0.30210
C         -5.73830        2.59770        0.77550
C         -5.69780        1.95160        2.00990
S         -7.12280        1.02280        2.47100
C         -6.48870       -0.08690        3.76170
C         -4.56230        2.05510        2.80210
C         -3.44950        2.71880        2.32380
C         -2.34010        5.08610       -0.10780
C         -3.17770        6.06790        0.42860
C         -3.27400        7.30080       -0.17030
C         -2.53570        7.59520       -1.31870
S         -2.74070        9.20810       -1.98820
C         -1.40360        9.35980       -3.20410
C         -1.71750        6.61570       -1.86680
C         -1.62330        5.37350       -1.26780
C         -1.30180        1.59090        0.47080
S         -2.64840        0.49800        0.53140
C          0.88340        4.57390        0.47080
N          2.19180        4.54030        0.28510
N          2.78520        5.67770        0.39750
C          2.01040        6.67720        0.69270
S          0.30440        6.17420        0.85470
C          2.35820        8.04390        0.75780
C          3.60660        8.56010        0.91230
C          4.80830        7.84160        1.41810
O          4.99310        6.65420        1.53200
C          5.73410        8.91880        1.84250
C          6.95310        8.78910        2.47580
C          7.63330        9.95080        2.81370
C          7.09250       11.19860        2.55500
C          5.85300       11.34150        1.92230
O          5.23250       12.51270        1.70150
C          5.88820       13.72670        1.99090
C          5.18490       10.17380        1.52960
C          3.93390        9.97510        0.81790
C          3.25590       10.85770        0.01860
C          2.16020       10.46790       -0.78290
N          1.29600       10.20550       -1.49290
C          3.59020       12.20150       -0.25660
N          3.76370       13.28400       -0.59730
H         -5.30610       -5.97610        1.00170
H         -0.42990       -8.70890       -1.89830
H         -4.17000      -11.42900        0.16660
H         -2.36500      -13.33650       -2.05770
H         -1.58980      -14.43890        0.03580
H         -0.94570      -12.51950        1.69080
H          1.03420      -11.11770        0.60880
H          1.61350      -12.17600       -1.71160
H          0.13840      -14.40610       -2.02800
H          1.00920      -14.43840       -0.47420
H         -0.43640      -11.98330       -3.11170
H          2.78230       -3.09960        0.14770
H          2.82900       -5.20480       -1.12180
H         -1.28390       -6.43470       -3.21690
H         -0.46430       -5.71970       -4.65230
H         -0.42030       -7.47530       -4.38020
H         -0.89080       -4.16690       -2.96600
H         -0.91550       -2.07200       -1.74890
H          1.39360       -0.84670        2.60090
H          3.28620        0.48640        3.50020
H          6.08760        2.89490        0.12620
H          5.67590        4.11130        1.35930
H          4.37370        3.28180        0.49620
H          4.92500        0.78100       -0.43220
H          3.07200       -0.57870       -1.31450
H         -4.65220        3.73830       -0.66850
H         -6.63720        2.53960        0.18190
H         -6.34210        0.45590        4.69110
H         -5.56350       -0.54150        3.42050
H         -7.25030       -0.84790        3.90000
H         -4.52590        1.61220        3.78400
H         -2.55330        2.77380        2.92440
H         -3.74110        5.85320        1.32410
H         -3.91400        8.06190        0.24810
H         -0.44660        9.21240       -2.71360
H         -1.55650        8.66170       -4.02200
H         -1.46750       10.37800       -3.57520
H         -1.14430        6.80710       -2.75940
H         -0.99480        4.61580       -1.71270
H          1.51880        8.72400        0.68190
H          7.35250        7.81160        2.69310
H          8.59540        9.88860        3.29930
H          7.64020       12.07690        2.85780
H          6.04810       13.84690        3.06660
H          6.84240       13.80010        1.46260
H          5.21630       14.50270        1.62870
