269

C         -2.76350        4.68150       -7.85810
C         -3.78020        5.60320       -7.70400
C         -4.64490        5.69390       -6.51840
O         -4.58540        5.02360       -5.50160
C         -5.68380        6.69030       -6.85450
C         -6.72360        7.12780       -6.04120
C         -7.51950        8.08980       -6.61790
C         -7.30160        8.57700       -7.91170
C         -6.28020        8.14980       -8.72770
C         -5.46080        7.17450       -8.15800
C         -4.26840        6.52090       -8.69240
C         -3.62440        6.85270       -9.86080
C         -4.08450        7.80280      -10.79010
N         -4.38470        8.56970      -11.59210
C         -2.36340        6.34900      -10.23350
N         -1.31210        6.03540      -10.57710
C         -8.48160        9.51400       -7.84510
C         -9.77600        9.10110       -8.58830
C         -9.76940        7.59420       -8.65550
C         -9.97540        7.13340       -7.42900
C        -10.12470        8.32080       -6.51040
C        -10.80180        9.31760       -7.46440
C         -8.72390        8.97220       -6.40100
C         -2.06560        4.06340       -6.82280
C         -1.87570        4.44320       -5.47550
N         -2.07570        5.67890       -4.94720
C         -2.04110        5.85550       -3.54300
C         -1.08540        6.70390       -2.99690
C         -1.00250        6.87230       -1.62960
C         -1.88630        6.19850       -0.79550
S         -1.85560        6.33760        0.95900
C         -0.19920        7.00220        1.30230
C         -2.87370        5.38480       -1.34840
C         -2.95180        5.20740       -2.71290
C         -2.19830        6.84700       -5.71480
C         -3.14140        7.80710       -5.34300
C         -3.32850        8.93120       -6.11500
C         -2.56940        9.13390       -7.26730
S         -2.95950       10.55820       -8.22240
C         -1.82060       10.48190       -9.63220
C         -1.57600        8.21730       -7.59650
C         -1.39660        7.08510       -6.82810
C         -1.26700        3.38780       -4.75500
S         -0.87700        3.13740       -3.08950
C         -0.11910        1.59010       -3.46190
C         -0.09850        1.33160       -4.82990
N          0.58200        0.32590       -5.50260
C         -0.07210       -0.16050       -6.66070
C         -1.31410       -0.76820       -6.52490
C         -2.00290       -1.22480       -7.63290
C         -1.45410       -1.07680       -8.89890
S         -2.23010       -1.62190      -10.38560
C         -3.88270       -2.14880       -9.84880
C         -0.20800       -0.46610       -9.03910
C          0.47440       -0.00760       -7.93550
C          1.94950        0.10060       -5.32800
C          2.57960       -0.92450       -6.04170
C          3.92760       -1.15220       -5.90180
C          4.69210       -0.39510       -5.01800
S          6.40090       -0.81100       -4.87830
C          6.88220       -0.05830       -3.29940
C          4.07800        0.62680       -4.31150
C          2.72770        0.87630       -4.47280
C         -0.83150        2.32470       -5.53190
S         -1.24630        2.53610       -7.19450
C          0.28010        0.82130       -2.32890
C          0.57290       -0.52040       -2.18270
N          0.41490       -1.52690       -3.16660
C          1.51770       -2.31220       -3.51810
C          1.37260       -3.26790       -4.52470
C          2.43000       -4.06770       -4.90260
C          3.67060       -3.90680       -4.30140
S          5.07660       -4.90230       -4.71000
C          4.74340       -5.38700       -6.42800
C          3.83380       -2.93200       -3.32530
C          2.77290       -2.14310       -2.93610
C         -0.85120       -2.14970       -3.01620
C         -0.97640       -3.50340       -2.71730
C         -2.21720       -4.07950       -2.52480
C         -3.36640       -3.30700       -2.61170
S         -5.00180       -3.93080       -2.37780
C         -4.75190       -5.67240       -1.93390
C         -3.24820       -1.94660       -2.88720
C         -2.00960       -1.37420       -3.07970
C          0.78440       -0.85340       -0.82380
S          1.19460       -2.32390       -0.02740
C          1.03750       -1.52810        1.53800
C          0.62010       -0.21390        1.43830
N          0.21140        0.62650        2.45850
C         -0.91250        1.46310        2.20570
C         -1.01170        2.68100        2.87250
C         -2.13260        3.46640        2.71960
C         -3.17420        3.05960        1.88770
S         -4.57250        4.12990        1.79150
C         -5.74830        3.22240        0.74180
C         -3.07230        1.85450        1.20930
C         -1.95680        1.05810        1.38220
C          0.21130        0.15810        3.81060
C          1.04700        0.73690        4.74990
C          1.08210        0.26060        6.04790
C          0.26170       -0.79190        6.42280
S          0.27390       -1.51760        8.02970
C          1.74470       -0.82200        8.82730
C         -0.65030       -1.31030        5.50500
C         -0.68260       -0.83110        4.21400
C          0.56580        0.17650        0.07160
S          0.23420        1.65150       -0.77050
C          1.33310       -2.29090        2.72080
C          2.43240       -2.15210        3.54310
N          3.55000       -1.39010        3.15850
C          4.31170       -1.79860        2.06500
C          4.04710       -2.98870        1.38480
C          4.83680       -3.40730        0.33100
C          5.93680       -2.66040       -0.05980
S          7.01960       -3.11280       -1.38780
C          6.77520       -4.90330       -1.52800
C          6.22390       -1.48320        0.62260
C          5.43170       -1.06060        1.66590
C          3.80350       -0.13540        3.76040
C          3.70870        1.02990        2.99790
C          3.98460        2.25460        3.56410
C          4.34970        2.34280        4.90790
S          4.65660        3.96770        5.52960
C          5.28200        3.68250        7.20910
C          4.43770        1.18630        5.66900
C          4.17380       -0.04460        5.09390
C          2.33050       -2.99850        4.67420
S          3.19150       -3.15630        6.16020
C          2.12450       -4.46430        6.67660
C          1.09290       -4.70030        5.73560
N          0.07890       -5.61350        5.84650
C         -0.47850       -6.01650        7.07460
C         -0.67300       -5.09980        8.10870
C         -1.13150       -5.53240        9.33150
C         -1.42750       -6.87940        9.53980
S         -1.91610       -7.35380       11.16700
C         -1.54820       -9.13170       11.19810
C         -1.32450       -7.77350        8.48330
C         -0.84400       -7.34590        7.26070
C         -0.49960       -6.10410        4.65940
C         -1.88440       -6.13140        4.50190
C         -2.43330       -6.52770        3.30310
C         -1.61380       -6.90750        2.24090
S         -2.41960       -7.31490        0.72580
C         -1.05560       -7.46390       -0.46460
C         -0.23730       -6.94400        2.41610
C          0.31230       -6.54690        3.61890
C          1.23030       -3.84740        4.62600
S          0.27380       -3.59850        3.20410
C          2.32330       -5.22590        7.82560
C          3.14780       -5.01640        8.90800
C          3.96340       -3.82630        9.16500
O          4.19200       -2.89690        8.40420
C          4.43950       -3.95340       10.54820
C          5.22720       -3.09670       11.28910
C          5.55540       -3.43870       12.59220
C          5.09460       -4.63410       13.14520
O          5.36290       -5.05330       14.40020
C          6.16620       -4.25540       15.23830
C          4.29230       -5.50590       12.39030
C          3.96780       -5.16210       11.09750
C          3.18710       -5.86160       10.07640
C          2.62330       -7.10480       10.22430
C          2.59980       -7.83460       11.42970
N          2.51040       -8.48820       12.36990
C          2.01530       -7.85530        9.20100
N          1.54080       -8.56180        8.42690
H         -2.49670        4.36600       -8.85990
H         -6.85650        6.73120       -5.04650
H         -6.12370        8.53110       -9.72310
H         -8.25600       10.57220       -7.96140
H         -9.94360        9.62250       -9.52690
H         -9.56340        7.03540       -9.54960
H         -9.97520        6.11270       -7.09370
H        -10.61100        8.13170       -5.55670
H        -11.80830        9.01290       -7.74760
H        -10.81960       10.33820       -7.08410
H         -8.65800        9.67810       -5.57500
H         -0.39920        7.22390       -3.64960
H         -0.24860        7.52910       -1.22720
H          0.54400        6.40380        0.78440
H         -0.06520        6.91110        2.37560
H         -0.13860        8.04790        1.01490
H         -3.57280        4.89920       -0.68750
H         -3.71400        4.58740       -3.15920
H         -3.74080        7.64700       -4.45980
H         -4.08020        9.65790       -5.84850
H         -2.06340       11.34460      -10.24480
H         -1.98880        9.57370      -10.20310
H         -0.79360       10.55090       -9.28590
H         -0.94310        8.36410       -8.45640
H         -0.63010        6.37720       -7.10530
H         -1.74400       -0.88920       -5.54220
H         -2.96250       -1.69460       -7.48950
H         -4.38610       -1.32690       -9.34840
H         -4.41510       -2.40960      -10.75820
H         -3.80900       -3.01980       -9.20410
H          0.20730       -0.34320      -10.02730
H          1.42720        0.48570       -8.05440
H          2.00550       -1.54910       -6.70720
H          4.40890       -1.93260       -6.47030
H          6.97910        1.01870       -3.40570
H          7.84280       -0.49550       -3.04650
H          6.15300       -0.31890       -2.53870
H          4.64180        1.25040       -3.63580
H          2.28980        1.69990       -3.93130
H          0.41600       -3.38020       -5.01420
H          2.27840       -4.80810       -5.67260
H          5.68890       -5.74280       -6.82530
H          4.00700       -6.18510       -6.46420
H          4.40720       -4.51930       -6.98710
H          4.80460       -2.79120       -2.87780
H          2.93330       -1.38180       -2.18880
H         -0.09010       -4.11240       -2.61780
H         -2.27090       -5.12980       -2.28900
H         -4.29150       -6.20460       -2.76160
H         -4.15470       -5.74930       -1.02980
H         -5.74520       -6.07040       -1.75120
H         -4.14100       -1.34230       -2.94250
H         -1.93610       -0.31280       -3.26220
H         -0.21130        2.99770        3.52300
H         -2.21910        4.40560        3.24280
H         -6.00040        2.27220        1.20330
H         -6.63140        3.85140        0.68780
H         -5.33790        3.08060       -0.25400
H         -3.85850        1.50720        0.55900
H         -1.91270        0.10370        0.87640
H          1.67980        1.56120        4.46710
H          1.75850        0.71660        6.75120
H          1.79420       -1.29800        9.80250
H          1.63160        0.25120        8.94990
H          2.63030       -1.07650        8.25160
H         -1.32530       -2.09410        5.81460
H         -1.39230       -1.23220        3.50510
H          3.21850       -3.61400        1.67990
H          4.58040       -4.32360       -0.17680
H          5.81730       -5.11960       -1.99200
H          7.57310       -5.25850       -2.17220
H          6.85450       -5.35460       -0.54340
H          7.08820       -0.90430        0.33350
H          5.70390       -0.15980        2.19260
H          3.41380        0.96520        1.96100
H          3.91320        3.15880        2.97850
H          4.50330        3.25220        7.83250
H          5.55540        4.66220        7.58840
H          6.15840        3.04240        7.17220
H          4.72360        1.22160        6.70790
H          4.26710       -0.93920        5.68930
H         -0.43390       -4.05850        7.95870
H         -1.25900       -4.83240       10.14260
H         -0.56220       -9.30240       10.77650
H         -2.31050       -9.68640       10.65850
H         -1.55760       -9.41670       12.24540
H         -1.58530       -8.81140        8.60620
H         -0.72530       -8.05290        6.45430
H         -2.52020       -5.81610        5.31550
H         -3.50380       -6.52700        3.16680
H         -0.47790       -6.54390       -0.47620
H         -0.43460       -8.32020       -0.21850
H         -1.52410       -7.62450       -1.43100
H          0.41970       -7.27200        1.62740
H          1.38410       -6.56860        3.75150
H          1.69860       -6.10760        7.88070
H          5.58410       -2.17560       10.85410
H          6.17310       -2.76950       13.16960
H          6.23860       -4.80000       16.17800
H          5.70870       -3.27820       15.42100
H          7.16880       -4.11860       14.82140
H          3.95850       -6.41770       12.85680
