190

C         -4.03600        5.92330        0.30830
C         -5.20160        5.27450       -0.02300
C         -5.37760        3.83440       -0.26580
O         -4.53470        3.01460       -0.57890
C         -6.81260        3.56070       -0.05560
C         -7.44150        2.31800       -0.07090
C         -8.79390        2.37430        0.16880
C         -9.47210        3.57670        0.40780
C         -8.86520        4.81070        0.41750
C         -7.49010        4.77460        0.17260
C         -6.52000        5.86100        0.06650
C         -6.82350        7.19220       -0.07540
C         -8.11750        7.73270        0.05690
N         -9.14440        8.23410        0.17070
C         -5.90510        8.15670       -0.52470
N         -5.24250        8.96950       -0.99510
C        -10.80410        2.88670        0.56780
C        -11.77470        2.97870       -0.62840
C        -12.74870        1.84730       -0.39120
C        -12.10750        0.70830       -0.61980
C        -10.68910        1.05080       -1.01520
C        -10.93390        2.37040       -1.75830
C        -10.04830        1.54600        0.29880
C         -2.72390        5.43000        0.34050
C         -1.65050        6.01050        1.05590
N         -1.71940        7.10900        1.88310
C         -2.35360        8.30010        1.49630
C         -3.05390        9.05470        2.43810
C         -3.64640       10.24080        2.06870
C         -3.55240       10.69900        0.75550
S         -4.33870       12.22790        0.38600
C         -4.50780       12.17340       -1.42060
C         -2.84360        9.95370       -0.18090
C         -2.25340        8.76280        0.18690
C         -0.98560        7.08680        3.08040
C         -0.94380        5.92680        3.85020
C         -0.21990        5.88520        5.02480
C          0.47600        7.00790        5.45210
S          1.43210        7.07320        6.93340
C          1.58940        5.33030        7.42050
C          0.42010        8.17670        4.69440
C         -0.29920        8.21800        3.52200
C         -0.47690        5.24580        0.91370
S          1.14320        5.38490        1.52980
C          1.59890        3.95450        0.66300
C          0.57140        3.40390       -0.07030
N          0.71150        2.23140       -0.83830
C          0.25150        1.01910       -0.33790
C          0.10990       -0.08650       -1.17800
C         -0.26030       -1.31850       -0.67850
C         -0.53110       -1.46770        0.67430
S         -0.94210       -3.01080        1.44130
C         -1.25730       -4.12270        0.04130
C         -0.46810       -0.35380        1.50470
C         -0.08640        0.87340        1.00910
C          1.60800        2.29180       -1.91960
C          1.58570        3.40240       -2.76200
C          2.49960        3.51850       -3.78630
C          3.45340        2.52680       -3.99620
S          4.60050        2.76470       -5.31690
C          5.99520        1.70520       -4.83160
C          3.46210        1.40440       -3.17910
C          2.55490        1.29490       -2.14480
C         -0.62030        4.14950        0.07190
S         -2.22920        3.95420       -0.49640
C          2.83580        3.19710        0.85650
C          3.85710        3.12170       -0.05760
F          3.97270        4.04650       -1.02200
C          4.74210        2.02650       -0.07880
F          5.64300        1.98540       -1.07760
C          4.59130        0.95210        0.77020
C          3.67170        1.10800        1.84490
N          3.56900        0.15810        2.78940
C          2.74650        0.32840        3.79440
C          2.72820       -0.76320        4.82090
C          3.85460       -0.55100        5.83570
C          1.98260        1.52400        3.91090
N          2.01440        2.42580        2.96140
C          2.83480        2.24720        1.91280
C          1.12030        1.85290        5.09320
C         -0.29910        1.30490        4.93430
C          5.18650       -0.36050        0.50200
C          4.32070       -1.44790        0.54440
C          4.81590       -2.69480        0.20760
N          4.15990       -3.89490        0.14320
C          2.77190       -4.10410        0.46350
C          2.56800       -4.31410        1.96210
C          5.05660       -4.85700       -0.24580
C          6.32790       -4.25970       -0.45960
C          6.17440       -2.86980       -0.16400
C          7.02810       -1.77050       -0.18900
C          6.52950       -0.52770        0.13630
C          7.39940       -5.05180       -0.86740
C          7.19110       -6.39390       -1.06960
C          5.91920       -6.98560       -0.89130
C          4.85130       -6.20990       -0.43800
C          5.79660       -8.39170       -1.15570
C          4.71380       -9.11330       -1.55200
C          3.42010       -8.61000       -2.08730
O          2.94800       -7.49400       -2.02340
C          2.80460       -9.75780       -2.77970
C          1.62350       -9.74220       -3.51930
C          1.28380      -10.95950       -4.05700
C          2.06650      -12.10970       -3.88230
C          3.23400      -12.13880       -3.15860
C          3.59190      -10.91070       -2.59330
C          4.73770      -10.55540       -1.76650
C          5.62530      -11.43560       -1.20900
C          6.66290      -11.08700       -0.31670
N          7.51110      -10.89460        0.43310
C          5.59310      -12.83210       -1.40840
N          5.62440      -13.97340       -1.52840
C          1.12810      -12.96750       -4.69300
C          0.17870      -13.91930       -3.92400
C         -0.03790      -13.30250       -2.56430
C         -0.78030      -12.21550       -2.72670
C         -1.07860      -12.07730       -4.19920
C         -1.15370      -13.55910       -4.60030
C          0.25480      -11.68760       -4.88470
H         -4.14520        6.93900        0.67630
H         -6.88130        1.41490       -0.25620
H         -9.39630        5.72870        0.60730
H        -11.29770        3.02270        1.52830
H        -12.19950        3.96480       -0.79460
H        -13.75430        1.98510       -0.03950
H        -12.47050       -0.29530       -0.49690
H        -10.12620        0.27980       -1.53460
H        -11.51140        2.22820       -2.67020
H        -10.02650        2.92690       -1.98530
H        -10.03860        0.78760        1.07980
H         -3.13340        8.69760        3.45430
H         -4.19790       10.82360        2.79020
H         -3.55440       12.38650       -1.89580
H         -5.22600       12.94660       -1.67520
H         -4.88810       11.19660       -1.70200
H         -2.74000       10.29610       -1.19630
H         -1.70330        8.18460       -0.54080
H         -1.48900        5.05150        3.52860
H         -0.22060        4.97600        5.60370
H          0.62940        4.93850        7.74430
H          1.99460        4.75670        6.59210
H          2.28660        5.32140        8.25250
H          0.95890        9.04780        5.03360
H         -0.32440        9.12270        2.93420
H          0.29760        0.02000       -2.23530
H         -0.33630       -2.15190       -1.35880
H         -0.33710       -4.31790       -0.50200
H         -1.62710       -5.04530        0.47790
H         -2.01460       -3.68960       -0.60550
H         -0.71410       -0.46690        2.54900
H         -0.03370        1.72550        1.66930
H          0.85720        4.18120       -2.59470
H          2.49200        4.38500       -4.42860
H          6.83170        2.01530       -5.44990
H          5.76510        0.66110       -5.02450
H          6.22250        1.87100       -3.78300
H          4.18500        0.61710       -3.32100
H          2.59860        0.43450       -1.49210
H          2.89160       -1.71250        4.30960
H          1.76640       -0.79970        5.33070
H          3.73650        0.39570        6.35900
H          4.81420       -0.54410        5.32520
H          3.85360       -1.35410        6.56820
H          1.56730        1.46220        6.00790
H          1.06870        2.94100        5.15890
H         -0.90160        1.57800        5.79760
H         -0.76370        1.71920        4.04320
H         -0.29370        0.22070        4.84960
H          3.28500       -1.30650        0.80970
H          2.20680       -3.22710        0.13350
H          2.41940       -4.97320       -0.09720
H          1.50900       -4.40640        2.18650
H          2.96670       -3.46380        2.51090
H          3.08160       -5.21340        2.29380
H          8.06420       -1.89020       -0.46630
H          7.18070        0.33230        0.12210
H          8.37490       -4.61500       -1.01780
H          8.00930       -7.02000       -1.39330
H          3.90030       -6.66500       -0.22720
H          6.73340       -8.93340       -1.08020
H          1.05440       -8.83300       -3.63500
H          3.83090      -13.02780       -3.04100
H          1.55310      -13.43280       -5.58000
H          0.48070      -14.96300       -3.93460
H          0.40510      -13.67680       -1.66010
H         -1.08170      -11.49930       -1.98470
H         -1.92260      -11.44430       -4.46120
H         -2.00430      -14.07310       -4.15530
H         -1.15040      -13.71780       -5.67780
H          0.10780      -11.31720       -5.89740
