
  xtb     02042207473D
 energy: -297.481298676446 gnorm: 0.000825852146 xtb: 6.4.1 (unknown)
180198  0     0  0            999 V2000
   -6.8267   -1.3550    0.8574 C   0  0  0  0  0  0  0  0  0  0  0  0
   -6.9207   -2.5121    1.5834 C   0  0  0  0  0  0  0  0  0  0  0  0
   -5.7955   -3.2418    2.1791 C   0  0  0  0  0  0  0  0  0  0  0  0
   -4.6140   -2.9437    2.1341 O   0  0  0  0  0  0  0  0  0  0  0  0
   -6.3761   -4.4214    2.8444 C   0  0  0  0  0  0  0  0  0  0  0  0
   -5.6920   -5.4090    3.5485 C   0  0  0  0  0  0  0  0  0  0  0  0
   -6.5030   -6.3883    4.0699 C   0  0  0  0  0  0  0  0  0  0  0  0
   -7.8939   -6.3861    3.9013 C   0  0  0  0  0  0  0  0  0  0  0  0
   -8.5809   -5.4197    3.2056 C   0  0  0  0  0  0  0  0  0  0  0  0
   -7.7752   -4.4126    2.6677 C   0  0  0  0  0  0  0  0  0  0  0  0
   -8.1398   -3.2422    1.8702 C   0  0  0  0  0  0  0  0  0  0  0  0
   -9.4061   -2.9358    1.4408 C   0  0  0  0  0  0  0  0  0  0  0  0
  -10.5568   -3.6934    1.7432 C   0  0  0  0  0  0  0  0  0  0  0  0
  -11.5372   -4.2537    1.9527 N   0  0  0  0  0  0  0  0  0  0  0  0
   -9.7598   -1.8429    0.6217 C   0  0  0  0  0  0  0  0  0  0  0  0
  -10.1370   -0.9908   -0.0509 N   0  0  0  0  0  0  0  0  0  0  0  0
   -8.0732   -7.6541    4.6972 C   0  0  0  0  0  0  0  0  0  0  0  0
   -8.5952   -7.5260    6.1496 C   0  0  0  0  0  0  0  0  0  0  0  0
   -8.1870   -6.1564    6.6331 C   0  0  0  0  0  0  0  0  0  0  0  0
   -6.8704   -6.1594    6.7934 C   0  0  0  0  0  0  0  0  0  0  0  0
   -6.3645   -7.5311    6.4207 C   0  0  0  0  0  0  0  0  0  0  0  0
   -7.5537   -8.3916    6.8767 C   0  0  0  0  0  0  0  0  0  0  0  0
   -6.5232   -7.6572    4.8851 C   0  0  0  0  0  0  0  0  0  0  0  0
   -5.6987   -0.6433    0.4235 C   0  0  0  0  0  0  0  0  0  0  0  0
   -5.8168    0.4291   -0.4515 C   0  0  0  0  0  0  0  0  0  0  0  0
   -4.6102    0.9234   -0.9419 C   0  0  0  0  0  0  0  0  0  0  0  0
   -4.5349    2.0223   -1.9115 C   0  0  0  0  0  0  0  0  0  0  0  0
   -3.5970    3.0593   -1.7782 C   0  0  0  0  0  0  0  0  0  0  0  0
   -2.7788    2.9900   -0.6910 O   0  0  0  0  0  0  0  0  0  0  0  0
   -1.9793    4.0981   -0.3238 C   0  0  0  0  0  0  0  0  0  0  0  0
   -0.6697    4.2054   -1.1007 C   0  0  0  0  0  0  0  0  0  0  0  0
   -3.5733    4.0962   -2.7052 C   0  0  0  0  0  0  0  0  0  0  0  0
   -4.4512    4.0902   -3.7706 C   0  0  0  0  0  0  0  0  0  0  0  0
   -5.3955    3.0925   -3.9086 C   0  0  0  0  0  0  0  0  0  0  0  0
   -5.4690    2.0741   -2.9644 C   0  0  0  0  0  0  0  0  0  0  0  0
   -6.4078    1.0973   -2.9872 O   0  0  0  0  0  0  0  0  0  0  0  0
   -7.4986    1.1810   -3.8859 C   0  0  0  0  0  0  0  0  0  0  0  0
   -8.5429    0.1676   -3.4395 C   0  0  0  0  0  0  0  0  0  0  0  0
   -3.5312    0.2409   -0.3815 C   0  0  0  0  0  0  0  0  0  0  0  0
   -4.0199   -0.9895    0.7342 S   0  0  0  0  0  0  0  0  0  0  0  0
   -2.1383    0.3879   -0.6837 C   0  0  0  0  0  0  0  0  0  0  0  0
   -1.5359    0.3536   -1.9309 C   0  0  0  0  0  0  0  0  0  0  0  0
   -2.1826    0.0464   -3.1178 N   0  0  0  0  0  0  0  0  0  0  0  0
   -3.2240   -0.8918   -3.1214 C   0  0  0  0  0  0  0  0  0  0  0  0
   -3.2170   -1.9654   -2.2348 C   0  0  0  0  0  0  0  0  0  0  0  0
   -4.2964   -2.8221   -2.1479 C   0  0  0  0  0  0  0  0  0  0  0  0
   -5.3931   -2.6375   -2.9756 C   0  0  0  0  0  0  0  0  0  0  0  0
   -6.8731   -3.5995   -2.8829 S   0  0  0  0  0  0  0  0  0  0  0  0
   -6.6183   -4.6445   -1.4224 C   0  0  0  0  0  0  0  0  0  0  0  0
   -5.3566   -1.6335   -3.9404 C   0  0  0  0  0  0  0  0  0  0  0  0
   -4.2932   -0.7627   -4.0067 C   0  0  0  0  0  0  0  0  0  0  0  0
   -1.7269    0.6201   -4.3094 C   0  0  0  0  0  0  0  0  0  0  0  0
   -1.6815   -0.1180   -5.4892 C   0  0  0  0  0  0  0  0  0  0  0  0
   -1.2095    0.4474   -6.6574 C   0  0  0  0  0  0  0  0  0  0  0  0
   -0.7656    1.7630   -6.6657 C   0  0  0  0  0  0  0  0  0  0  0  0
   -0.1193    2.5860   -8.0888 S   0  0  0  0  0  0  0  0  0  0  0  0
   -0.3407    1.3846   -9.4317 C   0  0  0  0  0  0  0  0  0  0  0  0
   -0.8113    2.5064   -5.4886 C   0  0  0  0  0  0  0  0  0  0  0  0
   -1.2882    1.9443   -4.3267 C   0  0  0  0  0  0  0  0  0  0  0  0
   -0.1406    0.5624   -1.8172 C   0  0  0  0  0  0  0  0  0  0  0  0
    1.1579    0.6528   -2.9514 S   0  0  0  0  0  0  0  0  0  0  0  0
    2.3217    0.9098   -1.6433 C   0  0  0  0  0  0  0  0  0  0  0  0
    1.7172    0.8470   -0.3852 C   0  0  0  0  0  0  0  0  0  0  0  0
    2.3185    0.9349    0.8542 N   0  0  0  0  0  0  0  0  0  0  0  0
    3.5227    0.3287    1.1942 C   0  0  0  0  0  0  0  0  0  0  0  0
    4.0170   -0.7666    0.4840 C   0  0  0  0  0  0  0  0  0  0  0  0
    5.2669   -1.2817    0.7657 C   0  0  0  0  0  0  0  0  0  0  0  0
    6.0398   -0.7222    1.7733 C   0  0  0  0  0  0  0  0  0  0  0  0
    7.6866   -1.2655    2.1318 S   0  0  0  0  0  0  0  0  0  0  0  0
    8.3130   -1.6536    0.4689 C   0  0  0  0  0  0  0  0  0  0  0  0
    5.5148    0.3103    2.5434 C   0  0  0  0  0  0  0  0  0  0  0  0
    4.2767    0.8365    2.2566 C   0  0  0  0  0  0  0  0  0  0  0  0
    1.6056    1.6564    1.8430 C   0  0  0  0  0  0  0  0  0  0  0  0
    1.2277    1.0518    3.0395 C   0  0  0  0  0  0  0  0  0  0  0  0
    0.5130    1.7688    3.9721 C   0  0  0  0  0  0  0  0  0  0  0  0
    0.1657    3.0983    3.7299 C   0  0  0  0  0  0  0  0  0  0  0  0
   -0.7649    3.9043    4.9899 S   0  0  0  0  0  0  0  0  0  0  0  0
   -0.8870    5.6228    4.4161 C   0  0  0  0  0  0  0  0  0  0  0  0
    0.5561    3.7040    2.5429 C   0  0  0  0  0  0  0  0  0  0  0  0
    1.2753    2.9842    1.6084 C   0  0  0  0  0  0  0  0  0  0  0  0
    0.3124    0.6918   -0.5134 C   0  0  0  0  0  0  0  0  0  0  0  0
   -0.9861    0.5645    0.6232 S   0  0  0  0  0  0  0  0  0  0  0  0
    3.6457    1.2240   -2.0232 C   0  0  0  0  0  0  0  0  0  0  0  0
    4.1371    1.2427   -3.3213 C   0  0  0  0  0  0  0  0  0  0  0  0
    5.4788    1.6120   -3.4015 C   0  0  0  0  0  0  0  0  0  0  0  0
    6.2454    1.6853   -4.5024 O   0  0  0  0  0  0  0  0  0  0  0  0
    5.6383    1.3902   -5.7414 C   0  0  0  0  0  0  0  0  0  0  0  0
    6.0493    1.9100   -2.1505 C   0  0  0  0  0  0  0  0  0  0  0  0
    4.8545    1.7342   -0.8946 S   0  0  0  0  0  0  0  0  0  0  0  0
    7.4161    2.0827   -1.9017 C   0  0  0  0  0  0  0  0  0  0  0  0
    8.0542    2.2805   -0.7058 C   0  0  0  0  0  0  0  0  0  0  0  0
    9.4403    1.7892   -0.5321 C   0  0  0  0  0  0  0  0  0  0  0  0
   10.2219    1.4715   -1.4039 O   0  0  0  0  0  0  0  0  0  0  0  0
    9.6314    1.6810    0.9300 C   0  0  0  0  0  0  0  0  0  0  0  0
   10.7216    1.1311    1.5987 C   0  0  0  0  0  0  0  0  0  0  0  0
   10.6017    1.1392    2.9677 C   0  0  0  0  0  0  0  0  0  0  0  0
    9.4860    1.6683    3.6288 C   0  0  0  0  0  0  0  0  0  0  0  0
    8.4102    2.2284    2.9829 C   0  0  0  0  0  0  0  0  0  0  0  0
    8.5017    2.2066    1.5902 C   0  0  0  0  0  0  0  0  0  0  0  0
    7.5663    2.6995    0.5828 C   0  0  0  0  0  0  0  0  0  0  0  0
    6.5467    3.5934    0.8070 C   0  0  0  0  0  0  0  0  0  0  0  0
    5.9174    4.3119   -0.2294 C   0  0  0  0  0  0  0  0  0  0  0  0
    5.4210    4.9698   -1.0297 N   0  0  0  0  0  0  0  0  0  0  0  0
    6.0595    3.9526    2.0752 C   0  0  0  0  0  0  0  0  0  0  0  0
    5.5807    4.2569    3.0750 N   0  0  0  0  0  0  0  0  0  0  0  0
   10.0409    1.3450    4.9932 C   0  0  0  0  0  0  0  0  0  0  0  0
   10.6412    2.5061    5.8230 C   0  0  0  0  0  0  0  0  0  0  0  0
   11.1095    3.5417    4.8310 C   0  0  0  0  0  0  0  0  0  0  0  0
   12.1690    3.0501    4.2027 C   0  0  0  0  0  0  0  0  0  0  0  0
   12.4365    1.6733    4.7587 C   0  0  0  0  0  0  0  0  0  0  0  0
   11.9880    1.8777    6.2147 C   0  0  0  0  0  0  0  0  0  0  0  0
   11.2883    0.7630    4.2566 C   0  0  0  0  0  0  0  0  0  0  0  0
   -7.7531   -0.9291    0.4929 H   0  0  0  0  0  0  0  0  0  0  0  0
   -4.6190   -5.3710    3.6540 H   0  0  0  0  0  0  0  0  0  0  0  0
   -9.6512   -5.4345    3.0870 H   0  0  0  0  0  0  0  0  0  0  0  0
   -8.5247   -8.4902    4.1666 H   0  0  0  0  0  0  0  0  0  0  0  0
   -9.6421   -7.7878    6.2772 H   0  0  0  0  0  0  0  0  0  0  0  0
   -8.8694   -5.3350    6.7502 H   0  0  0  0  0  0  0  0  0  0  0  0
   -6.2325   -5.3406    7.0707 H   0  0  0  0  0  0  0  0  0  0  0  0
   -5.3801   -7.7983    6.7962 H   0  0  0  0  0  0  0  0  0  0  0  0
   -7.5120   -9.4175    6.5131 H   0  0  0  0  0  0  0  0  0  0  0  0
   -7.6850   -8.3894    7.9577 H   0  0  0  0  0  0  0  0  0  0  0  0
   -5.9621   -8.4960    4.4773 H   0  0  0  0  0  0  0  0  0  0  0  0
   -6.7763    0.8230   -0.7286 H   0  0  0  0  0  0  0  0  0  0  0  0
   -2.5563    5.0277   -0.4032 H   0  0  0  0  0  0  0  0  0  0  0  0
   -1.7526    3.9140    0.7314 H   0  0  0  0  0  0  0  0  0  0  0  0
   -0.0547    4.9858   -0.6606 H   0  0  0  0  0  0  0  0  0  0  0  0
   -0.8335    4.4485   -2.1470 H   0  0  0  0  0  0  0  0  0  0  0  0
   -0.1323    3.2625   -1.0469 H   0  0  0  0  0  0  0  0  0  0  0  0
   -2.8790    4.9135   -2.6076 H   0  0  0  0  0  0  0  0  0  0  0  0
   -4.4059    4.8850   -4.4994 H   0  0  0  0  0  0  0  0  0  0  0  0
   -6.0744    3.1166   -4.7450 H   0  0  0  0  0  0  0  0  0  0  0  0
   -7.1609    0.9599   -4.9083 H   0  0  0  0  0  0  0  0  0  0  0  0
   -7.9265    2.1922   -3.8691 H   0  0  0  0  0  0  0  0  0  0  0  0
   -9.3638    0.1491   -4.1502 H   0  0  0  0  0  0  0  0  0  0  0  0
   -8.1036   -0.8239   -3.3767 H   0  0  0  0  0  0  0  0  0  0  0  0
   -8.9342    0.4286   -2.4601 H   0  0  0  0  0  0  0  0  0  0  0  0
   -2.3659   -2.1268   -1.5902 H   0  0  0  0  0  0  0  0  0  0  0  0
   -4.2635   -3.6213   -1.4254 H   0  0  0  0  0  0  0  0  0  0  0  0
   -5.8370   -5.3746   -1.6144 H   0  0  0  0  0  0  0  0  0  0  0  0
   -6.3736   -4.0248   -0.5644 H   0  0  0  0  0  0  0  0  0  0  0  0
   -7.5630   -5.1532   -1.2554 H   0  0  0  0  0  0  0  0  0  0  0  0
   -6.1856   -1.5325   -4.6228 H   0  0  0  0  0  0  0  0  0  0  0  0
   -4.2913    0.0386   -4.7301 H   0  0  0  0  0  0  0  0  0  0  0  0
   -2.0109   -1.1464   -5.4889 H   0  0  0  0  0  0  0  0  0  0  0  0
   -1.1830   -0.1556   -7.5507 H   0  0  0  0  0  0  0  0  0  0  0  0
   -0.0039    1.8889  -10.3321 H   0  0  0  0  0  0  0  0  0  0  0  0
    0.2710    0.5051   -9.2524 H   0  0  0  0  0  0  0  0  0  0  0  0
   -1.3908    1.1240   -9.5255 H   0  0  0  0  0  0  0  0  0  0  0  0
   -0.4712    3.5305   -5.5013 H   0  0  0  0  0  0  0  0  0  0  0  0
   -1.3377    2.5276   -3.4221 H   0  0  0  0  0  0  0  0  0  0  0  0
    3.4251   -1.2046   -0.3059 H   0  0  0  0  0  0  0  0  0  0  0  0
    5.6358   -2.1166    0.1905 H   0  0  0  0  0  0  0  0  0  0  0  0
    7.9652   -0.8971   -0.2280 H   0  0  0  0  0  0  0  0  0  0  0  0
    7.9922   -2.6447    0.1617 H   0  0  0  0  0  0  0  0  0  0  0  0
    9.3956   -1.6219    0.5383 H   0  0  0  0  0  0  0  0  0  0  0  0
    6.1026    0.7132    3.3523 H   0  0  0  0  0  0  0  0  0  0  0  0
    3.9058    1.6724    2.8289 H   0  0  0  0  0  0  0  0  0  0  0  0
    1.4956    0.0231    3.2261 H   0  0  0  0  0  0  0  0  0  0  0  0
    0.2087    1.3092    4.8996 H   0  0  0  0  0  0  0  0  0  0  0  0
   -1.4719    5.6729    3.5020 H   0  0  0  0  0  0  0  0  0  0  0  0
    0.1072    6.0364    4.2756 H   0  0  0  0  0  0  0  0  0  0  0  0
   -1.4000    6.1580    5.2092 H   0  0  0  0  0  0  0  0  0  0  0  0
    0.3202    4.7354    2.3371 H   0  0  0  0  0  0  0  0  0  0  0  0
    1.6014    3.4568    0.6943 H   0  0  0  0  0  0  0  0  0  0  0  0
    3.5198    0.9783   -4.1607 H   0  0  0  0  0  0  0  0  0  0  0  0
    5.2732    0.3590   -5.7690 H   0  0  0  0  0  0  0  0  0  0  0  0
    4.8114    2.0748   -5.9505 H   0  0  0  0  0  0  0  0  0  0  0  0
    6.4176    1.5207   -6.4897 H   0  0  0  0  0  0  0  0  0  0  0  0
    8.0599    1.8875   -2.7539 H   0  0  0  0  0  0  0  0  0  0  0  0
   11.5688    0.7434    1.0543 H   0  0  0  0  0  0  0  0  0  0  0  0
    7.5592    2.6431    3.4982 H   0  0  0  0  0  0  0  0  0  0  0  0
    9.4450    0.6631    5.5965 H   0  0  0  0  0  0  0  0  0  0  0  0
   10.0032    2.8650    6.6263 H   0  0  0  0  0  0  0  0  0  0  0  0
   10.6023    4.4717    4.6518 H   0  0  0  0  0  0  0  0  0  0  0  0
   12.7242    3.4878    3.3937 H   0  0  0  0  0  0  0  0  0  0  0  0
   13.4344    1.2749    4.5939 H   0  0  0  0  0  0  0  0  0  0  0  0
   11.8865    0.9472    6.7716 H   0  0  0  0  0  0  0  0  0  0  0  0
   12.6314    2.5658    6.7613 H   0  0  0  0  0  0  0  0  0  0  0  0
   11.5083   -0.2947    4.3878 H   0  0  0  0  0  0  0  0  0  0  0  0
  1  2  2  0  0  0  0
  2  3  1  0  0  0  0
  3  4  2  0  0  0  0
  3  5  1  0  0  0  0
  5  6  2  0  0  0  0
  6  7  1  0  0  0  0
  7  8  2  0  0  0  0
  8  9  1  0  0  0  0
  9 10  2  0  0  0  0
 10 11  1  0  0  0  0
 11 12  2  0  0  0  0
 12 13  1  0  0  0  0
 13 14  3  0  0  0  0
 12 15  1  0  0  0  0
 15 16  3  0  0  0  0
  8 17  1  0  0  0  0
 17 18  1  0  0  0  0
 18 19  1  0  0  0  0
 19 20  2  0  0  0  0
 20 21  1  0  0  0  0
 21 22  1  0  0  0  0
 21 23  1  0  0  0  0
  1 24  1  0  0  0  0
 24 25  2  0  0  0  0
 25 26  1  0  0  0  0
 26 27  1  0  0  0  0
 27 28  2  0  0  0  0
 28 29  1  0  0  0  0
 29 30  1  0  0  0  0
 30 31  1  0  0  0  0
 28 32  1  0  0  0  0
 32 33  2  0  0  0  0
 33 34  1  0  0  0  0
 34 35  2  0  0  0  0
 35 36  1  0  0  0  0
 36 37  1  0  0  0  0
 37 38  1  0  0  0  0
 26 39  2  0  0  0  0
 39 40  1  0  0  0  0
 39 41  1  0  0  0  0
 41 42  2  0  0  0  0
 42 43  1  0  0  0  0
 43 44  1  0  0  0  0
 44 45  2  0  0  0  0
 45 46  1  0  0  0  0
 46 47  2  0  0  0  0
 47 48  1  0  0  0  0
 48 49  1  0  0  0  0
 47 50  1  0  0  0  0
 50 51  2  0  0  0  0
 43 52  1  0  0  0  0
 52 53  2  0  0  0  0
 53 54  1  0  0  0  0
 54 55  2  0  0  0  0
 55 56  1  0  0  0  0
 56 57  1  0  0  0  0
 55 58  1  0  0  0  0
 58 59  2  0  0  0  0
 42 60  1  0  0  0  0
 60 61  1  0  0  0  0
 61 62  1  0  0  0  0
 62 63  2  0  0  0  0
 63 64  1  0  0  0  0
 64 65  1  0  0  0  0
 65 66  2  0  0  0  0
 66 67  1  0  0  0  0
 67 68  2  0  0  0  0
 68 69  1  0  0  0  0
 69 70  1  0  0  0  0
 68 71  1  0  0  0  0
 71 72  2  0  0  0  0
 64 73  1  0  0  0  0
 73 74  2  0  0  0  0
 74 75  1  0  0  0  0
 75 76  2  0  0  0  0
 76 77  1  0  0  0  0
 77 78  1  0  0  0  0
 76 79  1  0  0  0  0
 79 80  2  0  0  0  0
 63 81  1  0  0  0  0
 81 82  1  0  0  0  0
 62 83  1  0  0  0  0
 83 84  2  0  0  0  0
 84 85  1  0  0  0  0
 85 86  1  0  0  0  0
 86 87  1  0  0  0  0
 85 88  2  0  0  0  0
 88 89  1  0  0  0  0
 88 90  1  0  0  0  0
 90 91  2  0  0  0  0
 91 92  1  0  0  0  0
 92 93  2  0  0  0  0
 92 94  1  0  0  0  0
 94 95  2  0  0  0  0
 95 96  1  0  0  0  0
 96 97  2  0  0  0  0
 97 98  1  0  0  0  0
 98 99  2  0  0  0  0
 99100  1  0  0  0  0
100101  2  0  0  0  0
101102  1  0  0  0  0
102103  3  0  0  0  0
101104  1  0  0  0  0
104105  3  0  0  0  0
 97106  1  0  0  0  0
106107  1  0  0  0  0
107108  1  0  0  0  0
108109  2  0  0  0  0
109110  1  0  0  0  0
110111  1  0  0  0  0
110112  1  0  0  0  0
 11  2  1  0  0  0  0
 23 17  1  0  0  0  0
 40 24  1  0  0  0  0
 82 41  1  0  0  0  0
 89 83  1  0  0  0  0
100 91  1  0  0  0  0
112106  1  0  0  0  0
 10  5  1  0  0  0  0
 22 18  1  0  0  0  0
 35 27  1  0  0  0  0
 51 44  1  0  0  0  0
 59 52  1  0  0  0  0
 81 60  2  0  0  0  0
 99 94  1  0  0  0  0
111107  1  0  0  0  0
 23  7  1  0  0  0  0
 72 65  1  0  0  0  0
 80 73  1  0  0  0  0
112 96  1  0  0  0  0
  1113  1  0  0  0  0
  6114  1  0  0  0  0
  9115  1  0  0  0  0
 17116  1  0  0  0  0
 18117  1  0  0  0  0
 19118  1  0  0  0  0
 20119  1  0  0  0  0
 21120  1  0  0  0  0
 22121  1  0  0  0  0
 22122  1  0  0  0  0
 23123  1  0  0  0  0
 25124  1  0  0  0  0
 30125  1  0  0  0  0
 30126  1  0  0  0  0
 31127  1  0  0  0  0
 31128  1  0  0  0  0
 31129  1  0  0  0  0
 32130  1  0  0  0  0
 33131  1  0  0  0  0
 34132  1  0  0  0  0
 37133  1  0  0  0  0
 37134  1  0  0  0  0
 38135  1  0  0  0  0
 38136  1  0  0  0  0
 38137  1  0  0  0  0
 45138  1  0  0  0  0
 46139  1  0  0  0  0
 49140  1  0  0  0  0
 49141  1  0  0  0  0
 49142  1  0  0  0  0
 50143  1  0  0  0  0
 51144  1  0  0  0  0
 53145  1  0  0  0  0
 54146  1  0  0  0  0
 57147  1  0  0  0  0
 57148  1  0  0  0  0
 57149  1  0  0  0  0
 58150  1  0  0  0  0
 59151  1  0  0  0  0
 66152  1  0  0  0  0
 67153  1  0  0  0  0
 70154  1  0  0  0  0
 70155  1  0  0  0  0
 70156  1  0  0  0  0
 71157  1  0  0  0  0
 72158  1  0  0  0  0
 74159  1  0  0  0  0
 75160  1  0  0  0  0
 78161  1  0  0  0  0
 78162  1  0  0  0  0
 78163  1  0  0  0  0
 79164  1  0  0  0  0
 80165  1  0  0  0  0
 84166  1  0  0  0  0
 87167  1  0  0  0  0
 87168  1  0  0  0  0
 87169  1  0  0  0  0
 90170  1  0  0  0  0
 95171  1  0  0  0  0
 98172  1  0  0  0  0
106173  1  0  0  0  0
107174  1  0  0  0  0
108175  1  0  0  0  0
109176  1  0  0  0  0
110177  1  0  0  0  0
111178  1  0  0  0  0
111179  1  0  0  0  0
112180  1  0  0  0  0
M  END
