
  xtb     02062200003D
 energy: -369.721257832907 gnorm: 0.000746976362 xtb: 6.4.1 (unknown)
213233  0     0  0            999 V2000
   -3.4275   -4.2288    4.8791 C   0  0  0  0  0  0  0  0  0  0  0  0
   -2.9419   -5.2188    5.6996 C   0  0  0  0  0  0  0  0  0  0  0  0
   -1.7846   -6.0823    5.4444 C   0  0  0  0  0  0  0  0  0  0  0  0
   -1.2339   -6.2996    4.3776 O   0  0  0  0  0  0  0  0  0  0  0  0
   -1.4286   -6.6842    6.7414 C   0  0  0  0  0  0  0  0  0  0  0  0
   -0.3354   -7.5015    7.0174 C   0  0  0  0  0  0  0  0  0  0  0  0
   -0.2656   -7.9156    8.3262 C   0  0  0  0  0  0  0  0  0  0  0  0
   -1.2116   -7.5441    9.2902 C   0  0  0  0  0  0  0  0  0  0  0  0
   -2.2920   -6.7329    9.0316 C   0  0  0  0  0  0  0  0  0  0  0  0
   -2.3804   -6.2976    7.7067 C   0  0  0  0  0  0  0  0  0  0  0  0
   -3.3678   -5.4326    7.0633 C   0  0  0  0  0  0  0  0  0  0  0  0
   -4.4920   -4.9226    7.6660 C   0  0  0  0  0  0  0  0  0  0  0  0
   -5.5147   -4.2095    7.0133 C   0  0  0  0  0  0  0  0  0  0  0  0
   -6.4151   -3.6485    6.5688 N   0  0  0  0  0  0  0  0  0  0  0  0
   -4.8118   -5.0649    9.0304 C   0  0  0  0  0  0  0  0  0  0  0  0
   -5.1431   -5.1044   10.1298 N   0  0  0  0  0  0  0  0  0  0  0  0
   -0.5114   -8.3075   10.3873 C   0  0  0  0  0  0  0  0  0  0  0  0
    0.3251   -7.4740   11.3811 C   0  0  0  0  0  0  0  0  0  0  0  0
    1.2514   -8.4879   12.0130 C   0  0  0  0  0  0  0  0  0  0  0  0
    2.1468   -8.8410   11.0996 C   0  0  0  0  0  0  0  0  0  0  0  0
    1.8409   -8.0718    9.8348 C   0  0  0  0  0  0  0  0  0  0  0  0
    1.3106   -6.7665   10.4419 C   0  0  0  0  0  0  0  0  0  0  0  0
    0.5430   -8.7225    9.3114 C   0  0  0  0  0  0  0  0  0  0  0  0
   -2.9656   -3.7772    3.6409 C   0  0  0  0  0  0  0  0  0  0  0  0
   -3.3646   -2.5568    3.0459 C   0  0  0  0  0  0  0  0  0  0  0  0
   -4.1718   -1.6045    3.6186 N   0  0  0  0  0  0  0  0  0  0  0  0
   -4.1354   -1.3361    4.9977 C   0  0  0  0  0  0  0  0  0  0  0  0
   -2.9277   -1.3933    5.6967 C   0  0  0  0  0  0  0  0  0  0  0  0
   -2.9177   -1.2595    7.0652 C   0  0  0  0  0  0  0  0  0  0  0  0
   -4.1069   -1.0383    7.7612 C   0  0  0  0  0  0  0  0  0  0  0  0
   -4.0048   -0.9862    9.5216 S   0  0  0  0  0  0  0  0  0  0  0  0
   -5.7160   -1.2905   10.0438 C   0  0  0  0  0  0  0  0  0  0  0  0
   -5.2912   -0.8748    7.0561 C   0  0  0  0  0  0  0  0  0  0  0  0
   -5.3068   -1.0328    5.6835 C   0  0  0  0  0  0  0  0  0  0  0  0
   -4.9269   -0.7781    2.7721 C   0  0  0  0  0  0  0  0  0  0  0  0
   -5.6188   -1.3328    1.6988 C   0  0  0  0  0  0  0  0  0  0  0  0
   -6.3359   -0.5331    0.8318 C   0  0  0  0  0  0  0  0  0  0  0  0
   -6.3739    0.8398    1.0287 C   0  0  0  0  0  0  0  0  0  0  0  0
   -7.2303    1.9661   -0.0265 S   0  0  0  0  0  0  0  0  0  0  0  0
   -7.9585    0.9037   -1.3058 C   0  0  0  0  0  0  0  0  0  0  0  0
   -5.7040    1.3964    2.1178 C   0  0  0  0  0  0  0  0  0  0  0  0
   -4.9895    0.5988    2.9828 C   0  0  0  0  0  0  0  0  0  0  0  0
   -2.7534   -2.3836    1.7933 C   0  0  0  0  0  0  0  0  0  0  0  0
   -2.7646   -1.1048    0.6288 S   0  0  0  0  0  0  0  0  0  0  0  0
   -1.4875   -1.9090   -0.2729 C   0  0  0  0  0  0  0  0  0  0  0  0
   -1.1873   -3.1706    0.2274 C   0  0  0  0  0  0  0  0  0  0  0  0
   -0.3791   -4.1191   -0.3597 N   0  0  0  0  0  0  0  0  0  0  0  0
    0.2765   -5.0045    0.5225 C   0  0  0  0  0  0  0  0  0  0  0  0
    0.0958   -6.3789    0.4277 C   0  0  0  0  0  0  0  0  0  0  0  0
    0.6382   -7.2159    1.3815 C   0  0  0  0  0  0  0  0  0  0  0  0
    1.3636   -6.6873    2.4412 C   0  0  0  0  0  0  0  0  0  0  0  0
    2.0229   -7.6869    3.7355 S   0  0  0  0  0  0  0  0  0  0  0  0
    0.8868   -9.1062    3.7391 C   0  0  0  0  0  0  0  0  0  0  0  0
    1.6010   -5.3178    2.5014 C   0  0  0  0  0  0  0  0  0  0  0  0
    1.0597   -4.4829    1.5491 C   0  0  0  0  0  0  0  0  0  0  0  0
   -0.2966   -4.3072   -1.7387 C   0  0  0  0  0  0  0  0  0  0  0  0
   -1.3206   -3.9105   -2.5952 C   0  0  0  0  0  0  0  0  0  0  0  0
   -1.2210   -4.1098   -3.9589 C   0  0  0  0  0  0  0  0  0  0  0  0
   -0.0960   -4.7191   -4.4949 C   0  0  0  0  0  0  0  0  0  0  0  0
    0.1449   -5.0294   -6.2176 S   0  0  0  0  0  0  0  0  0  0  0  0
   -1.3680   -4.3935   -6.9947 C   0  0  0  0  0  0  0  0  0  0  0  0
    0.9286   -5.1259   -3.6418 C   0  0  0  0  0  0  0  0  0  0  0  0
    0.8331   -4.9217   -2.2850 C   0  0  0  0  0  0  0  0  0  0  0  0
   -1.8909   -3.4103    1.4367 C   0  0  0  0  0  0  0  0  0  0  0  0
   -1.8020   -4.6457    2.6388 S   0  0  0  0  0  0  0  0  0  0  0  0
   -0.8253   -1.1159   -1.2625 C   0  0  0  0  0  0  0  0  0  0  0  0
   -1.4957   -0.0104   -1.8376 C   0  0  0  0  0  0  0  0  0  0  0  0
   -2.7813    0.3557   -1.7506 N   0  0  0  0  0  0  0  0  0  0  0  0
   -2.8384    1.4950   -2.3814 N   0  0  0  0  0  0  0  0  0  0  0  0
   -4.0488    2.2616   -2.4447 C   0  0  0  0  0  0  0  0  0  0  0  0
   -4.1206    3.2171   -1.2583 C   0  0  0  0  0  0  0  0  0  0  0  0
   -1.7206    1.9421   -2.8828 N   0  0  0  0  0  0  0  0  0  0  0  0
   -0.8192    1.0022   -2.5703 C   0  0  0  0  0  0  0  0  0  0  0  0
    0.5795    0.9707   -2.7506 C   0  0  0  0  0  0  0  0  0  0  0  0
    1.1932   -0.1883   -2.3013 C   0  0  0  0  0  0  0  0  0  0  0  0
    0.5282   -1.1813   -1.5717 C   0  0  0  0  0  0  0  0  0  0  0  0
    1.3026   -2.1464   -1.0397 F   0  0  0  0  0  0  0  0  0  0  0  0
    2.5155   -0.3497   -2.5040 F   0  0  0  0  0  0  0  0  0  0  0  0
    1.2883    2.1418   -3.1888 C   0  0  0  0  0  0  0  0  0  0  0  0
    2.4083    2.7187   -2.6013 C   0  0  0  0  0  0  0  0  0  0  0  0
    3.0401    2.2694   -1.4569 N   0  0  0  0  0  0  0  0  0  0  0  0
    4.3999    2.5826   -1.2878 C   0  0  0  0  0  0  0  0  0  0  0  0
    4.8725    3.0544   -0.0644 C   0  0  0  0  0  0  0  0  0  0  0  0
    6.1823    3.4620    0.0577 C   0  0  0  0  0  0  0  0  0  0  0  0
    7.0395    3.4115   -1.0376 C   0  0  0  0  0  0  0  0  0  0  0  0
    8.6784    4.0331   -0.8309 S   0  0  0  0  0  0  0  0  0  0  0  0
    9.0588    4.6257   -2.5079 C   0  0  0  0  0  0  0  0  0  0  0  0
    6.5908    2.8787   -2.2376 C   0  0  0  0  0  0  0  0  0  0  0  0
    5.2796    2.4660   -2.3601 C   0  0  0  0  0  0  0  0  0  0  0  0
    2.3406    1.6341   -0.4227 C   0  0  0  0  0  0  0  0  0  0  0  0
    1.0313    1.9938   -0.0952 C   0  0  0  0  0  0  0  0  0  0  0  0
    0.3438    1.3085    0.8834 C   0  0  0  0  0  0  0  0  0  0  0  0
    0.9524    0.2637    1.5738 C   0  0  0  0  0  0  0  0  0  0  0  0
   -0.0184   -0.5874    2.7845 S   0  0  0  0  0  0  0  0  0  0  0  0
    1.2343   -1.2629    3.9164 C   0  0  0  0  0  0  0  0  0  0  0  0
    2.2646   -0.0780    1.2759 C   0  0  0  0  0  0  0  0  0  0  0  0
    2.9497    0.6027    0.2896 C   0  0  0  0  0  0  0  0  0  0  0  0
    2.7568    3.9206   -3.2696 C   0  0  0  0  0  0  0  0  0  0  0  0
    4.0684    5.0354   -3.1304 S   0  0  0  0  0  0  0  0  0  0  0  0
    3.3545    6.0588   -4.3824 C   0  0  0  0  0  0  0  0  0  0  0  0
    2.1792    5.4772   -4.9299 C   0  0  0  0  0  0  0  0  0  0  0  0
    1.4100    6.0067   -5.9320 N   0  0  0  0  0  0  0  0  0  0  0  0
    1.9541    6.6580   -7.0504 C   0  0  0  0  0  0  0  0  0  0  0  0
    3.1823    6.2640   -7.5756 C   0  0  0  0  0  0  0  0  0  0  0  0
    3.7119    6.9019   -8.6789 C   0  0  0  0  0  0  0  0  0  0  0  0
    3.0125    7.9385   -9.2863 C   0  0  0  0  0  0  0  0  0  0  0  0
    3.5821    8.8257  -10.6982 S   0  0  0  0  0  0  0  0  0  0  0  0
    5.2094    8.1014  -11.0512 C   0  0  0  0  0  0  0  0  0  0  0  0
    1.7735    8.3199   -8.7739 C   0  0  0  0  0  0  0  0  0  0  0  0
    1.2491    7.6924   -7.6668 C   0  0  0  0  0  0  0  0  0  0  0  0
    0.0284    5.7342   -5.9003 C   0  0  0  0  0  0  0  0  0  0  0  0
   -0.6432    5.2958   -7.0356 C   0  0  0  0  0  0  0  0  0  0  0  0
   -1.9823    4.9621   -6.9725 C   0  0  0  0  0  0  0  0  0  0  0  0
   -2.6678    5.0626   -5.7695 C   0  0  0  0  0  0  0  0  0  0  0  0
   -4.3576    4.6057   -5.5520 S   0  0  0  0  0  0  0  0  0  0  0  0
   -4.9270    4.1991   -7.2263 C   0  0  0  0  0  0  0  0  0  0  0  0
   -2.0071    5.5382   -4.6382 C   0  0  0  0  0  0  0  0  0  0  0  0
   -0.6753    5.8754   -4.7033 C   0  0  0  0  0  0  0  0  0  0  0  0
    1.8662    4.2741   -4.2779 C   0  0  0  0  0  0  0  0  0  0  0  0
    0.5934    3.1124   -4.4638 S   0  0  0  0  0  0  0  0  0  0  0  0
    3.7907    7.3389   -4.6965 C   0  0  0  0  0  0  0  0  0  0  0  0
    4.9020    8.0375   -4.2620 C   0  0  0  0  0  0  0  0  0  0  0  0
    6.0229    7.4908   -3.5050 C   0  0  0  0  0  0  0  0  0  0  0  0
    6.1729    6.3550   -3.0845 O   0  0  0  0  0  0  0  0  0  0  0  0
    7.0108    8.5869   -3.3924 C   0  0  0  0  0  0  0  0  0  0  0  0
    8.2353    8.5792   -2.7562 C   0  0  0  0  0  0  0  0  0  0  0  0
    8.9882    9.7424   -2.7990 C   0  0  0  0  0  0  0  0  0  0  0  0
   10.1851    9.7788   -2.1973 F   0  0  0  0  0  0  0  0  0  0  0  0
    8.5131   10.8716   -3.4628 C   0  0  0  0  0  0  0  0  0  0  0  0
    9.2631   11.9805   -3.4926 F   0  0  0  0  0  0  0  0  0  0  0  0
    7.2779   10.8803   -4.0963 C   0  0  0  0  0  0  0  0  0  0  0  0
    6.5196    9.7219   -4.0589 C   0  0  0  0  0  0  0  0  0  0  0  0
    5.1932    9.4091   -4.5973 C   0  0  0  0  0  0  0  0  0  0  0  0
    4.3846   10.2972   -5.2660 C   0  0  0  0  0  0  0  0  0  0  0  0
    3.0651   10.0479   -5.6879 C   0  0  0  0  0  0  0  0  0  0  0  0
    1.9745    9.9404   -6.0365 N   0  0  0  0  0  0  0  0  0  0  0  0
    4.7668   11.6120   -5.5999 C   0  0  0  0  0  0  0  0  0  0  0  0
    5.0243   12.6869   -5.9116 N   0  0  0  0  0  0  0  0  0  0  0  0
   -4.2524   -3.6524    5.2775 H   0  0  0  0  0  0  0  0  0  0  0  0
    0.3795   -7.7522    6.2502 H   0  0  0  0  0  0  0  0  0  0  0  0
   -3.0092   -6.4510    9.7844 H   0  0  0  0  0  0  0  0  0  0  0  0
   -1.0961   -9.0869   10.8723 H   0  0  0  0  0  0  0  0  0  0  0  0
   -0.2566   -6.8535   12.0572 H   0  0  0  0  0  0  0  0  0  0  0  0
    1.1303   -8.8725   13.0087 H   0  0  0  0  0  0  0  0  0  0  0  0
    2.9229   -9.5795   11.1800 H   0  0  0  0  0  0  0  0  0  0  0  0
    2.6396   -7.9958    9.1018 H   0  0  0  0  0  0  0  0  0  0  0  0
    2.0808   -6.2237   10.9872 H   0  0  0  0  0  0  0  0  0  0  0  0
    0.8378   -6.1017    9.7214 H   0  0  0  0  0  0  0  0  0  0  0  0
    0.6604   -9.7794    9.0788 H   0  0  0  0  0  0  0  0  0  0  0  0
   -2.0105   -1.5703    5.1552 H   0  0  0  0  0  0  0  0  0  0  0  0
   -1.9934   -1.3317    7.6178 H   0  0  0  0  0  0  0  0  0  0  0  0
   -5.6620   -1.5305   11.1010 H   0  0  0  0  0  0  0  0  0  0  0  0
   -6.1169   -2.1369    9.4943 H   0  0  0  0  0  0  0  0  0  0  0  0
   -6.3207   -0.4001    9.8972 H   0  0  0  0  0  0  0  0  0  0  0  0
   -6.2153   -0.6584    7.5656 H   0  0  0  0  0  0  0  0  0  0  0  0
   -6.2377   -0.9518    5.1442 H   0  0  0  0  0  0  0  0  0  0  0  0
   -5.5953   -2.4015    1.5461 H   0  0  0  0  0  0  0  0  0  0  0  0
   -6.8602   -0.9963    0.0123 H   0  0  0  0  0  0  0  0  0  0  0  0
   -8.4596    1.5774   -1.9940 H   0  0  0  0  0  0  0  0  0  0  0  0
   -7.1776    0.3568   -1.8260 H   0  0  0  0  0  0  0  0  0  0  0  0
   -8.6825    0.2278   -0.8605 H   0  0  0  0  0  0  0  0  0  0  0  0
   -5.7455    2.4645    2.2688 H   0  0  0  0  0  0  0  0  0  0  0  0
   -4.4615    1.0354    3.8168 H   0  0  0  0  0  0  0  0  0  0  0  0
   -0.4900   -6.7868   -0.3830 H   0  0  0  0  0  0  0  0  0  0  0  0
    0.4734   -8.2780    1.2994 H   0  0  0  0  0  0  0  0  0  0  0  0
   -0.1317   -8.7290    3.7185 H   0  0  0  0  0  0  0  0  0  0  0  0
    1.0877   -9.7592    2.8947 H   0  0  0  0  0  0  0  0  0  0  0  0
    1.0749   -9.6448    4.6632 H   0  0  0  0  0  0  0  0  0  0  0  0
    2.1938   -4.9229    3.3127 H   0  0  0  0  0  0  0  0  0  0  0  0
    1.2142   -3.4155    1.5883 H   0  0  0  0  0  0  0  0  0  0  0  0
   -2.2127   -3.4502   -2.1977 H   0  0  0  0  0  0  0  0  0  0  0  0
   -2.0361   -3.7885   -4.5874 H   0  0  0  0  0  0  0  0  0  0  0  0
   -2.2333   -4.9354   -6.6238 H   0  0  0  0  0  0  0  0  0  0  0  0
   -1.2478   -4.5758   -8.0580 H   0  0  0  0  0  0  0  0  0  0  0  0
   -1.4604   -3.3267   -6.8116 H   0  0  0  0  0  0  0  0  0  0  0  0
    1.8045   -5.5963   -4.0613 H   0  0  0  0  0  0  0  0  0  0  0  0
    1.6395   -5.2234   -1.6348 H   0  0  0  0  0  0  0  0  0  0  0  0
   -4.8831    1.5603   -2.4162 H   0  0  0  0  0  0  0  0  0  0  0  0
   -4.0476    2.8179   -3.3843 H   0  0  0  0  0  0  0  0  0  0  0  0
   -5.0456    3.7836   -1.2995 H   0  0  0  0  0  0  0  0  0  0  0  0
   -3.2804    3.9062   -1.2827 H   0  0  0  0  0  0  0  0  0  0  0  0
   -4.0957    2.6576   -0.3260 H   0  0  0  0  0  0  0  0  0  0  0  0
    4.1990    3.1274    0.7768 H   0  0  0  0  0  0  0  0  0  0  0  0
    6.5475    3.8528    0.9949 H   0  0  0  0  0  0  0  0  0  0  0  0
    8.1837    5.1392   -2.8963 H   0  0  0  0  0  0  0  0  0  0  0  0
    9.3485    3.7972   -3.1478 H   0  0  0  0  0  0  0  0  0  0  0  0
    9.8952    5.3101   -2.4033 H   0  0  0  0  0  0  0  0  0  0  0  0
    7.2528    2.7865   -3.0832 H   0  0  0  0  0  0  0  0  0  0  0  0
    4.9279    2.0503   -3.2927 H   0  0  0  0  0  0  0  0  0  0  0  0
    0.5543    2.8144   -0.6104 H   0  0  0  0  0  0  0  0  0  0  0  0
   -0.6727    1.5789    1.1274 H   0  0  0  0  0  0  0  0  0  0  0  0
    1.7179   -2.1321    3.4807 H   0  0  0  0  0  0  0  0  0  0  0  0
    0.6977   -1.5597    4.8125 H   0  0  0  0  0  0  0  0  0  0  0  0
    1.9572   -0.4889    4.1550 H   0  0  0  0  0  0  0  0  0  0  0  0
    2.7576   -0.8885    1.7885 H   0  0  0  0  0  0  0  0  0  0  0  0
    3.9604    0.3151    0.0432 H   0  0  0  0  0  0  0  0  0  0  0  0
    3.7266    5.4528   -7.1148 H   0  0  0  0  0  0  0  0  0  0  0  0
    4.6646    6.5725   -9.0606 H   0  0  0  0  0  0  0  0  0  0  0  0
    5.1034    7.0522  -11.3107 H   0  0  0  0  0  0  0  0  0  0  0  0
    5.5933    8.6530  -11.9034 H   0  0  0  0  0  0  0  0  0  0  0  0
    5.8696    8.2352  -10.1996 H   0  0  0  0  0  0  0  0  0  0  0  0
    1.2362    9.1272   -9.2457 H   0  0  0  0  0  0  0  0  0  0  0  0
    0.2994    8.0068   -7.2647 H   0  0  0  0  0  0  0  0  0  0  0  0
   -0.1087    5.1965   -7.9685 H   0  0  0  0  0  0  0  0  0  0  0  0
   -2.4703    4.6086   -7.8662 H   0  0  0  0  0  0  0  0  0  0  0  0
   -4.3990    3.3261   -7.5989 H   0  0  0  0  0  0  0  0  0  0  0  0
   -5.9852    3.9765   -7.1301 H   0  0  0  0  0  0  0  0  0  0  0  0
   -4.7888    5.0552   -7.8798 H   0  0  0  0  0  0  0  0  0  0  0  0
   -2.5523    5.6366   -3.7126 H   0  0  0  0  0  0  0  0  0  0  0  0
   -0.1653    6.2455   -3.8266 H   0  0  0  0  0  0  0  0  0  0  0  0
    3.1419    7.8705   -5.3806 H   0  0  0  0  0  0  0  0  0  0  0  0
    8.5970    7.7078   -2.2344 H   0  0  0  0  0  0  0  0  0  0  0  0
    6.9554   11.7807   -4.5924 H   0  0  0  0  0  0  0  0  0  0  0  0
  1  2  2  0  0  0  0
  2  3  1  0  0  0  0
  3  4  2  0  0  0  0
  3  5  1  0  0  0  0
  5  6  2  0  0  0  0
  6  7  1  0  0  0  0
  7  8  2  0  0  0  0
  8  9  1  0  0  0  0
  9 10  2  0  0  0  0
 10 11  1  0  0  0  0
 11 12  2  0  0  0  0
 12 13  1  0  0  0  0
 13 14  3  0  0  0  0
 12 15  1  0  0  0  0
 15 16  3  0  0  0  0
  8 17  1  0  0  0  0
 17 18  1  0  0  0  0
 18 19  1  0  0  0  0
 19 20  2  0  0  0  0
 20 21  1  0  0  0  0
 21 22  1  0  0  0  0
 21 23  1  0  0  0  0
  1 24  1  0  0  0  0
 24 25  2  0  0  0  0
 25 26  1  0  0  0  0
 26 27  1  0  0  0  0
 27 28  2  0  0  0  0
 28 29  1  0  0  0  0
 29 30  2  0  0  0  0
 30 31  1  0  0  0  0
 31 32  1  0  0  0  0
 30 33  1  0  0  0  0
 33 34  2  0  0  0  0
 26 35  1  0  0  0  0
 35 36  2  0  0  0  0
 36 37  1  0  0  0  0
 37 38  2  0  0  0  0
 38 39  1  0  0  0  0
 39 40  1  0  0  0  0
 38 41  1  0  0  0  0
 41 42  2  0  0  0  0
 25 43  1  0  0  0  0
 43 44  1  0  0  0  0
 44 45  1  0  0  0  0
 45 46  2  0  0  0  0
 46 47  1  0  0  0  0
 47 48  1  0  0  0  0
 48 49  2  0  0  0  0
 49 50  1  0  0  0  0
 50 51  2  0  0  0  0
 51 52  1  0  0  0  0
 52 53  1  0  0  0  0
 51 54  1  0  0  0  0
 54 55  2  0  0  0  0
 47 56  1  0  0  0  0
 56 57  2  0  0  0  0
 57 58  1  0  0  0  0
 58 59  2  0  0  0  0
 59 60  1  0  0  0  0
 60 61  1  0  0  0  0
 59 62  1  0  0  0  0
 62 63  2  0  0  0  0
 46 64  1  0  0  0  0
 64 65  1  0  0  0  0
 45 66  1  0  0  0  0
 66 67  1  0  0  0  0
 67 68  2  0  0  0  0
 68 69  1  0  0  0  0
 69 70  1  0  0  0  0
 70 71  1  0  0  0  0
 69 72  1  0  0  0  0
 72 73  2  0  0  0  0
 73 74  1  0  0  0  0
 74 75  2  0  0  0  0
 75 76  1  0  0  0  0
 76 77  1  0  0  0  0
 75 78  1  0  0  0  0
 74 79  1  0  0  0  0
 79 80  2  0  0  0  0
 80 81  1  0  0  0  0
 81 82  1  0  0  0  0
 82 83  2  0  0  0  0
 83 84  1  0  0  0  0
 84 85  2  0  0  0  0
 85 86  1  0  0  0  0
 86 87  1  0  0  0  0
 85 88  1  0  0  0  0
 88 89  2  0  0  0  0
 81 90  1  0  0  0  0
 90 91  2  0  0  0  0
 91 92  1  0  0  0  0
 92 93  2  0  0  0  0
 93 94  1  0  0  0  0
 94 95  1  0  0  0  0
 93 96  1  0  0  0  0
 96 97  2  0  0  0  0
 80 98  1  0  0  0  0
 98 99  1  0  0  0  0
 99100  1  0  0  0  0
100101  2  0  0  0  0
101102  1  0  0  0  0
102103  1  0  0  0  0
103104  2  0  0  0  0
104105  1  0  0  0  0
105106  2  0  0  0  0
106107  1  0  0  0  0
107108  1  0  0  0  0
106109  1  0  0  0  0
109110  2  0  0  0  0
102111  1  0  0  0  0
111112  2  0  0  0  0
112113  1  0  0  0  0
113114  2  0  0  0  0
114115  1  0  0  0  0
115116  1  0  0  0  0
114117  1  0  0  0  0
117118  2  0  0  0  0
101119  1  0  0  0  0
119120  1  0  0  0  0
100121  1  0  0  0  0
121122  2  0  0  0  0
122123  1  0  0  0  0
123124  2  0  0  0  0
123125  1  0  0  0  0
125126  2  0  0  0  0
126127  1  0  0  0  0
127128  1  0  0  0  0
127129  2  0  0  0  0
129130  1  0  0  0  0
129131  1  0  0  0  0
131132  2  0  0  0  0
132133  1  0  0  0  0
133134  2  0  0  0  0
134135  1  0  0  0  0
135136  3  0  0  0  0
134137  1  0  0  0  0
137138  3  0  0  0  0
 11  2  1  0  0  0  0
 23 17  1  0  0  0  0
 65 24  1  0  0  0  0
 76 66  2  0  0  0  0
120 79  1  0  0  0  0
133122  1  0  0  0  0
 10  5  1  0  0  0  0
 22 18  1  0  0  0  0
 34 27  1  0  0  0  0
 42 35  1  0  0  0  0
 64 43  2  0  0  0  0
 73 67  1  0  0  0  0
 89 82  1  0  0  0  0
 97 90  1  0  0  0  0
119 98  2  0  0  0  0
132125  1  0  0  0  0
 23  7  1  0  0  0  0
 55 48  1  0  0  0  0
 63 56  1  0  0  0  0
110103  1  0  0  0  0
118111  1  0  0  0  0
  1139  1  0  0  0  0
  6140  1  0  0  0  0
  9141  1  0  0  0  0
 17142  1  0  0  0  0
 18143  1  0  0  0  0
 19144  1  0  0  0  0
 20145  1  0  0  0  0
 21146  1  0  0  0  0
 22147  1  0  0  0  0
 22148  1  0  0  0  0
 23149  1  0  0  0  0
 28150  1  0  0  0  0
 29151  1  0  0  0  0
 32152  1  0  0  0  0
 32153  1  0  0  0  0
 32154  1  0  0  0  0
 33155  1  0  0  0  0
 34156  1  0  0  0  0
 36157  1  0  0  0  0
 37158  1  0  0  0  0
 40159  1  0  0  0  0
 40160  1  0  0  0  0
 40161  1  0  0  0  0
 41162  1  0  0  0  0
 42163  1  0  0  0  0
 49164  1  0  0  0  0
 50165  1  0  0  0  0
 53166  1  0  0  0  0
 53167  1  0  0  0  0
 53168  1  0  0  0  0
 54169  1  0  0  0  0
 55170  1  0  0  0  0
 57171  1  0  0  0  0
 58172  1  0  0  0  0
 61173  1  0  0  0  0
 61174  1  0  0  0  0
 61175  1  0  0  0  0
 62176  1  0  0  0  0
 63177  1  0  0  0  0
 70178  1  0  0  0  0
 70179  1  0  0  0  0
 71180  1  0  0  0  0
 71181  1  0  0  0  0
 71182  1  0  0  0  0
 83183  1  0  0  0  0
 84184  1  0  0  0  0
 87185  1  0  0  0  0
 87186  1  0  0  0  0
 87187  1  0  0  0  0
 88188  1  0  0  0  0
 89189  1  0  0  0  0
 91190  1  0  0  0  0
 92191  1  0  0  0  0
 95192  1  0  0  0  0
 95193  1  0  0  0  0
 95194  1  0  0  0  0
 96195  1  0  0  0  0
 97196  1  0  0  0  0
104197  1  0  0  0  0
105198  1  0  0  0  0
108199  1  0  0  0  0
108200  1  0  0  0  0
108201  1  0  0  0  0
109202  1  0  0  0  0
110203  1  0  0  0  0
112204  1  0  0  0  0
113205  1  0  0  0  0
116206  1  0  0  0  0
116207  1  0  0  0  0
116208  1  0  0  0  0
117209  1  0  0  0  0
118210  1  0  0  0  0
121211  1  0  0  0  0
126212  1  0  0  0  0
131213  1  0  0  0  0
M  END
