
  xtb     02082207543D
 energy: -311.261113571622 gnorm: 0.000479285465 xtb: 6.4.1 (unknown)
182199  0     0  0            999 V2000
    0.7586   -3.6331   -5.4016 C   0  0  0  0  0  0  0  0  0  0  0  0
    1.7507   -4.5365   -5.1442 C   0  0  0  0  0  0  0  0  0  0  0  0
    2.1511   -5.0399   -3.8233 C   0  0  0  0  0  0  0  0  0  0  0  0
    1.7564   -4.6589   -2.7340 O   0  0  0  0  0  0  0  0  0  0  0  0
    3.0980   -6.1371   -4.0720 C   0  0  0  0  0  0  0  0  0  0  0  0
    3.7070   -6.9511   -3.1191 C   0  0  0  0  0  0  0  0  0  0  0  0
    4.5239   -7.9194   -3.6505 C   0  0  0  0  0  0  0  0  0  0  0  0
    4.7143   -8.0744   -5.0305 C   0  0  0  0  0  0  0  0  0  0  0  0
    4.1219   -7.2773   -5.9812 C   0  0  0  0  0  0  0  0  0  0  0  0
    3.2954   -6.2775   -5.4619 C   0  0  0  0  0  0  0  0  0  0  0  0
    2.5197   -5.2473   -6.1484 C   0  0  0  0  0  0  0  0  0  0  0  0
    2.5852   -4.9535   -7.4841 C   0  0  0  0  0  0  0  0  0  0  0  0
    1.9452   -3.8714   -8.1260 C   0  0  0  0  0  0  0  0  0  0  0  0
    1.5130   -3.0019   -8.7397 N   0  0  0  0  0  0  0  0  0  0  0  0
    3.3712   -5.6647   -8.4155 C   0  0  0  0  0  0  0  0  0  0  0  0
    3.9825   -6.2003   -9.2265 N   0  0  0  0  0  0  0  0  0  0  0  0
    5.6503   -9.2427   -4.8506 C   0  0  0  0  0  0  0  0  0  0  0  0
    7.1671   -8.9827   -5.0242 C   0  0  0  0  0  0  0  0  0  0  0  0
    7.3927   -7.5283   -4.6932 C   0  0  0  0  0  0  0  0  0  0  0  0
    7.2166   -7.3787   -3.3871 C   0  0  0  0  0  0  0  0  0  0  0  0
    6.8679   -8.7290   -2.8114 C   0  0  0  0  0  0  0  0  0  0  0  0
    7.6916   -9.6387   -3.7369 C   0  0  0  0  0  0  0  0  0  0  0  0
    5.4420   -9.0673   -3.3132 C   0  0  0  0  0  0  0  0  0  0  0  0
    0.0525   -2.8026   -4.5144 C   0  0  0  0  0  0  0  0  0  0  0  0
    0.4052   -2.6272   -2.8198 S   0  0  0  0  0  0  0  0  0  0  0  0
   -0.5607   -1.1816   -2.7044 C   0  0  0  0  0  0  0  0  0  0  0  0
   -1.2614   -0.9529   -3.8989 C   0  0  0  0  0  0  0  0  0  0  0  0
   -2.2066    0.1342   -4.1148 C   0  0  0  0  0  0  0  0  0  0  0  0
   -2.6316    0.8434   -3.2085 O   0  0  0  0  0  0  0  0  0  0  0  0
   -2.6183    0.3150   -5.5024 C   0  0  0  0  0  0  0  0  0  0  0  0
   -3.4001    1.3498   -5.9541 C   0  0  0  0  0  0  0  0  0  0  0  0
   -4.0057    2.4670   -5.1847 C   0  0  0  0  0  0  0  0  0  0  0  0
   -5.2903    2.0186   -4.4813 C   0  0  0  0  0  0  0  0  0  0  0  0
   -3.6805    1.2071   -7.6558 S   0  0  0  0  0  0  0  0  0  0  0  0
   -2.7642   -0.2579   -7.7652 C   0  0  0  0  0  0  0  0  0  0  0  0
   -2.5884   -0.9347   -9.0756 C   0  0  0  0  0  0  0  0  0  0  0  0
   -1.1850   -0.6998   -9.6446 C   0  0  0  0  0  0  0  0  0  0  0  0
   -2.2507   -0.6010   -6.5388 C   0  0  0  0  0  0  0  0  0  0  0  0
   -1.4623   -1.8028   -6.2778 C   0  0  0  0  0  0  0  0  0  0  0  0
   -1.2925   -2.6794   -7.1109 O   0  0  0  0  0  0  0  0  0  0  0  0
   -0.9050   -1.8618   -4.9164 C   0  0  0  0  0  0  0  0  0  0  0  0
   -0.5190   -0.4364   -1.5024 C   0  0  0  0  0  0  0  0  0  0  0  0
    0.5304   -0.4357   -0.5618 C   0  0  0  0  0  0  0  0  0  0  0  0
    1.8315   -0.8416   -0.7752 N   0  0  0  0  0  0  0  0  0  0  0  0
    2.6111   -1.2239    0.3307 C   0  0  0  0  0  0  0  0  0  0  0  0
    3.8951   -0.7118    0.4859 C   0  0  0  0  0  0  0  0  0  0  0  0
    4.6503   -1.0329    1.5963 C   0  0  0  0  0  0  0  0  0  0  0  0
    4.1310   -1.8798    2.5668 C   0  0  0  0  0  0  0  0  0  0  0  0
    4.9788   -2.3092    4.0542 S   0  0  0  0  0  0  0  0  0  0  0  0
    6.6719   -1.7111    3.7793 C   0  0  0  0  0  0  0  0  0  0  0  0
    2.8588   -2.4224    2.3965 C   0  0  0  0  0  0  0  0  0  0  0  0
    2.1050   -2.1006    1.2898 C   0  0  0  0  0  0  0  0  0  0  0  0
    2.4169   -0.8376   -2.0452 C   0  0  0  0  0  0  0  0  0  0  0  0
    3.3112   -1.8529   -2.3991 C   0  0  0  0  0  0  0  0  0  0  0  0
    3.7406   -1.9755   -3.7004 C   0  0  0  0  0  0  0  0  0  0  0  0
    3.2866   -1.0949   -4.6805 C   0  0  0  0  0  0  0  0  0  0  0  0
    3.7521   -1.4387   -6.3465 S   0  0  0  0  0  0  0  0  0  0  0  0
    2.6034   -0.4234   -7.3153 C   0  0  0  0  0  0  0  0  0  0  0  0
    2.4908   -0.0170   -4.3086 C   0  0  0  0  0  0  0  0  0  0  0  0
    2.0703    0.1152   -3.0012 C   0  0  0  0  0  0  0  0  0  0  0  0
    0.1189    0.1655    0.6461 C   0  0  0  0  0  0  0  0  0  0  0  0
    0.9020    0.4727    2.1640 S   0  0  0  0  0  0  0  0  0  0  0  0
   -0.5629    1.2209    2.7755 C   0  0  0  0  0  0  0  0  0  0  0  0
   -1.5447    1.3597    1.7904 C   0  0  0  0  0  0  0  0  0  0  0  0
   -2.6328    2.1938    1.9097 N   0  0  0  0  0  0  0  0  0  0  0  0
   -2.5051    3.3354    2.7248 C   0  0  0  0  0  0  0  0  0  0  0  0
   -1.3197    4.0658    2.7056 C   0  0  0  0  0  0  0  0  0  0  0  0
   -1.0985    5.0764    3.6164 C   0  0  0  0  0  0  0  0  0  0  0  0
   -2.0724    5.3852    4.5585 C   0  0  0  0  0  0  0  0  0  0  0  0
   -1.8419    6.5783    5.8352 S   0  0  0  0  0  0  0  0  0  0  0  0
   -0.0606    6.9445    5.7549 C   0  0  0  0  0  0  0  0  0  0  0  0
   -3.3023    4.7314    4.5101 C   0  0  0  0  0  0  0  0  0  0  0  0
   -3.5177    3.7143    3.6036 C   0  0  0  0  0  0  0  0  0  0  0  0
   -3.7884    1.9788    1.1514 C   0  0  0  0  0  0  0  0  0  0  0  0
   -4.2458    0.6840    0.9033 C   0  0  0  0  0  0  0  0  0  0  0  0
   -5.3595    0.4817    0.1210 C   0  0  0  0  0  0  0  0  0  0  0  0
   -6.0475    1.5637   -0.4237 C   0  0  0  0  0  0  0  0  0  0  0  0
   -7.4355    1.1828   -1.4426 S   0  0  0  0  0  0  0  0  0  0  0  0
   -8.2724    2.7814   -1.6520 C   0  0  0  0  0  0  0  0  0  0  0  0
   -5.6108    2.8548   -0.1567 C   0  0  0  0  0  0  0  0  0  0  0  0
   -4.4921    3.0584    0.6253 C   0  0  0  0  0  0  0  0  0  0  0  0
   -1.1679    0.6864    0.6040 C   0  0  0  0  0  0  0  0  0  0  0  0
   -1.9044    0.5005   -0.9464 S   0  0  0  0  0  0  0  0  0  0  0  0
   -0.6130    1.6397    4.1333 C   0  0  0  0  0  0  0  0  0  0  0  0
   -1.7614    1.5928    4.9446 C   0  0  0  0  0  0  0  0  0  0  0  0
   -2.9678    0.9097    4.6462 C   0  0  0  0  0  0  0  0  0  0  0  0
   -3.8576    0.9244    5.6713 C   0  0  0  0  0  0  0  0  0  0  0  0
   -5.1979    0.3327    5.6832 C   0  0  0  0  0  0  0  0  0  0  0  0
   -5.7064   -0.2017    4.7272 O   0  0  0  0  0  0  0  0  0  0  0  0
   -5.7631    0.4681    6.8841 O   0  0  0  0  0  0  0  0  0  0  0  0
   -7.1061    0.0092    7.0356 C   0  0  0  0  0  0  0  0  0  0  0  0
   -8.0993    1.0824    6.6150 C   0  0  0  0  0  0  0  0  0  0  0  0
   -3.2802    1.8036    7.0509 S   0  0  0  0  0  0  0  0  0  0  0  0
   -1.7824    2.1673    6.2454 C   0  0  0  0  0  0  0  0  0  0  0  0
   -0.6899    2.8251    6.8441 C   0  0  0  0  0  0  0  0  0  0  0  0
    0.5115    2.6941    6.0984 C   0  0  0  0  0  0  0  0  0  0  0  0
    0.5351    2.1121    4.7917 C   0  0  0  0  0  0  0  0  0  0  0  0
    1.7949    2.1613    4.3422 N   0  0  0  0  0  0  0  0  0  0  0  0
    2.4633    2.7075    5.3111 N   0  0  0  0  0  0  0  0  0  0  0  0
    3.8855    2.8915    5.2373 C   0  0  0  0  0  0  0  0  0  0  0  0
    4.5695    1.5763    4.8855 C   0  0  0  0  0  0  0  0  0  0  0  0
    1.7764    3.0585    6.3684 N   0  0  0  0  0  0  0  0  0  0  0  0
   -0.7993    3.4888    8.1056 C   0  0  0  0  0  0  0  0  0  0  0  0
   -1.9225    4.0501    8.6746 C   0  0  0  0  0  0  0  0  0  0  0  0
   -3.1401    4.4149    8.0832 C   0  0  0  0  0  0  0  0  0  0  0  0
   -4.1143    4.7788    7.5974 N   0  0  0  0  0  0  0  0  0  0  0  0
   -1.6115    4.3822   10.0463 C   0  0  0  0  0  0  0  0  0  0  0  0
   -2.4331    4.9141   11.0041 C   0  0  0  0  0  0  0  0  0  0  0  0
   -1.9441    5.1590   12.3033 C   0  0  0  0  0  0  0  0  0  0  0  0
   -1.5464    5.3653   13.3594 N   0  0  0  0  0  0  0  0  0  0  0  0
   -3.7880    5.2266   10.7951 C   0  0  0  0  0  0  0  0  0  0  0  0
   -4.9012    5.4910   10.7090 N   0  0  0  0  0  0  0  0  0  0  0  0
   -0.3458    4.0523   10.3231 O   0  0  0  0  0  0  0  0  0  0  0  0
    0.3194    3.6284    9.1227 C   0  0  0  0  0  0  0  0  0  0  0  0
    1.2972    4.7551    8.7657 C   0  0  0  0  0  0  0  0  0  0  0  0
    1.0421    2.3166    9.4090 C   0  0  0  0  0  0  0  0  0  0  0  0
    0.4662   -3.5028   -6.4375 H   0  0  0  0  0  0  0  0  0  0  0  0
    3.5238   -6.8037   -2.0660 H   0  0  0  0  0  0  0  0  0  0  0  0
    4.2726   -7.4149   -7.0388 H   0  0  0  0  0  0  0  0  0  0  0  0
    5.3354  -10.1801   -5.3043 H   0  0  0  0  0  0  0  0  0  0  0  0
    7.5792   -9.3295   -5.9679 H   0  0  0  0  0  0  0  0  0  0  0  0
    7.5937   -6.7714   -5.4285 H   0  0  0  0  0  0  0  0  0  0  0  0
    7.2414   -6.4710   -2.8128 H   0  0  0  0  0  0  0  0  0  0  0  0
    7.0088   -8.8457   -1.7400 H   0  0  0  0  0  0  0  0  0  0  0  0
    8.7651   -9.5111   -3.6064 H   0  0  0  0  0  0  0  0  0  0  0  0
    7.4333  -10.6932   -3.6509 H   0  0  0  0  0  0  0  0  0  0  0  0
    4.9928   -9.8912   -2.7619 H   0  0  0  0  0  0  0  0  0  0  0  0
   -4.2256    3.2960   -5.8607 H   0  0  0  0  0  0  0  0  0  0  0  0
   -3.2961    2.7990   -4.4238 H   0  0  0  0  0  0  0  0  0  0  0  0
   -6.0080    1.6276   -5.1988 H   0  0  0  0  0  0  0  0  0  0  0  0
   -5.7357    2.8650   -3.9662 H   0  0  0  0  0  0  0  0  0  0  0  0
   -5.0643    1.2497   -3.7480 H   0  0  0  0  0  0  0  0  0  0  0  0
   -2.7277   -2.0091   -8.9374 H   0  0  0  0  0  0  0  0  0  0  0  0
   -3.3384   -0.5621   -9.7760 H   0  0  0  0  0  0  0  0  0  0  0  0
   -0.4409   -1.1973   -9.0297 H   0  0  0  0  0  0  0  0  0  0  0  0
   -0.9611    0.3641   -9.6914 H   0  0  0  0  0  0  0  0  0  0  0  0
   -1.1255   -1.1135  -10.6470 H   0  0  0  0  0  0  0  0  0  0  0  0
    4.2955   -0.0439   -0.2627 H   0  0  0  0  0  0  0  0  0  0  0  0
    5.6343   -0.6045    1.6985 H   0  0  0  0  0  0  0  0  0  0  0  0
    7.0662   -2.1353    2.8610 H   0  0  0  0  0  0  0  0  0  0  0  0
    6.6886   -0.6256    3.7533 H   0  0  0  0  0  0  0  0  0  0  0  0
    7.2485   -2.0666    4.6275 H   0  0  0  0  0  0  0  0  0  0  0  0
    2.4709   -3.0960    3.1447 H   0  0  0  0  0  0  0  0  0  0  0  0
    1.1224   -2.5263    1.1557 H   0  0  0  0  0  0  0  0  0  0  0  0
    3.6096   -2.5789   -1.6593 H   0  0  0  0  0  0  0  0  0  0  0  0
    4.3983   -2.7832   -3.9840 H   0  0  0  0  0  0  0  0  0  0  0  0
    1.5911   -0.5829   -6.9557 H   0  0  0  0  0  0  0  0  0  0  0  0
    2.8867    0.6239   -7.2617 H   0  0  0  0  0  0  0  0  0  0  0  0
    2.6844   -0.7816   -8.3367 H   0  0  0  0  0  0  0  0  0  0  0  0
    2.1854    0.7215   -5.0322 H   0  0  0  0  0  0  0  0  0  0  0  0
    1.4363    0.9453   -2.7275 H   0  0  0  0  0  0  0  0  0  0  0  0
   -0.5519    3.8212    1.9861 H   0  0  0  0  0  0  0  0  0  0  0  0
   -0.1644    5.6132    3.5814 H   0  0  0  0  0  0  0  0  0  0  0  0
    0.1770    7.4833    4.8424 H   0  0  0  0  0  0  0  0  0  0  0  0
    0.5088    6.0224    5.8310 H   0  0  0  0  0  0  0  0  0  0  0  0
    0.1434    7.5789    6.6119 H   0  0  0  0  0  0  0  0  0  0  0  0
   -4.0674    5.0010    5.2212 H   0  0  0  0  0  0  0  0  0  0  0  0
   -4.4591    3.1860    3.5928 H   0  0  0  0  0  0  0  0  0  0  0  0
   -3.7331   -0.1628    1.3333 H   0  0  0  0  0  0  0  0  0  0  0  0
   -5.7142   -0.5185   -0.0725 H   0  0  0  0  0  0  0  0  0  0  0  0
   -9.2057    2.5588   -2.1593 H   0  0  0  0  0  0  0  0  0  0  0  0
   -7.6723    3.4464   -2.2662 H   0  0  0  0  0  0  0  0  0  0  0  0
   -8.4749    3.2186   -0.6790 H   0  0  0  0  0  0  0  0  0  0  0  0
   -6.1236    3.7118   -0.5625 H   0  0  0  0  0  0  0  0  0  0  0  0
   -4.1485    4.0639    0.8189 H   0  0  0  0  0  0  0  0  0  0  0  0
   -3.1603    0.3896    3.7268 H   0  0  0  0  0  0  0  0  0  0  0  0
   -7.2067   -0.2268    8.0967 H   0  0  0  0  0  0  0  0  0  0  0  0
   -7.2404   -0.8958    6.4336 H   0  0  0  0  0  0  0  0  0  0  0  0
   -7.9979    1.2871    5.5516 H   0  0  0  0  0  0  0  0  0  0  0  0
   -7.9160    1.9986    7.1711 H   0  0  0  0  0  0  0  0  0  0  0  0
   -9.1109    0.7404    6.8131 H   0  0  0  0  0  0  0  0  0  0  0  0
    4.1010    3.6402    4.4681 H   0  0  0  0  0  0  0  0  0  0  0  0
    4.2079    3.2690    6.2093 H   0  0  0  0  0  0  0  0  0  0  0  0
    5.6392    1.7381    4.7852 H   0  0  0  0  0  0  0  0  0  0  0  0
    4.3981    0.8336    5.6609 H   0  0  0  0  0  0  0  0  0  0  0  0
    4.1711    1.1957    3.9479 H   0  0  0  0  0  0  0  0  0  0  0  0
    1.8516    4.4956    7.8716 H   0  0  0  0  0  0  0  0  0  0  0  0
    0.7459    5.6798    8.6051 H   0  0  0  0  0  0  0  0  0  0  0  0
    1.9813    4.8971    9.5980 H   0  0  0  0  0  0  0  0  0  0  0  0
    1.7006    2.4519   10.2625 H   0  0  0  0  0  0  0  0  0  0  0  0
    0.3232    1.5338    9.6414 H   0  0  0  0  0  0  0  0  0  0  0  0
    1.6268    2.0261    8.5429 H   0  0  0  0  0  0  0  0  0  0  0  0
  1  2  2  0  0  0  0
  2  3  1  0  0  0  0
  3  4  2  0  0  0  0
  3  5  1  0  0  0  0
  5  6  2  0  0  0  0
  6  7  1  0  0  0  0
  7  8  2  0  0  0  0
  8  9  1  0  0  0  0
  9 10  2  0  0  0  0
 10 11  1  0  0  0  0
 11 12  2  0  0  0  0
 12 13  1  0  0  0  0
 13 14  3  0  0  0  0
 12 15  1  0  0  0  0
 15 16  3  0  0  0  0
  8 17  1  0  0  0  0
 17 18  1  0  0  0  0
 18 19  1  0  0  0  0
 19 20  2  0  0  0  0
 20 21  1  0  0  0  0
 21 22  1  0  0  0  0
 21 23  1  0  0  0  0
  1 24  1  0  0  0  0
 24 25  1  0  0  0  0
 25 26  1  0  0  0  0
 26 27  2  0  0  0  0
 27 28  1  0  0  0  0
 28 29  2  0  0  0  0
 28 30  1  0  0  0  0
 30 31  2  0  0  0  0
 31 32  1  0  0  0  0
 32 33  1  0  0  0  0
 31 34  1  0  0  0  0
 34 35  1  0  0  0  0
 35 36  1  0  0  0  0
 36 37  1  0  0  0  0
 35 38  2  0  0  0  0
 38 39  1  0  0  0  0
 39 40  2  0  0  0  0
 39 41  1  0  0  0  0
 26 42  1  0  0  0  0
 42 43  2  0  0  0  0
 43 44  1  0  0  0  0
 44 45  1  0  0  0  0
 45 46  2  0  0  0  0
 46 47  1  0  0  0  0
 47 48  2  0  0  0  0
 48 49  1  0  0  0  0
 49 50  1  0  0  0  0
 48 51  1  0  0  0  0
 51 52  2  0  0  0  0
 44 53  1  0  0  0  0
 53 54  2  0  0  0  0
 54 55  1  0  0  0  0
 55 56  2  0  0  0  0
 56 57  1  0  0  0  0
 57 58  1  0  0  0  0
 56 59  1  0  0  0  0
 59 60  2  0  0  0  0
 43 61  1  0  0  0  0
 61 62  1  0  0  0  0
 62 63  1  0  0  0  0
 63 64  2  0  0  0  0
 64 65  1  0  0  0  0
 65 66  1  0  0  0  0
 66 67  2  0  0  0  0
 67 68  1  0  0  0  0
 68 69  2  0  0  0  0
 69 70  1  0  0  0  0
 70 71  1  0  0  0  0
 69 72  1  0  0  0  0
 72 73  2  0  0  0  0
 65 74  1  0  0  0  0
 74 75  2  0  0  0  0
 75 76  1  0  0  0  0
 76 77  2  0  0  0  0
 77 78  1  0  0  0  0
 78 79  1  0  0  0  0
 77 80  1  0  0  0  0
 80 81  2  0  0  0  0
 64 82  1  0  0  0  0
 82 83  1  0  0  0  0
 63 84  1  0  0  0  0
 84 85  2  0  0  0  0
 85 86  1  0  0  0  0
 86 87  2  0  0  0  0
 87 88  1  0  0  0  0
 88 89  2  0  0  0  0
 88 90  1  0  0  0  0
 90 91  1  0  0  0  0
 91 92  1  0  0  0  0
 87 93  1  0  0  0  0
 93 94  1  0  0  0  0
 94 95  2  0  0  0  0
 95 96  1  0  0  0  0
 96 97  1  0  0  0  0
 97 98  2  0  0  0  0
 98 99  1  0  0  0  0
 99100  1  0  0  0  0
100101  1  0  0  0  0
 99102  1  0  0  0  0
 95103  1  0  0  0  0
103104  2  0  0  0  0
104105  1  0  0  0  0
105106  3  0  0  0  0
104107  1  0  0  0  0
107108  2  0  0  0  0
108109  1  0  0  0  0
109110  3  0  0  0  0
108111  1  0  0  0  0
111112  3  0  0  0  0
107113  1  0  0  0  0
113114  1  0  0  0  0
114115  1  0  0  0  0
114116  1  0  0  0  0
 11  2  1  0  0  0  0
 23 17  1  0  0  0  0
 41 24  2  0  0  0  0
 83 42  1  0  0  0  0
 97 84  1  0  0  0  0
114103  1  0  0  0  0
 10  5  1  0  0  0  0
 22 18  1  0  0  0  0
 41 27  1  0  0  0  0
 52 45  1  0  0  0  0
 60 53  1  0  0  0  0
 82 61  2  0  0  0  0
 94 85  1  0  0  0  0
102 96  2  0  0  0  0
 23  7  1  0  0  0  0
 38 30  1  0  0  0  0
 73 66  1  0  0  0  0
 81 74  1  0  0  0  0
  1117  1  0  0  0  0
  6118  1  0  0  0  0
  9119  1  0  0  0  0
 17120  1  0  0  0  0
 18121  1  0  0  0  0
 19122  1  0  0  0  0
 20123  1  0  0  0  0
 21124  1  0  0  0  0
 22125  1  0  0  0  0
 22126  1  0  0  0  0
 23127  1  0  0  0  0
 32128  1  0  0  0  0
 32129  1  0  0  0  0
 33130  1  0  0  0  0
 33131  1  0  0  0  0
 33132  1  0  0  0  0
 36133  1  0  0  0  0
 36134  1  0  0  0  0
 37135  1  0  0  0  0
 37136  1  0  0  0  0
 37137  1  0  0  0  0
 46138  1  0  0  0  0
 47139  1  0  0  0  0
 50140  1  0  0  0  0
 50141  1  0  0  0  0
 50142  1  0  0  0  0
 51143  1  0  0  0  0
 52144  1  0  0  0  0
 54145  1  0  0  0  0
 55146  1  0  0  0  0
 58147  1  0  0  0  0
 58148  1  0  0  0  0
 58149  1  0  0  0  0
 59150  1  0  0  0  0
 60151  1  0  0  0  0
 67152  1  0  0  0  0
 68153  1  0  0  0  0
 71154  1  0  0  0  0
 71155  1  0  0  0  0
 71156  1  0  0  0  0
 72157  1  0  0  0  0
 73158  1  0  0  0  0
 75159  1  0  0  0  0
 76160  1  0  0  0  0
 79161  1  0  0  0  0
 79162  1  0  0  0  0
 79163  1  0  0  0  0
 80164  1  0  0  0  0
 81165  1  0  0  0  0
 86166  1  0  0  0  0
 91167  1  0  0  0  0
 91168  1  0  0  0  0
 92169  1  0  0  0  0
 92170  1  0  0  0  0
 92171  1  0  0  0  0
100172  1  0  0  0  0
100173  1  0  0  0  0
101174  1  0  0  0  0
101175  1  0  0  0  0
101176  1  0  0  0  0
115177  1  0  0  0  0
115178  1  0  0  0  0
115179  1  0  0  0  0
116180  1  0  0  0  0
116181  1  0  0  0  0
116182  1  0  0  0  0
M  END
