
  xtb     02122209543D
 energy: -343.524809517930 gnorm: 0.000646636139 xtb: 6.4.1 (unknown)
213235  0     0  0            999 V2000
   -5.5193    4.9519   -0.6611 C   0  0  0  0  0  0  0  0  0  0  0  0
   -4.4843    5.1126   -1.5173 C   0  0  0  0  0  0  0  0  0  0  0  0
   -3.3899    4.1123   -1.6960 C   0  0  0  0  0  0  0  0  0  0  0  0
   -3.3469    2.9750   -1.2782 O   0  0  0  0  0  0  0  0  0  0  0  0
   -2.4334    4.7266   -2.6324 C   0  0  0  0  0  0  0  0  0  0  0  0
   -1.2247    4.1829   -3.0650 C   0  0  0  0  0  0  0  0  0  0  0  0
   -0.5447    4.9712   -3.9603 C   0  0  0  0  0  0  0  0  0  0  0  0
   -1.0267    6.2149   -4.3930 C   0  0  0  0  0  0  0  0  0  0  0  0
   -2.2242    6.7543   -3.9887 C   0  0  0  0  0  0  0  0  0  0  0  0
   -2.9400    5.9633   -3.0822 C   0  0  0  0  0  0  0  0  0  0  0  0
   -4.2406    6.1962   -2.4610 C   0  0  0  0  0  0  0  0  0  0  0  0
   -5.0726    7.2515   -2.7175 C   0  0  0  0  0  0  0  0  0  0  0  0
   -6.3372    7.4485   -2.1223 C   0  0  0  0  0  0  0  0  0  0  0  0
   -7.3750    7.6751   -1.6871 N   0  0  0  0  0  0  0  0  0  0  0  0
   -4.7973    8.2862   -3.6372 C   0  0  0  0  0  0  0  0  0  0  0  0
   -4.6440    9.1577   -4.3686 N   0  0  0  0  0  0  0  0  0  0  0  0
    0.1714    6.4591   -5.2766 C   0  0  0  0  0  0  0  0  0  0  0  0
    1.2687    7.4259   -4.7656 C   0  0  0  0  0  0  0  0  0  0  0  0
    1.2188    7.3836   -3.2584 C   0  0  0  0  0  0  0  0  0  0  0  0
    1.6737    6.1998   -2.8699 C   0  0  0  0  0  0  0  0  0  0  0  0
    2.0352    5.4180   -4.1084 C   0  0  0  0  0  0  0  0  0  0  0  0
    2.5136    6.5600   -5.0188 C   0  0  0  0  0  0  0  0  0  0  0  0
    0.6995    5.0663   -4.8080 C   0  0  0  0  0  0  0  0  0  0  0  0
   -5.4773    3.9173    0.3585 C   0  0  0  0  0  0  0  0  0  0  0  0
   -6.5102    2.9948    0.5479 C   0  0  0  0  0  0  0  0  0  0  0  0
   -6.2534    1.8756    1.3121 C   0  0  0  0  0  0  0  0  0  0  0  0
   -5.0093    1.7271    1.9385 C   0  0  0  0  0  0  0  0  0  0  0  0
   -4.1387    2.8329    1.8529 C   0  0  0  0  0  0  0  0  0  0  0  0
   -4.3504    3.8541    1.0709 N   0  0  0  0  0  0  0  0  0  0  0  0
   -4.5262    0.4542    2.3988 C   0  0  0  0  0  0  0  0  0  0  0  0
   -3.3468    0.2015    3.0903 C   0  0  0  0  0  0  0  0  0  0  0  0
   -2.6751    1.0953    3.9035 N   0  0  0  0  0  0  0  0  0  0  0  0
   -1.2694    1.1236    3.8246 C   0  0  0  0  0  0  0  0  0  0  0  0
   -0.4862    1.1572    4.9768 C   0  0  0  0  0  0  0  0  0  0  0  0
    0.8868    1.1160    4.8784 C   0  0  0  0  0  0  0  0  0  0  0  0
    1.5061    1.0354    3.6322 C   0  0  0  0  0  0  0  0  0  0  0  0
    3.2703    0.9643    3.6187 S   0  0  0  0  0  0  0  0  0  0  0  0
    3.6568    0.3338    1.9638 C   0  0  0  0  0  0  0  0  0  0  0  0
    0.7309    1.0328    2.4803 C   0  0  0  0  0  0  0  0  0  0  0  0
   -0.6460    1.0813    2.5790 C   0  0  0  0  0  0  0  0  0  0  0  0
   -3.3688    1.9508    4.7651 C   0  0  0  0  0  0  0  0  0  0  0  0
   -4.6029    1.5783    5.2996 C   0  0  0  0  0  0  0  0  0  0  0  0
   -5.2853    2.4321    6.1346 C   0  0  0  0  0  0  0  0  0  0  0  0
   -4.7545    3.6780    6.4651 C   0  0  0  0  0  0  0  0  0  0  0  0
   -5.7241    4.6820    7.5457 S   0  0  0  0  0  0  0  0  0  0  0  0
   -4.7967    6.2389    7.6479 C   0  0  0  0  0  0  0  0  0  0  0  0
   -3.5222    4.0488    5.9461 C   0  0  0  0  0  0  0  0  0  0  0  0
   -2.8406    3.1948    5.1012 C   0  0  0  0  0  0  0  0  0  0  0  0
   -2.8584   -1.0946    2.7968 C   0  0  0  0  0  0  0  0  0  0  0  0
   -1.3001   -1.8176    2.9678 S   0  0  0  0  0  0  0  0  0  0  0  0
   -1.6860   -2.9896    1.6872 C   0  0  0  0  0  0  0  0  0  0  0  0
   -3.0195   -2.9369    1.3347 C   0  0  0  0  0  0  0  0  0  0  0  0
   -3.6653   -3.8444    0.4986 N   0  0  0  0  0  0  0  0  0  0  0  0
   -3.1970   -4.0156   -0.8157 C   0  0  0  0  0  0  0  0  0  0  0  0
   -2.8336   -5.2698   -1.2927 C   0  0  0  0  0  0  0  0  0  0  0  0
   -2.3447   -5.4181   -2.5766 C   0  0  0  0  0  0  0  0  0  0  0  0
   -2.2258   -4.3088   -3.4040 C   0  0  0  0  0  0  0  0  0  0  0  0
   -1.5863   -4.3556   -5.0479 S   0  0  0  0  0  0  0  0  0  0  0  0
   -1.3084   -6.1221   -5.3642 C   0  0  0  0  0  0  0  0  0  0  0  0
   -2.6179   -3.0567   -2.9377 C   0  0  0  0  0  0  0  0  0  0  0  0
   -3.0910   -2.9065   -1.6538 C   0  0  0  0  0  0  0  0  0  0  0  0
   -4.7278   -4.5838    1.0052 C   0  0  0  0  0  0  0  0  0  0  0  0
   -5.6385   -5.2039    0.1461 C   0  0  0  0  0  0  0  0  0  0  0  0
   -6.6856   -5.9382    0.6538 C   0  0  0  0  0  0  0  0  0  0  0  0
   -6.8679   -6.0605    2.0298 C   0  0  0  0  0  0  0  0  0  0  0  0
   -8.2441   -7.0369    2.5607 S   0  0  0  0  0  0  0  0  0  0  0  0
   -8.2028   -6.9009    4.3706 C   0  0  0  0  0  0  0  0  0  0  0  0
   -5.9766   -5.4346    2.8880 C   0  0  0  0  0  0  0  0  0  0  0  0
   -4.9135   -4.7136    2.3806 C   0  0  0  0  0  0  0  0  0  0  0  0
   -3.6677   -1.8359    1.9522 C   0  0  0  0  0  0  0  0  0  0  0  0
   -5.1326   -0.9945    1.5877 S   0  0  0  0  0  0  0  0  0  0  0  0
   -0.5161   -3.4147    0.9730 C   0  0  0  0  0  0  0  0  0  0  0  0
    0.6763   -3.7840    1.5827 C   0  0  0  0  0  0  0  0  0  0  0  0
    0.7127   -4.3842    2.8212 N   0  0  0  0  0  0  0  0  0  0  0  0
    1.7851   -4.1146    3.6925 C   0  0  0  0  0  0  0  0  0  0  0  0
    2.3839   -5.1466    4.4080 C   0  0  0  0  0  0  0  0  0  0  0  0
    3.4427   -4.8753    5.2503 C   0  0  0  0  0  0  0  0  0  0  0  0
    3.9313   -3.5810    5.3964 C   0  0  0  0  0  0  0  0  0  0  0  0
    5.0986   -3.3063    6.2936 C   0  0  0  0  0  0  0  0  0  0  0  0
    3.3203   -2.5571    4.6851 C   0  0  0  0  0  0  0  0  0  0  0  0
    2.2548   -2.8148    3.8449 C   0  0  0  0  0  0  0  0  0  0  0  0
   -0.3730   -5.1625    3.2529 C   0  0  0  0  0  0  0  0  0  0  0  0
   -0.7677   -5.1397    4.5872 C   0  0  0  0  0  0  0  0  0  0  0  0
   -1.8382   -5.9045    5.0094 C   0  0  0  0  0  0  0  0  0  0  0  0
   -2.5484   -6.7026    4.1219 C   0  0  0  0  0  0  0  0  0  0  0  0
   -3.6948   -7.5480    4.5853 C   0  0  0  0  0  0  0  0  0  0  0  0
   -2.1492   -6.7182    2.7904 C   0  0  0  0  0  0  0  0  0  0  0  0
   -1.0762   -5.9675    2.3579 C   0  0  0  0  0  0  0  0  0  0  0  0
    1.7881   -3.4360    0.7798 C   0  0  0  0  0  0  0  0  0  0  0  0
    3.5021   -3.4842    0.9843 S   0  0  0  0  0  0  0  0  0  0  0  0
    3.7321   -2.5113   -0.4838 C   0  0  0  0  0  0  0  0  0  0  0  0
    2.5146   -2.3087   -1.1733 C   0  0  0  0  0  0  0  0  0  0  0  0
    2.3533   -1.7505   -2.4090 N   0  0  0  0  0  0  0  0  0  0  0  0
    3.3841   -1.7256   -3.3590 C   0  0  0  0  0  0  0  0  0  0  0  0
    3.5764   -0.5951   -4.1506 C   0  0  0  0  0  0  0  0  0  0  0  0
    4.6159   -0.5496   -5.0608 C   0  0  0  0  0  0  0  0  0  0  0  0
    5.4840   -1.6217   -5.2136 C   0  0  0  0  0  0  0  0  0  0  0  0
    6.6399   -1.5574   -6.1611 C   0  0  0  0  0  0  0  0  0  0  0  0
    5.2583   -2.7649   -4.4494 C   0  0  0  0  0  0  0  0  0  0  0  0
    4.2269   -2.8224   -3.5370 C   0  0  0  0  0  0  0  0  0  0  0  0
    1.1360   -1.1159   -2.7533 C   0  0  0  0  0  0  0  0  0  0  0  0
    0.5076   -0.2450   -1.8688 C   0  0  0  0  0  0  0  0  0  0  0  0
   -0.6670    0.3851   -2.2333 C   0  0  0  0  0  0  0  0  0  0  0  0
   -1.2288    0.1822   -3.4875 C   0  0  0  0  0  0  0  0  0  0  0  0
   -2.4934    0.8794   -3.8867 C   0  0  0  0  0  0  0  0  0  0  0  0
   -0.5841   -0.6802   -4.3698 C   0  0  0  0  0  0  0  0  0  0  0  0
    0.5783   -1.3320   -4.0095 C   0  0  0  0  0  0  0  0  0  0  0  0
    1.4381   -2.8174   -0.4167 C   0  0  0  0  0  0  0  0  0  0  0  0
   -0.2763   -2.7795   -0.6482 S   0  0  0  0  0  0  0  0  0  0  0  0
    5.0233   -2.0521   -0.7531 C   0  0  0  0  0  0  0  0  0  0  0  0
    5.3254   -0.9166   -1.4801 C   0  0  0  0  0  0  0  0  0  0  0  0
    4.4224    0.2343   -1.5924 C   0  0  0  0  0  0  0  0  0  0  0  0
    3.3202    0.3683   -1.0866 O   0  0  0  0  0  0  0  0  0  0  0  0
    5.1740    1.2745   -2.3188 C   0  0  0  0  0  0  0  0  0  0  0  0
    4.7082    2.5314   -2.6909 C   0  0  0  0  0  0  0  0  0  0  0  0
    5.6226    3.2801   -3.3925 C   0  0  0  0  0  0  0  0  0  0  0  0
    6.9154    2.8223   -3.6727 C   0  0  0  0  0  0  0  0  0  0  0  0
    7.3873    1.5824   -3.3057 C   0  0  0  0  0  0  0  0  0  0  0  0
    6.4631    0.7955   -2.6150 C   0  0  0  0  0  0  0  0  0  0  0  0
    6.5665   -0.5770   -2.1155 C   0  0  0  0  0  0  0  0  0  0  0  0
    7.6028   -1.4460   -2.3604 C   0  0  0  0  0  0  0  0  0  0  0  0
    8.7632   -1.1161   -3.0823 C   0  0  0  0  0  0  0  0  0  0  0  0
    9.7247   -0.9106   -3.6779 N   0  0  0  0  0  0  0  0  0  0  0  0
    7.5928   -2.8035   -1.9855 C   0  0  0  0  0  0  0  0  0  0  0  0
    7.6398   -3.9244   -1.7376 N   0  0  0  0  0  0  0  0  0  0  0  0
    7.2996    4.1004   -4.3788 C   0  0  0  0  0  0  0  0  0  0  0  0
    8.1717    5.0968   -3.5860 C   0  0  0  0  0  0  0  0  0  0  0  0
    7.9830    6.4049   -4.3202 C   0  0  0  0  0  0  0  0  0  0  0  0
    6.7518    6.8332   -4.0725 C   0  0  0  0  0  0  0  0  0  0  0  0
    6.0874    5.8225   -3.1661 C   0  0  0  0  0  0  0  0  0  0  0  0
    7.3021    5.3614   -2.3499 C   0  0  0  0  0  0  0  0  0  0  0  0
    5.8506    4.6033   -4.0809 C   0  0  0  0  0  0  0  0  0  0  0  0
   -6.3949    5.5844   -0.7039 H   0  0  0  0  0  0  0  0  0  0  0  0
   -0.8833    3.2242   -2.7078 H   0  0  0  0  0  0  0  0  0  0  0  0
   -2.5871    7.7050   -4.3418 H   0  0  0  0  0  0  0  0  0  0  0  0
   -0.0384    6.5973   -6.3354 H   0  0  0  0  0  0  0  0  0  0  0  0
    1.2446    8.4134   -5.2184 H   0  0  0  0  0  0  0  0  0  0  0  0
    0.8181    8.1737   -2.6509 H   0  0  0  0  0  0  0  0  0  0  0  0
    1.7275    5.8029   -1.8730 H   0  0  0  0  0  0  0  0  0  0  0  0
    2.7070    4.5755   -3.9686 H   0  0  0  0  0  0  0  0  0  0  0  0
    3.4304    7.0273   -4.6622 H   0  0  0  0  0  0  0  0  0  0  0  0
    2.6318    6.2652   -6.0609 H   0  0  0  0  0  0  0  0  0  0  0  0
    0.8174    4.2885   -5.5606 H   0  0  0  0  0  0  0  0  0  0  0  0
   -7.4510    3.1135    0.0328 H   0  0  0  0  0  0  0  0  0  0  0  0
   -6.9875    1.0862    1.3921 H   0  0  0  0  0  0  0  0  0  0  0  0
   -3.1958    2.8572    2.3755 H   0  0  0  0  0  0  0  0  0  0  0  0
   -0.9627    1.1976    5.9448 H   0  0  0  0  0  0  0  0  0  0  0  0
    1.4981    1.1275    5.7675 H   0  0  0  0  0  0  0  0  0  0  0  0
    3.4532    1.0827    1.2050 H   0  0  0  0  0  0  0  0  0  0  0  0
    3.0882   -0.5712    1.7756 H   0  0  0  0  0  0  0  0  0  0  0  0
    4.7176    0.1019    1.9735 H   0  0  0  0  0  0  0  0  0  0  0  0
    1.1876    0.9978    1.5041 H   0  0  0  0  0  0  0  0  0  0  0  0
   -1.2475    1.0801    1.6809 H   0  0  0  0  0  0  0  0  0  0  0  0
   -5.0224    0.6126    5.0614 H   0  0  0  0  0  0  0  0  0  0  0  0
   -6.2388    2.1425    6.5486 H   0  0  0  0  0  0  0  0  0  0  0  0
   -4.6860    6.6688    6.6568 H   0  0  0  0  0  0  0  0  0  0  0  0
   -5.3975    6.8952    8.2699 H   0  0  0  0  0  0  0  0  0  0  0  0
   -3.8319    6.0696    8.1171 H   0  0  0  0  0  0  0  0  0  0  0  0
   -3.0810    5.0035    6.1819 H   0  0  0  0  0  0  0  0  0  0  0  0
   -1.8876    3.5002    4.6951 H   0  0  0  0  0  0  0  0  0  0  0  0
   -2.9270   -6.1303   -0.6466 H   0  0  0  0  0  0  0  0  0  0  0  0
   -2.0531   -6.4001   -2.9133 H   0  0  0  0  0  0  0  0  0  0  0  0
   -2.2402   -6.6689   -5.2546 H   0  0  0  0  0  0  0  0  0  0  0  0
   -0.5426   -6.5056   -4.6962 H   0  0  0  0  0  0  0  0  0  0  0  0
   -0.9637   -6.1845   -6.3918 H   0  0  0  0  0  0  0  0  0  0  0  0
   -2.5336   -2.2050   -3.5915 H   0  0  0  0  0  0  0  0  0  0  0  0
   -3.3806   -1.9315   -1.2920 H   0  0  0  0  0  0  0  0  0  0  0  0
   -5.5212   -5.1014   -0.9219 H   0  0  0  0  0  0  0  0  0  0  0  0
   -7.3848   -6.4201   -0.0124 H   0  0  0  0  0  0  0  0  0  0  0  0
   -8.2934   -5.8598    4.6662 H   0  0  0  0  0  0  0  0  0  0  0  0
   -9.0631   -7.4607    4.7243 H   0  0  0  0  0  0  0  0  0  0  0  0
   -7.2904   -7.3448    4.7585 H   0  0  0  0  0  0  0  0  0  0  0  0
   -6.0875   -5.5039    3.9578 H   0  0  0  0  0  0  0  0  0  0  0  0
   -4.2130   -4.2613    3.0663 H   0  0  0  0  0  0  0  0  0  0  0  0
    2.0123   -6.1548    4.2976 H   0  0  0  0  0  0  0  0  0  0  0  0
    3.9039   -5.6830    5.8002 H   0  0  0  0  0  0  0  0  0  0  0  0
    6.0239   -3.6127    5.8052 H   0  0  0  0  0  0  0  0  0  0  0  0
    5.1699   -2.2463    6.5233 H   0  0  0  0  0  0  0  0  0  0  0  0
    5.0121   -3.8656    7.2231 H   0  0  0  0  0  0  0  0  0  0  0  0
    3.6734   -1.5427    4.7963 H   0  0  0  0  0  0  0  0  0  0  0  0
    1.7621   -2.0086    3.3199 H   0  0  0  0  0  0  0  0  0  0  0  0
   -0.2353   -4.5139    5.2881 H   0  0  0  0  0  0  0  0  0  0  0  0
   -2.1313   -5.8719    6.0492 H   0  0  0  0  0  0  0  0  0  0  0  0
   -4.4345   -7.6575    3.7951 H   0  0  0  0  0  0  0  0  0  0  0  0
   -3.3390   -8.5433    4.8550 H   0  0  0  0  0  0  0  0  0  0  0  0
   -4.1679   -7.1126    5.4629 H   0  0  0  0  0  0  0  0  0  0  0  0
   -2.6869   -7.3339    2.0834 H   0  0  0  0  0  0  0  0  0  0  0  0
   -0.7774   -6.0026    1.3204 H   0  0  0  0  0  0  0  0  0  0  0  0
    2.9128    0.2495   -4.0418 H   0  0  0  0  0  0  0  0  0  0  0  0
    4.7613    0.3440   -5.6506 H   0  0  0  0  0  0  0  0  0  0  0  0
    6.5272   -0.7307   -6.8577 H   0  0  0  0  0  0  0  0  0  0  0  0
    7.5703   -1.4132   -5.6105 H   0  0  0  0  0  0  0  0  0  0  0  0
    6.7306   -2.4852   -6.7220 H   0  0  0  0  0  0  0  0  0  0  0  0
    5.9069   -3.6204   -4.5684 H   0  0  0  0  0  0  0  0  0  0  0  0
    4.0733   -3.7181   -2.9541 H   0  0  0  0  0  0  0  0  0  0  0  0
    0.9629   -0.0500   -0.9113 H   0  0  0  0  0  0  0  0  0  0  0  0
   -1.1573    1.0477   -1.5340 H   0  0  0  0  0  0  0  0  0  0  0  0
   -2.9493    1.3720   -3.0315 H   0  0  0  0  0  0  0  0  0  0  0  0
   -3.2075    0.1729   -4.3072 H   0  0  0  0  0  0  0  0  0  0  0  0
   -2.2866    1.6312   -4.6496 H   0  0  0  0  0  0  0  0  0  0  0  0
   -1.0048   -0.8560   -5.3496 H   0  0  0  0  0  0  0  0  0  0  0  0
    1.0573   -2.0103   -4.6999 H   0  0  0  0  0  0  0  0  0  0  0  0
    5.8318   -2.6173   -0.3058 H   0  0  0  0  0  0  0  0  0  0  0  0
    3.7057    2.8447   -2.4411 H   0  0  0  0  0  0  0  0  0  0  0  0
    8.3852    1.2439   -3.5304 H   0  0  0  0  0  0  0  0  0  0  0  0
    7.6128    3.9957   -5.4161 H   0  0  0  0  0  0  0  0  0  0  0  0
    9.1953    4.7733   -3.4187 H   0  0  0  0  0  0  0  0  0  0  0  0
    8.7209    6.8417   -4.9671 H   0  0  0  0  0  0  0  0  0  0  0  0
    6.2581    7.7005   -4.4711 H   0  0  0  0  0  0  0  0  0  0  0  0
    5.2110    6.1576   -2.6168 H   0  0  0  0  0  0  0  0  0  0  0  0
    7.1172    4.4787   -1.7407 H   0  0  0  0  0  0  0  0  0  0  0  0
    7.7055    6.1570   -1.7257 H   0  0  0  0  0  0  0  0  0  0  0  0
    5.1968    4.8227   -4.9235 H   0  0  0  0  0  0  0  0  0  0  0  0
  1  2  2  0  0  0  0
  2  3  1  0  0  0  0
  3  4  2  0  0  0  0
  3  5  1  0  0  0  0
  5  6  2  0  0  0  0
  6  7  1  0  0  0  0
  7  8  2  0  0  0  0
  8  9  1  0  0  0  0
  9 10  2  0  0  0  0
 10 11  1  0  0  0  0
 11 12  2  0  0  0  0
 12 13  1  0  0  0  0
 13 14  3  0  0  0  0
 12 15  1  0  0  0  0
 15 16  3  0  0  0  0
  8 17  1  0  0  0  0
 17 18  1  0  0  0  0
 18 19  1  0  0  0  0
 19 20  2  0  0  0  0
 20 21  1  0  0  0  0
 21 22  1  0  0  0  0
 21 23  1  0  0  0  0
  1 24  1  0  0  0  0
 24 25  2  0  0  0  0
 25 26  1  0  0  0  0
 26 27  2  0  0  0  0
 27 28  1  0  0  0  0
 28 29  2  0  0  0  0
 27 30  1  0  0  0  0
 30 31  2  0  0  0  0
 31 32  1  0  0  0  0
 32 33  1  0  0  0  0
 33 34  2  0  0  0  0
 34 35  1  0  0  0  0
 35 36  2  0  0  0  0
 36 37  1  0  0  0  0
 37 38  1  0  0  0  0
 36 39  1  0  0  0  0
 39 40  2  0  0  0  0
 32 41  1  0  0  0  0
 41 42  2  0  0  0  0
 42 43  1  0  0  0  0
 43 44  2  0  0  0  0
 44 45  1  0  0  0  0
 45 46  1  0  0  0  0
 44 47  1  0  0  0  0
 47 48  2  0  0  0  0
 31 49  1  0  0  0  0
 49 50  1  0  0  0  0
 50 51  1  0  0  0  0
 51 52  2  0  0  0  0
 52 53  1  0  0  0  0
 53 54  1  0  0  0  0
 54 55  2  0  0  0  0
 55 56  1  0  0  0  0
 56 57  2  0  0  0  0
 57 58  1  0  0  0  0
 58 59  1  0  0  0  0
 57 60  1  0  0  0  0
 60 61  2  0  0  0  0
 53 62  1  0  0  0  0
 62 63  2  0  0  0  0
 63 64  1  0  0  0  0
 64 65  2  0  0  0  0
 65 66  1  0  0  0  0
 66 67  1  0  0  0  0
 65 68  1  0  0  0  0
 68 69  2  0  0  0  0
 52 70  1  0  0  0  0
 70 71  1  0  0  0  0
 51 72  1  0  0  0  0
 72 73  2  0  0  0  0
 73 74  1  0  0  0  0
 74 75  1  0  0  0  0
 75 76  2  0  0  0  0
 76 77  1  0  0  0  0
 77 78  2  0  0  0  0
 78 79  1  0  0  0  0
 78 80  1  0  0  0  0
 80 81  2  0  0  0  0
 74 82  1  0  0  0  0
 82 83  2  0  0  0  0
 83 84  1  0  0  0  0
 84 85  2  0  0  0  0
 85 86  1  0  0  0  0
 85 87  1  0  0  0  0
 87 88  2  0  0  0  0
 73 89  1  0  0  0  0
 89 90  1  0  0  0  0
 90 91  1  0  0  0  0
 91 92  2  0  0  0  0
 92 93  1  0  0  0  0
 93 94  1  0  0  0  0
 94 95  2  0  0  0  0
 95 96  1  0  0  0  0
 96 97  2  0  0  0  0
 97 98  1  0  0  0  0
 97 99  1  0  0  0  0
 99100  2  0  0  0  0
 93101  1  0  0  0  0
101102  2  0  0  0  0
102103  1  0  0  0  0
103104  2  0  0  0  0
104105  1  0  0  0  0
104106  1  0  0  0  0
106107  2  0  0  0  0
 92108  1  0  0  0  0
108109  1  0  0  0  0
 91110  1  0  0  0  0
110111  2  0  0  0  0
111112  1  0  0  0  0
112113  2  0  0  0  0
112114  1  0  0  0  0
114115  2  0  0  0  0
115116  1  0  0  0  0
116117  2  0  0  0  0
117118  1  0  0  0  0
118119  2  0  0  0  0
119120  1  0  0  0  0
120121  2  0  0  0  0
121122  1  0  0  0  0
122123  3  0  0  0  0
121124  1  0  0  0  0
124125  3  0  0  0  0
117126  1  0  0  0  0
126127  1  0  0  0  0
127128  1  0  0  0  0
128129  2  0  0  0  0
129130  1  0  0  0  0
130131  1  0  0  0  0
130132  1  0  0  0  0
 11  2  1  0  0  0  0
 23 17  1  0  0  0  0
 29 24  1  0  0  0  0
 71 30  1  0  0  0  0
109 72  1  0  0  0  0
120111  1  0  0  0  0
132126  1  0  0  0  0
 10  5  1  0  0  0  0
 22 18  1  0  0  0  0
 40 33  1  0  0  0  0
 48 41  1  0  0  0  0
 70 49  2  0  0  0  0
 81 75  1  0  0  0  0
 88 82  1  0  0  0  0
108 89  2  0  0  0  0
119114  1  0  0  0  0
131127  1  0  0  0  0
 23  7  1  0  0  0  0
 61 54  1  0  0  0  0
 69 62  1  0  0  0  0
100 94  1  0  0  0  0
107101  1  0  0  0  0
132116  1  0  0  0  0
  1133  1  0  0  0  0
  6134  1  0  0  0  0
  9135  1  0  0  0  0
 17136  1  0  0  0  0
 18137  1  0  0  0  0
 19138  1  0  0  0  0
 20139  1  0  0  0  0
 21140  1  0  0  0  0
 22141  1  0  0  0  0
 22142  1  0  0  0  0
 23143  1  0  0  0  0
 25144  1  0  0  0  0
 26145  1  0  0  0  0
 28146  1  0  0  0  0
 34147  1  0  0  0  0
 35148  1  0  0  0  0
 38149  1  0  0  0  0
 38150  1  0  0  0  0
 38151  1  0  0  0  0
 39152  1  0  0  0  0
 40153  1  0  0  0  0
 42154  1  0  0  0  0
 43155  1  0  0  0  0
 46156  1  0  0  0  0
 46157  1  0  0  0  0
 46158  1  0  0  0  0
 47159  1  0  0  0  0
 48160  1  0  0  0  0
 55161  1  0  0  0  0
 56162  1  0  0  0  0
 59163  1  0  0  0  0
 59164  1  0  0  0  0
 59165  1  0  0  0  0
 60166  1  0  0  0  0
 61167  1  0  0  0  0
 63168  1  0  0  0  0
 64169  1  0  0  0  0
 67170  1  0  0  0  0
 67171  1  0  0  0  0
 67172  1  0  0  0  0
 68173  1  0  0  0  0
 69174  1  0  0  0  0
 76175  1  0  0  0  0
 77176  1  0  0  0  0
 79177  1  0  0  0  0
 79178  1  0  0  0  0
 79179  1  0  0  0  0
 80180  1  0  0  0  0
 81181  1  0  0  0  0
 83182  1  0  0  0  0
 84183  1  0  0  0  0
 86184  1  0  0  0  0
 86185  1  0  0  0  0
 86186  1  0  0  0  0
 87187  1  0  0  0  0
 88188  1  0  0  0  0
 95189  1  0  0  0  0
 96190  1  0  0  0  0
 98191  1  0  0  0  0
 98192  1  0  0  0  0
 98193  1  0  0  0  0
 99194  1  0  0  0  0
100195  1  0  0  0  0
102196  1  0  0  0  0
103197  1  0  0  0  0
105198  1  0  0  0  0
105199  1  0  0  0  0
105200  1  0  0  0  0
106201  1  0  0  0  0
107202  1  0  0  0  0
110203  1  0  0  0  0
115204  1  0  0  0  0
118205  1  0  0  0  0
126206  1  0  0  0  0
127207  1  0  0  0  0
128208  1  0  0  0  0
129209  1  0  0  0  0
130210  1  0  0  0  0
131211  1  0  0  0  0
131212  1  0  0  0  0
132213  1  0  0  0  0
M  END
