
  xtb     02082200133D
 energy: -371.810417550340 gnorm: 0.000843547793 xtb: 6.4.1 (unknown)
222243  0     0  0            999 V2000
   -6.0652   -2.0572    5.1440 C   0  0  0  0  0  0  0  0  0  0  0  0
   -5.5134   -2.3519    6.3560 C   0  0  0  0  0  0  0  0  0  0  0  0
   -4.2547   -3.1232    6.4942 C   0  0  0  0  0  0  0  0  0  0  0  0
   -3.5614   -3.5508    5.5946 O   0  0  0  0  0  0  0  0  0  0  0  0
   -4.1179   -3.4093    7.9322 C   0  0  0  0  0  0  0  0  0  0  0  0
   -3.0912   -4.1191    8.5499 C   0  0  0  0  0  0  0  0  0  0  0  0
   -3.2366   -4.2475    9.9101 C   0  0  0  0  0  0  0  0  0  0  0  0
   -4.3325   -3.7188   10.6065 C   0  0  0  0  0  0  0  0  0  0  0  0
   -5.3586   -3.0263   10.0093 C   0  0  0  0  0  0  0  0  0  0  0  0
   -5.2251   -2.8780    8.6258 C   0  0  0  0  0  0  0  0  0  0  0  0
   -6.1008   -2.2104    7.6686 C   0  0  0  0  0  0  0  0  0  0  0  0
   -7.2196   -1.4723    7.9596 C   0  0  0  0  0  0  0  0  0  0  0  0
   -7.7638   -1.3167    9.2499 C   0  0  0  0  0  0  0  0  0  0  0  0
   -8.2615   -1.1595   10.2727 N   0  0  0  0  0  0  0  0  0  0  0  0
   -7.9488   -0.7453    6.9961 C   0  0  0  0  0  0  0  0  0  0  0  0
   -8.5641   -0.1116    6.2620 N   0  0  0  0  0  0  0  0  0  0  0  0
   -3.8412   -4.2374   11.9341 C   0  0  0  0  0  0  0  0  0  0  0  0
   -3.1716   -3.2327   12.9033 C   0  0  0  0  0  0  0  0  0  0  0  0
   -2.5779   -2.1377   12.0510 C   0  0  0  0  0  0  0  0  0  0  0  0
   -1.5410   -2.6477   11.4004 C   0  0  0  0  0  0  0  0  0  0  0  0
   -1.4179   -4.0974   11.7961 C   0  0  0  0  0  0  0  0  0  0  0  0
   -1.8999   -4.0223   13.2537 C   0  0  0  0  0  0  0  0  0  0  0  0
   -2.6230   -4.8313   11.1587 C   0  0  0  0  0  0  0  0  0  0  0  0
   -5.2871   -1.8604    3.9736 C   0  0  0  0  0  0  0  0  0  0  0  0
   -4.1545   -1.0609    3.8711 C   0  0  0  0  0  0  0  0  0  0  0  0
   -3.5799   -0.3051    4.8998 N   0  0  0  0  0  0  0  0  0  0  0  0
   -3.7095    1.0817    4.7404 C   0  0  0  0  0  0  0  0  0  0  0  0
   -4.9079    1.5985    4.2509 C   0  0  0  0  0  0  0  0  0  0  0  0
   -5.0606    2.9522    4.0307 C   0  0  0  0  0  0  0  0  0  0  0  0
   -4.0101    3.8208    4.2930 C   0  0  0  0  0  0  0  0  0  0  0  0
   -4.0758    5.5600    4.0018 S   0  0  0  0  0  0  0  0  0  0  0  0
   -5.7276    5.8208    3.2967 C   0  0  0  0  0  0  0  0  0  0  0  0
   -2.8181    3.3131    4.8077 C   0  0  0  0  0  0  0  0  0  0  0  0
   -2.6658    1.9624    5.0282 C   0  0  0  0  0  0  0  0  0  0  0  0
   -2.5609   -0.8461    5.6961 C   0  0  0  0  0  0  0  0  0  0  0  0
   -1.6792   -1.7908    5.1812 C   0  0  0  0  0  0  0  0  0  0  0  0
   -0.6942   -2.3400    5.9787 C   0  0  0  0  0  0  0  0  0  0  0  0
   -0.5688   -1.9382    7.3007 C   0  0  0  0  0  0  0  0  0  0  0  0
    0.6621   -2.5706    8.3994 S   0  0  0  0  0  0  0  0  0  0  0  0
    1.7831   -3.4913    7.3101 C   0  0  0  0  0  0  0  0  0  0  0  0
   -1.4503   -0.9907    7.8196 C   0  0  0  0  0  0  0  0  0  0  0  0
   -2.4413   -0.4545    7.0281 C   0  0  0  0  0  0  0  0  0  0  0  0
   -3.7743   -0.8989    2.5253 C   0  0  0  0  0  0  0  0  0  0  0  0
   -2.4120   -0.1484    1.7968 S   0  0  0  0  0  0  0  0  0  0  0  0
   -2.9145   -0.7372    0.2116 C   0  0  0  0  0  0  0  0  0  0  0  0
   -4.0796   -1.4846    0.2670 C   0  0  0  0  0  0  0  0  0  0  0  0
   -4.6881   -2.1155   -0.8030 N   0  0  0  0  0  0  0  0  0  0  0  0
   -3.9309   -2.5586   -1.8940 C   0  0  0  0  0  0  0  0  0  0  0  0
   -2.6525   -3.0809   -1.7107 C   0  0  0  0  0  0  0  0  0  0  0  0
   -1.8743   -3.4340   -2.7953 C   0  0  0  0  0  0  0  0  0  0  0  0
   -2.3747   -3.2937   -4.0814 C   0  0  0  0  0  0  0  0  0  0  0  0
   -1.3983   -3.6196   -5.5237 S   0  0  0  0  0  0  0  0  0  0  0  0
    0.2625   -3.1416   -4.9529 C   0  0  0  0  0  0  0  0  0  0  0  0
   -3.6845   -2.8587   -4.2669 C   0  0  0  0  0  0  0  0  0  0  0  0
   -4.4500   -2.4807   -3.1864 C   0  0  0  0  0  0  0  0  0  0  0  0
   -6.0676   -2.3734   -0.7651 C   0  0  0  0  0  0  0  0  0  0  0  0
   -6.5717   -3.5671   -1.2747 C   0  0  0  0  0  0  0  0  0  0  0  0
   -7.9262   -3.8334   -1.2482 C   0  0  0  0  0  0  0  0  0  0  0  0
   -8.8062   -2.9123   -0.6953 C   0  0  0  0  0  0  0  0  0  0  0  0
  -10.5542   -3.1319   -0.6039 S   0  0  0  0  0  0  0  0  0  0  0  0
  -10.8237   -4.7992   -1.2664 C   0  0  0  0  0  0  0  0  0  0  0  0
   -8.3047   -1.7220   -0.1750 C   0  0  0  0  0  0  0  0  0  0  0  0
   -6.9552   -1.4510   -0.2107 C   0  0  0  0  0  0  0  0  0  0  0  0
   -4.5637   -1.5614    1.6014 C   0  0  0  0  0  0  0  0  0  0  0  0
   -5.8634   -2.3845    2.3984 S   0  0  0  0  0  0  0  0  0  0  0  0
   -1.9425   -0.5054   -0.8263 C   0  0  0  0  0  0  0  0  0  0  0  0
   -1.9848    0.1773   -2.0285 C   0  0  0  0  0  0  0  0  0  0  0  0
   -3.1135    0.7733   -2.5573 N   0  0  0  0  0  0  0  0  0  0  0  0
   -3.2133    1.0084   -3.9354 C   0  0  0  0  0  0  0  0  0  0  0  0
   -3.8244    2.1672   -4.4183 C   0  0  0  0  0  0  0  0  0  0  0  0
   -3.9147    2.3911   -5.7729 C   0  0  0  0  0  0  0  0  0  0  0  0
   -3.3939    1.4723   -6.6836 C   0  0  0  0  0  0  0  0  0  0  0  0
   -3.5699    1.8707   -8.3943 S   0  0  0  0  0  0  0  0  0  0  0  0
   -2.6422    0.5591   -9.2402 C   0  0  0  0  0  0  0  0  0  0  0  0
   -2.7853    0.3202   -6.2101 C   0  0  0  0  0  0  0  0  0  0  0  0
   -2.6970    0.0964   -4.8497 C   0  0  0  0  0  0  0  0  0  0  0  0
   -4.1084    1.2654   -1.6958 C   0  0  0  0  0  0  0  0  0  0  0  0
   -3.7715    1.9041   -0.5016 C   0  0  0  0  0  0  0  0  0  0  0  0
   -4.7550    2.3623    0.3458 C   0  0  0  0  0  0  0  0  0  0  0  0
   -6.0995    2.2232    0.0059 C   0  0  0  0  0  0  0  0  0  0  0  0
   -7.2755    2.8426    1.1678 S   0  0  0  0  0  0  0  0  0  0  0  0
   -8.8850    2.4740    0.4197 C   0  0  0  0  0  0  0  0  0  0  0  0
   -6.4397    1.6209   -1.1987 C   0  0  0  0  0  0  0  0  0  0  0  0
   -5.4510    1.1343   -2.0326 C   0  0  0  0  0  0  0  0  0  0  0  0
   -0.6827    0.2709   -2.5971 C   0  0  0  0  0  0  0  0  0  0  0  0
   -0.0236    0.9879   -4.0315 S   0  0  0  0  0  0  0  0  0  0  0  0
    1.6131    0.5957   -3.5094 C   0  0  0  0  0  0  0  0  0  0  0  0
    1.6340   -0.1107   -2.3176 C   0  0  0  0  0  0  0  0  0  0  0  0
    2.7505   -0.6308   -1.6807 N   0  0  0  0  0  0  0  0  0  0  0  0
    3.8508   -1.0894   -2.4082 C   0  0  0  0  0  0  0  0  0  0  0  0
    5.1495   -0.8593   -1.9502 C   0  0  0  0  0  0  0  0  0  0  0  0
    6.2314   -1.1636   -2.7488 C   0  0  0  0  0  0  0  0  0  0  0  0
    6.0399   -1.7114   -4.0129 C   0  0  0  0  0  0  0  0  0  0  0  0
    7.4558   -1.9383   -5.0539 S   0  0  0  0  0  0  0  0  0  0  0  0
    7.0676   -3.5200   -5.8713 C   0  0  0  0  0  0  0  0  0  0  0  0
    4.7543   -2.0109   -4.4431 C   0  0  0  0  0  0  0  0  0  0  0  0
    3.6715   -1.7128   -3.6432 C   0  0  0  0  0  0  0  0  0  0  0  0
    2.7378   -0.6674   -0.2755 C   0  0  0  0  0  0  0  0  0  0  0  0
    3.1846   -1.7933    0.4147 C   0  0  0  0  0  0  0  0  0  0  0  0
    3.0404   -1.8657    1.7826 C   0  0  0  0  0  0  0  0  0  0  0  0
    2.4462   -0.8212    2.4896 C   0  0  0  0  0  0  0  0  0  0  0  0
    2.2141   -1.0565    4.2234 S   0  0  0  0  0  0  0  0  0  0  0  0
    1.1345    0.3187    4.7051 C   0  0  0  0  0  0  0  0  0  0  0  0
    2.0660    0.3301    1.8148 C   0  0  0  0  0  0  0  0  0  0  0  0
    2.2173    0.4048    0.4443 C   0  0  0  0  0  0  0  0  0  0  0  0
    0.3190   -0.2784   -1.8159 C   0  0  0  0  0  0  0  0  0  0  0  0
   -0.3056   -0.9840   -0.3784 S   0  0  0  0  0  0  0  0  0  0  0  0
    2.7329    0.9807   -4.3102 C   0  0  0  0  0  0  0  0  0  0  0  0
    4.1741    1.6166   -3.5620 S   0  0  0  0  0  0  0  0  0  0  0  0
    4.9963    1.5594   -5.0738 C   0  0  0  0  0  0  0  0  0  0  0  0
    6.3585    1.7977   -5.3510 C   0  0  0  0  0  0  0  0  0  0  0  0
    6.7846    1.6403   -6.6752 C   0  0  0  0  0  0  0  0  0  0  0  0
    5.2446    1.0888   -7.7738 Ge  0  0  0  0  0  4  0  0  0  0  0  0
    4.6805    2.4748   -9.1067 C   0  0  0  0  0  0  0  0  0  0  0  0
    4.5615    3.8522   -8.4737 C   0  0  0  0  0  0  0  0  0  0  0  0
    5.4482   -0.7822   -8.4761 C   0  0  0  0  0  0  0  0  0  0  0  0
    4.1225   -1.5180   -8.5977 C   0  0  0  0  0  0  0  0  0  0  0  0
    4.1714    1.1564   -6.1171 C   0  0  0  0  0  0  0  0  0  0  0  0
    2.8861    0.8497   -5.6744 C   0  0  0  0  0  0  0  0  0  0  0  0
    8.1374    1.8652   -6.8238 C   0  0  0  0  0  0  0  0  0  0  0  0
    8.7829    2.1939   -5.6318 C   0  0  0  0  0  0  0  0  0  0  0  0
    7.6367    2.2007   -4.2910 S   0  0  0  0  0  0  0  0  0  0  0  0
   10.1156    2.4745   -5.3101 C   0  0  0  0  0  0  0  0  0  0  0  0
   11.2270    2.6638   -6.0996 C   0  0  0  0  0  0  0  0  0  0  0  0
   11.2994    2.7850   -7.5669 C   0  0  0  0  0  0  0  0  0  0  0  0
   10.4372    2.5989   -8.4015 O   0  0  0  0  0  0  0  0  0  0  0  0
   12.6849    3.2221   -7.8609 C   0  0  0  0  0  0  0  0  0  0  0  0
   13.2361    3.5256   -9.0886 C   0  0  0  0  0  0  0  0  0  0  0  0
   14.5632    3.9350   -9.1305 C   0  0  0  0  0  0  0  0  0  0  0  0
   15.3133    4.3318  -10.6279 Cl  0  0  0  0  0  0  0  0  0  0  0  0
   15.2887    4.0257   -7.9414 C   0  0  0  0  0  0  0  0  0  0  0  0
   16.5652    4.4287   -7.9880 F   0  0  0  0  0  0  0  0  0  0  0  0
   14.7413    3.7168   -6.7056 C   0  0  0  0  0  0  0  0  0  0  0  0
   13.4176    3.3077   -6.6671 C   0  0  0  0  0  0  0  0  0  0  0  0
   12.5499    2.9130   -5.5591 C   0  0  0  0  0  0  0  0  0  0  0  0
   12.9661    2.7514   -4.2616 C   0  0  0  0  0  0  0  0  0  0  0  0
   12.1843    2.2726   -3.1890 C   0  0  0  0  0  0  0  0  0  0  0  0
   11.6382    1.8722   -2.2606 N   0  0  0  0  0  0  0  0  0  0  0  0
   14.2802    3.0120   -3.8196 C   0  0  0  0  0  0  0  0  0  0  0  0
   15.3276    3.2090   -3.3925 N   0  0  0  0  0  0  0  0  0  0  0  0
   -7.1352   -1.9259    5.0412 H   0  0  0  0  0  0  0  0  0  0  0  0
   -2.2696   -4.5155    7.9749 H   0  0  0  0  0  0  0  0  0  0  0  0
   -6.2036   -2.6391   10.5546 H   0  0  0  0  0  0  0  0  0  0  0  0
   -4.5052   -4.9292   12.4490 H   0  0  0  0  0  0  0  0  0  0  0  0
   -3.8044   -2.9105   13.7261 H   0  0  0  0  0  0  0  0  0  0  0  0
   -2.9948   -1.1506   11.9718 H   0  0  0  0  0  0  0  0  0  0  0  0
   -0.9065   -2.1820   10.6705 H   0  0  0  0  0  0  0  0  0  0  0  0
   -0.4541   -4.5620   11.6076 H   0  0  0  0  0  0  0  0  0  0  0  0
   -1.2191   -3.4622   13.8927 H   0  0  0  0  0  0  0  0  0  0  0  0
   -2.1024   -4.9968   13.6963 H   0  0  0  0  0  0  0  0  0  0  0  0
   -2.4984   -5.9126   11.1611 H   0  0  0  0  0  0  0  0  0  0  0  0
   -5.7362    0.9379    4.0442 H   0  0  0  0  0  0  0  0  0  0  0  0
   -6.0039    3.3084    3.6523 H   0  0  0  0  0  0  0  0  0  0  0  0
   -6.4878    5.5653    4.0290 H   0  0  0  0  0  0  0  0  0  0  0  0
   -5.7801    6.8799    3.0643 H   0  0  0  0  0  0  0  0  0  0  0  0
   -5.8450    5.2348    2.3896 H   0  0  0  0  0  0  0  0  0  0  0  0
   -2.0066    3.9928    5.0190 H   0  0  0  0  0  0  0  0  0  0  0  0
   -1.7313    1.5816    5.4124 H   0  0  0  0  0  0  0  0  0  0  0  0
   -1.7669   -2.1058    4.1533 H   0  0  0  0  0  0  0  0  0  0  0  0
   -0.0310   -3.0733    5.5514 H   0  0  0  0  0  0  0  0  0  0  0  0
    2.6233   -3.7800    7.9341 H   0  0  0  0  0  0  0  0  0  0  0  0
    1.2876   -4.3790    6.9274 H   0  0  0  0  0  0  0  0  0  0  0  0
    2.1226   -2.8487    6.5027 H   0  0  0  0  0  0  0  0  0  0  0  0
   -1.3570   -0.6859    8.8505 H   0  0  0  0  0  0  0  0  0  0  0  0
   -3.1301    0.2727    7.4321 H   0  0  0  0  0  0  0  0  0  0  0  0
   -2.2675   -3.2218   -0.7124 H   0  0  0  0  0  0  0  0  0  0  0  0
   -0.8819   -3.8211   -2.6258 H   0  0  0  0  0  0  0  0  0  0  0  0
    0.8560   -2.9929   -5.8499 H   0  0  0  0  0  0  0  0  0  0  0  0
    0.7021   -3.9304   -4.3489 H   0  0  0  0  0  0  0  0  0  0  0  0
    0.1904   -2.2142   -4.3915 H   0  0  0  0  0  0  0  0  0  0  0  0
   -4.0784   -2.7819   -5.2684 H   0  0  0  0  0  0  0  0  0  0  0  0
   -5.4502   -2.1046   -3.3381 H   0  0  0  0  0  0  0  0  0  0  0  0
   -5.8946   -4.2963   -1.6944 H   0  0  0  0  0  0  0  0  0  0  0  0
   -8.2784   -4.7681   -1.6533 H   0  0  0  0  0  0  0  0  0  0  0  0
  -11.8920   -4.9749   -1.1867 H   0  0  0  0  0  0  0  0  0  0  0  0
  -10.2846   -5.5268   -0.6669 H   0  0  0  0  0  0  0  0  0  0  0  0
  -10.5211   -4.8410   -2.3088 H   0  0  0  0  0  0  0  0  0  0  0  0
   -8.9941   -1.0160    0.2624 H   0  0  0  0  0  0  0  0  0  0  0  0
   -6.5800   -0.5195    0.1825 H   0  0  0  0  0  0  0  0  0  0  0  0
   -4.2197    2.8941   -3.7248 H   0  0  0  0  0  0  0  0  0  0  0  0
   -4.3828    3.2895   -6.1450 H   0  0  0  0  0  0  0  0  0  0  0  0
   -1.6143    0.5517   -8.8900 H   0  0  0  0  0  0  0  0  0  0  0  0
   -2.6722    0.8140  -10.2950 H   0  0  0  0  0  0  0  0  0  0  0  0
   -3.1211   -0.4026   -9.0807 H   0  0  0  0  0  0  0  0  0  0  0  0
   -2.3794   -0.4202   -6.8798 H   0  0  0  0  0  0  0  0  0  0  0  0
   -2.2367   -0.8091   -4.4931 H   0  0  0  0  0  0  0  0  0  0  0  0
   -2.7337    2.0524   -0.2443 H   0  0  0  0  0  0  0  0  0  0  0  0
   -4.4894    2.8371    1.2783 H   0  0  0  0  0  0  0  0  0  0  0  0
   -8.9882    1.4035    0.2701 H   0  0  0  0  0  0  0  0  0  0  0  0
   -9.6237    2.8181    1.1372 H   0  0  0  0  0  0  0  0  0  0  0  0
   -8.9953    3.0173   -0.5144 H   0  0  0  0  0  0  0  0  0  0  0  0
   -7.4696    1.5070   -1.4955 H   0  0  0  0  0  0  0  0  0  0  0  0
   -5.7227    0.6511   -2.9592 H   0  0  0  0  0  0  0  0  0  0  0  0
    5.2993   -0.4017   -0.9843 H   0  0  0  0  0  0  0  0  0  0  0  0
    7.2333   -0.9483   -2.4118 H   0  0  0  0  0  0  0  0  0  0  0  0
    7.9952   -3.8578   -6.3220 H   0  0  0  0  0  0  0  0  0  0  0  0
    6.7341   -4.2328   -5.1238 H   0  0  0  0  0  0  0  0  0  0  0  0
    6.3141   -3.3859   -6.6418 H   0  0  0  0  0  0  0  0  0  0  0  0
    4.5899   -2.4622   -5.4091 H   0  0  0  0  0  0  0  0  0  0  0  0
    2.6734   -1.9349   -3.9900 H   0  0  0  0  0  0  0  0  0  0  0  0
    3.6192   -2.6170   -0.1318 H   0  0  0  0  0  0  0  0  0  0  0  0
    3.3626   -2.7454    2.3181 H   0  0  0  0  0  0  0  0  0  0  0  0
    0.2496    0.3217    4.0745 H   0  0  0  0  0  0  0  0  0  0  0  0
    1.6744    1.2592    4.6413 H   0  0  0  0  0  0  0  0  0  0  0  0
    0.8519    0.1264    5.7360 H   0  0  0  0  0  0  0  0  0  0  0  0
    1.6434    1.1722    2.3378 H   0  0  0  0  0  0  0  0  0  0  0  0
    1.9128    1.2998   -0.0787 H   0  0  0  0  0  0  0  0  0  0  0  0
    5.4173    2.4895   -9.9092 H   0  0  0  0  0  0  0  0  0  0  0  0
    3.7279    2.1739   -9.5423 H   0  0  0  0  0  0  0  0  0  0  0  0
    4.2549    4.5879   -9.2148 H   0  0  0  0  0  0  0  0  0  0  0  0
    3.8252    3.8447   -7.6719 H   0  0  0  0  0  0  0  0  0  0  0  0
    5.5169    4.1638   -8.0559 H   0  0  0  0  0  0  0  0  0  0  0  0
    5.9438   -0.7345   -9.4450 H   0  0  0  0  0  0  0  0  0  0  0  0
    6.1175   -1.3063   -7.7957 H   0  0  0  0  0  0  0  0  0  0  0  0
    3.4627   -1.0094   -9.2975 H   0  0  0  0  0  0  0  0  0  0  0  0
    3.6214   -1.5629   -7.6324 H   0  0  0  0  0  0  0  0  0  0  0  0
    4.2784   -2.5347   -8.9565 H   0  0  0  0  0  0  0  0  0  0  0  0
    2.0925    0.4910   -6.3074 H   0  0  0  0  0  0  0  0  0  0  0  0
    8.6648    1.8010   -7.7580 H   0  0  0  0  0  0  0  0  0  0  0  0
   10.2791    2.5817   -4.2441 H   0  0  0  0  0  0  0  0  0  0  0  0
   12.6483    3.4476   -9.9892 H   0  0  0  0  0  0  0  0  0  0  0  0
   15.3570    3.8109   -5.8264 H   0  0  0  0  0  0  0  0  0  0  0  0
  1  2  2  0  0  0  0
  2  3  1  0  0  0  0
  3  4  2  0  0  0  0
  3  5  1  0  0  0  0
  5  6  2  0  0  0  0
  6  7  1  0  0  0  0
  7  8  2  0  0  0  0
  8  9  1  0  0  0  0
  9 10  2  0  0  0  0
 10 11  1  0  0  0  0
 11 12  2  0  0  0  0
 12 13  1  0  0  0  0
 13 14  3  0  0  0  0
 12 15  1  0  0  0  0
 15 16  3  0  0  0  0
  8 17  1  0  0  0  0
 17 18  1  0  0  0  0
 18 19  1  0  0  0  0
 19 20  2  0  0  0  0
 20 21  1  0  0  0  0
 21 22  1  0  0  0  0
 21 23  1  0  0  0  0
  1 24  1  0  0  0  0
 24 25  2  0  0  0  0
 25 26  1  0  0  0  0
 26 27  1  0  0  0  0
 27 28  2  0  0  0  0
 28 29  1  0  0  0  0
 29 30  2  0  0  0  0
 30 31  1  0  0  0  0
 31 32  1  0  0  0  0
 30 33  1  0  0  0  0
 33 34  2  0  0  0  0
 26 35  1  0  0  0  0
 35 36  2  0  0  0  0
 36 37  1  0  0  0  0
 37 38  2  0  0  0  0
 38 39  1  0  0  0  0
 39 40  1  0  0  0  0
 38 41  1  0  0  0  0
 41 42  2  0  0  0  0
 25 43  1  0  0  0  0
 43 44  1  0  0  0  0
 44 45  1  0  0  0  0
 45 46  2  0  0  0  0
 46 47  1  0  0  0  0
 47 48  1  0  0  0  0
 48 49  2  0  0  0  0
 49 50  1  0  0  0  0
 50 51  2  0  0  0  0
 51 52  1  0  0  0  0
 52 53  1  0  0  0  0
 51 54  1  0  0  0  0
 54 55  2  0  0  0  0
 47 56  1  0  0  0  0
 56 57  2  0  0  0  0
 57 58  1  0  0  0  0
 58 59  2  0  0  0  0
 59 60  1  0  0  0  0
 60 61  1  0  0  0  0
 59 62  1  0  0  0  0
 62 63  2  0  0  0  0
 46 64  1  0  0  0  0
 64 65  1  0  0  0  0
 45 66  1  0  0  0  0
 66 67  2  0  0  0  0
 67 68  1  0  0  0  0
 68 69  1  0  0  0  0
 69 70  2  0  0  0  0
 70 71  1  0  0  0  0
 71 72  2  0  0  0  0
 72 73  1  0  0  0  0
 73 74  1  0  0  0  0
 72 75  1  0  0  0  0
 75 76  2  0  0  0  0
 68 77  1  0  0  0  0
 77 78  2  0  0  0  0
 78 79  1  0  0  0  0
 79 80  2  0  0  0  0
 80 81  1  0  0  0  0
 81 82  1  0  0  0  0
 80 83  1  0  0  0  0
 83 84  2  0  0  0  0
 67 85  1  0  0  0  0
 85 86  1  0  0  0  0
 86 87  1  0  0  0  0
 87 88  2  0  0  0  0
 88 89  1  0  0  0  0
 89 90  1  0  0  0  0
 90 91  2  0  0  0  0
 91 92  1  0  0  0  0
 92 93  2  0  0  0  0
 93 94  1  0  0  0  0
 94 95  1  0  0  0  0
 93 96  1  0  0  0  0
 96 97  2  0  0  0  0
 89 98  1  0  0  0  0
 98 99  2  0  0  0  0
 99100  1  0  0  0  0
100101  2  0  0  0  0
101102  1  0  0  0  0
102103  1  0  0  0  0
101104  1  0  0  0  0
104105  2  0  0  0  0
 88106  1  0  0  0  0
106107  1  0  0  0  0
 87108  1  0  0  0  0
108109  1  0  0  0  0
109110  1  0  0  0  0
110111  1  0  0  0  0
111112  2  0  0  0  0
112113  1  0  0  0  0
113114  1  0  0  0  0
114115  1  0  0  0  0
113116  1  0  0  0  0
116117  1  0  0  0  0
113118  1  0  0  0  0
118119  1  0  0  0  0
112120  1  0  0  0  0
120121  2  0  0  0  0
121122  1  0  0  0  0
121123  1  0  0  0  0
123124  2  0  0  0  0
124125  1  0  0  0  0
125126  2  0  0  0  0
125127  1  0  0  0  0
127128  2  0  0  0  0
128129  1  0  0  0  0
129130  1  0  0  0  0
129131  2  0  0  0  0
131132  1  0  0  0  0
131133  1  0  0  0  0
133134  2  0  0  0  0
134135  1  0  0  0  0
135136  2  0  0  0  0
136137  1  0  0  0  0
137138  3  0  0  0  0
136139  1  0  0  0  0
139140  3  0  0  0  0
 11  2  1  0  0  0  0
 23 17  1  0  0  0  0
 65 24  1  0  0  0  0
107 66  1  0  0  0  0
119108  2  0  0  0  0
135124  1  0  0  0  0
 10  5  1  0  0  0  0
 22 18  1  0  0  0  0
 34 27  1  0  0  0  0
 42 35  1  0  0  0  0
 64 43  2  0  0  0  0
 76 69  1  0  0  0  0
 84 77  1  0  0  0  0
106 85  2  0  0  0  0
118110  2  0  0  0  0
134127  1  0  0  0  0
 23  7  1  0  0  0  0
 55 48  1  0  0  0  0
 63 56  1  0  0  0  0
 97 90  1  0  0  0  0
105 98  1  0  0  0  0
122111  1  0  0  0  0
  1141  1  0  0  0  0
  6142  1  0  0  0  0
  9143  1  0  0  0  0
 17144  1  0  0  0  0
 18145  1  0  0  0  0
 19146  1  0  0  0  0
 20147  1  0  0  0  0
 21148  1  0  0  0  0
 22149  1  0  0  0  0
 22150  1  0  0  0  0
 23151  1  0  0  0  0
 28152  1  0  0  0  0
 29153  1  0  0  0  0
 32154  1  0  0  0  0
 32155  1  0  0  0  0
 32156  1  0  0  0  0
 33157  1  0  0  0  0
 34158  1  0  0  0  0
 36159  1  0  0  0  0
 37160  1  0  0  0  0
 40161  1  0  0  0  0
 40162  1  0  0  0  0
 40163  1  0  0  0  0
 41164  1  0  0  0  0
 42165  1  0  0  0  0
 49166  1  0  0  0  0
 50167  1  0  0  0  0
 53168  1  0  0  0  0
 53169  1  0  0  0  0
 53170  1  0  0  0  0
 54171  1  0  0  0  0
 55172  1  0  0  0  0
 57173  1  0  0  0  0
 58174  1  0  0  0  0
 61175  1  0  0  0  0
 61176  1  0  0  0  0
 61177  1  0  0  0  0
 62178  1  0  0  0  0
 63179  1  0  0  0  0
 70180  1  0  0  0  0
 71181  1  0  0  0  0
 74182  1  0  0  0  0
 74183  1  0  0  0  0
 74184  1  0  0  0  0
 75185  1  0  0  0  0
 76186  1  0  0  0  0
 78187  1  0  0  0  0
 79188  1  0  0  0  0
 82189  1  0  0  0  0
 82190  1  0  0  0  0
 82191  1  0  0  0  0
 83192  1  0  0  0  0
 84193  1  0  0  0  0
 91194  1  0  0  0  0
 92195  1  0  0  0  0
 95196  1  0  0  0  0
 95197  1  0  0  0  0
 95198  1  0  0  0  0
 96199  1  0  0  0  0
 97200  1  0  0  0  0
 99201  1  0  0  0  0
100202  1  0  0  0  0
103203  1  0  0  0  0
103204  1  0  0  0  0
103205  1  0  0  0  0
104206  1  0  0  0  0
105207  1  0  0  0  0
114208  1  0  0  0  0
114209  1  0  0  0  0
115210  1  0  0  0  0
115211  1  0  0  0  0
115212  1  0  0  0  0
116213  1  0  0  0  0
116214  1  0  0  0  0
117215  1  0  0  0  0
117216  1  0  0  0  0
117217  1  0  0  0  0
119218  1  0  0  0  0
120219  1  0  0  0  0
123220  1  0  0  0  0
128221  1  0  0  0  0
133222  1  0  0  0  0
M  END
