234

C          6.45950        5.21860       -2.53550
C          7.46630        5.62460       -1.68240
C          7.26180        5.93220       -0.25860
O          6.22670        5.84050        0.37750
C          8.54440        6.48910        0.21940
C          8.84330        6.92510        1.50570
C         10.14410        7.34150        1.66760
C         11.07700        7.33070        0.62420
C         10.78810        6.92350       -0.65740
C          9.47260        6.49570       -0.83990
C          8.81630        5.95940       -2.02990
C          9.42800        5.66480       -3.22580
C          8.80070        4.97030       -4.27780
N          8.37900        4.35850       -5.15500
C         10.77530        5.93080       -3.52690
N         11.86710        6.09730       -3.84650
C         12.18660        7.84920        1.50300
C         13.23660        6.83050        2.01120
C         12.55180        5.48670        2.06000
C         11.67520        5.51720        3.05510
C         11.74580        6.88310        3.69100
C         13.24040        7.18910        3.50610
C         11.14400        7.87450        2.66490
C          5.30490        4.53820       -2.15100
C          5.03560        3.73160       -1.02370
N          5.93310        3.23650       -0.12700
C          5.43530        2.73360        1.10060
C          5.63560        1.39800        1.42550
C          5.08600        0.87480        2.57930
C          4.33980        1.69020        3.42080
S          3.55630        1.10970        4.89020
C          3.53140       -0.69010        4.65370
C          4.18990        3.04340        3.12270
C          4.72930        3.56440        1.96710
C          7.30950        3.12740       -0.35180
C          7.82760        2.75120       -1.58890
C          9.19150        2.70030       -1.79660
C         10.06660        3.03240       -0.76830
S         11.81640        3.09520       -0.93650
C         12.12800        2.59390       -2.65100
C          9.55250        3.35230        0.48810
C          8.19320        3.39250        0.69730
C          3.67030        3.36450       -0.99950
S          2.69000        2.42690        0.07480
C          1.30250        2.58540       -0.98820
C          1.59390        3.33130       -2.11600
N          0.73560        3.52400       -3.22100
C          0.34420        4.82090       -3.55620
C         -0.60040        5.01240       -4.56620
C         -1.02520        6.27740       -4.91480
C         -0.51630        7.38700       -4.25620
S         -1.02070        9.04820       -4.61510
C         -1.65790        8.93390       -6.31110
C          0.39080        7.20500       -3.21950
C          0.80980        5.94080       -2.86660
C          0.87620        2.54100       -4.22780
C          1.22300        2.88190       -5.53250
C          1.35270        1.91610       -6.51120
C          1.15880        0.57740       -6.19950
S          1.27160       -0.74220       -7.36850
C          1.97070        0.04550       -8.84670
C          0.85230        0.22490       -4.88800
C          0.71710        1.19110       -3.91430
C          2.93570        3.77120       -2.10410
S          3.90250        4.64810       -3.23120
C          0.14190        1.83500       -0.63420
C         -1.19460        1.96420       -0.98860
N         -1.81270        3.04110       -1.60410
C         -1.62670        4.36320       -1.18700
C         -2.22850        5.39900       -1.90150
C         -2.09090        6.71410       -1.50880
C         -1.32110        7.03350       -0.39920
S         -1.03700        8.67610        0.17520
C         -1.96340        9.71730       -0.98540
C         -0.71930        6.00580        0.32110
C         -0.87710        4.69080       -0.05710
C         -2.94750        2.70320       -2.37740
C         -2.79870        1.83090       -3.44970
C         -3.89770        1.40910       -4.17440
C         -5.16600        1.85710       -3.83240
S         -6.64850        1.36370       -4.65120
C         -6.10670        0.05220       -5.78280
C         -5.31540        2.75160       -2.77300
C         -4.22160        3.16830       -2.04990
C         -1.92940        0.82740       -0.55790
S         -3.57800        0.34860       -0.71940
C         -3.29000       -1.10490        0.22840
C         -1.97600       -1.17480        0.68330
N         -1.47270       -2.11760        1.56950
C         -0.12590       -2.48870        1.48440
C          0.60580       -2.75600        2.63940
C          1.94270       -3.09010        2.56570
C          2.58200       -3.13900        1.33390
S          4.31000       -3.46100        1.14730
C          4.74220       -4.33010        2.68440
C          1.85260       -2.89050        0.17490
C          0.51140       -2.58390        0.24620
C         -2.27620       -2.63110        2.59700
C         -3.22090       -1.83240        3.23570
C         -4.08450       -2.37140        4.16900
C         -4.00990       -3.71990        4.48870
S         -5.13010       -4.52120        5.59920
C         -5.68920       -3.16160        6.67080
C         -3.03810       -4.51510        3.88640
C         -2.17990       -3.97870        2.95390
C         -1.21170       -0.08610        0.19420
S          0.43710        0.40520        0.36140
C         -4.33780       -2.05010        0.46390
C         -5.67270       -1.82640        0.79330
C         -6.32730       -0.48960        0.62910
C         -6.80140       -0.30780       -0.81640
C         -6.30430       -3.01510        1.19060
C         -5.48010       -4.13030        1.04540
S         -3.92330       -3.75310        0.45010
C         -6.16610       -5.29430        1.43820
C         -7.45760       -4.94320        1.84260
C         -7.64430       -3.43930        1.77630
C         -7.81160       -3.01210        3.25390
C         -7.90920       -1.52130        3.54290
C         -8.79660       -3.00420        0.85550
C        -10.17000       -3.54300        1.23450
C         -8.16500       -6.02620        2.33060
C         -7.43580       -7.21400        2.27880
S         -5.82460       -6.95890        1.62360
C         -7.89040       -8.46780        2.71400
C         -7.21460       -9.64830        2.73450
S         -5.57210       -9.93050        2.20210
C         -5.67860      -11.61830        2.66500
C         -4.59580      -12.44590        2.50840
C         -4.51220      -13.79330        2.89480
N         -4.36140      -14.88830        3.20730
C         -3.41010      -11.93110        1.94540
N         -2.44270      -11.51990        1.48580
N         -6.89910      -11.92190        3.17490
C         -7.32540      -13.25570        3.54070
C         -7.47660      -14.17120        2.35000
C         -7.79960      -13.67290        1.09570
C         -7.94750      -14.53050        0.01950
C         -7.78260      -15.89330        0.18980
C         -7.47200      -16.39680        1.44190
C         -7.31780      -15.54070        2.51620
C         -7.81210      -10.87350        3.24070
O         -8.93680      -11.00190        3.67360
H          6.53330        5.47170       -3.58650
H          8.09700        6.91140        2.28500
H         11.51250        6.93240       -1.45480
H         12.63820        8.79220        1.20100
H         14.18680        6.86290        1.48530
H         12.72950        4.69960        1.35030
H         10.97570        4.75800        3.35440
H         11.33800        6.96800        4.69520
H         13.49800        8.22910        3.70220
H         13.88050        6.53410        4.09550
H         10.90360        8.83850        3.10970
H          6.20430        0.76380        0.76160
H          5.24000       -0.16840        2.80100
H          2.86400       -1.07950        5.41660
H          3.13970       -0.91290        3.66530
H          4.52740       -1.10200        4.79270
H          3.63500        3.67280        3.80110
H          4.61950        4.60810        1.71690
H          7.16170        2.50160       -2.40120
H          9.55560        2.41450       -2.77040
H         11.68550        3.30910       -3.33790
H         11.74900        1.59010       -2.81860
H         13.20770        2.60550       -2.76280
H         10.23690        3.59220        1.28620
H          7.79960        3.65730        1.66680
H         -1.01910        4.15590       -5.07380
H         -1.76330        6.38310       -5.69450
H         -1.76140        9.95700       -6.65890
H         -2.62760        8.44410       -6.31980
H         -0.94200        8.39990       -6.92850
H          0.77070        8.06460       -2.68900
H          1.49310        5.83450       -2.04020
H          1.40340        3.91630       -5.78360
H          1.61830        2.22370       -7.50970
H          2.90690        0.53410       -8.59400
H          1.25920        0.74790       -9.27170
H          2.15270       -0.76200       -9.54900
H          0.72120       -0.81770       -4.64110
H          0.49730        0.89440       -2.90110
H         -2.81100        5.17640       -2.78150
H         -2.58110        7.48040       -2.08620
H         -1.58150        9.58680       -1.99400
H         -3.02230        9.48230       -0.92880
H         -1.79510       10.73830       -0.65720
H         -0.13030        6.24950        1.19200
H         -0.42590        3.91920        0.54560
H         -1.81370        1.47340       -3.71210
H         -3.74660        0.73040       -4.99820
H         -5.60450       -0.73140       -5.22330
H         -5.46220        0.46330       -6.55430
H         -7.01410       -0.33830       -6.23300
H         -6.30470        3.09750       -2.51570
H         -4.34690        3.83840       -1.21280
H          0.12530       -2.69160        3.60430
H          2.47870       -3.29900        3.47800
H          5.72740       -4.75350        2.51610
H          4.77980       -3.63650        3.52000
H          4.02350       -5.12320        2.86550
H          2.34840       -2.94790       -0.78160
H         -0.05330       -2.42440       -0.65990
H         -3.29040       -0.78330        2.98910
H         -4.81590       -1.73130        4.63590
H         -6.39980       -2.52870        6.14760
H         -4.82860       -2.59170        7.00660
H         -6.17570       -3.63540        7.51750
H         -2.98030       -5.56180        4.14120
H         -1.44740       -4.60590        2.46940
H         -7.18600       -0.40550        1.28960
H         -5.62400        0.30690        0.87870
H         -5.96870       -0.38730       -1.51000
H         -7.25390        0.67240       -0.94050
H         -7.53510       -1.06690       -1.07530
H         -6.95990       -3.42420        3.79910
H         -8.70660       -3.50660        3.63440
H         -8.70890       -1.05530        2.97280
H         -8.13290       -1.37570        4.59890
H         -6.97050       -1.01980        3.32370
H         -8.55390       -3.34090       -0.15570
H         -8.83500       -1.91510        0.83970
H        -10.45240       -3.23990        2.23910
H        -10.19290       -4.62690        1.17270
H        -10.91310       -3.15050        0.54370
H         -9.16290       -6.00040        2.72910
H         -8.90320       -8.51170        3.09790
H         -8.30040      -13.12120        4.02680
H         -6.62720      -13.68380        4.26520
H         -7.94350      -12.61080        0.95090
H         -8.19300      -14.12980       -0.95290
H         -7.89570      -16.56120       -0.65100
H         -7.34210      -17.45910        1.58170
H         -7.06160      -15.93350        3.48830
