
  xtb     02092212283D
 energy: -318.798242450942 gnorm: 0.000924778489 xtb: 6.4.1 (unknown)
189208  0     0  0            999 V2000
   -2.5164   -0.6643   -6.6131 C   0  0  0  0  0  0  0  0  0  0  0  0
   -2.4510    0.3191   -7.5750 C   0  0  0  0  0  0  0  0  0  0  0  0
   -2.4197    1.7646   -7.3471 C   0  0  0  0  0  0  0  0  0  0  0  0
   -2.3797    2.3567   -6.2789 O   0  0  0  0  0  0  0  0  0  0  0  0
   -2.4892    2.3964   -8.6763 C   0  0  0  0  0  0  0  0  0  0  0  0
   -2.4656    3.7588   -8.9618 C   0  0  0  0  0  0  0  0  0  0  0  0
   -2.5287    4.0501  -10.3035 C   0  0  0  0  0  0  0  0  0  0  0  0
   -2.6127    3.0588  -11.2890 C   0  0  0  0  0  0  0  0  0  0  0  0
   -2.6381    1.7103  -11.0197 C   0  0  0  0  0  0  0  0  0  0  0  0
   -2.5717    1.3923   -9.6613 C   0  0  0  0  0  0  0  0  0  0  0  0
   -2.5343    0.0889   -8.9979 C   0  0  0  0  0  0  0  0  0  0  0  0
   -2.5506   -1.1251   -9.6423 C   0  0  0  0  0  0  0  0  0  0  0  0
   -2.7241   -1.2945  -11.0304 C   0  0  0  0  0  0  0  0  0  0  0  0
   -2.8834   -1.5272  -12.1443 N   0  0  0  0  0  0  0  0  0  0  0  0
   -2.3654   -2.3838   -9.0407 C   0  0  0  0  0  0  0  0  0  0  0  0
   -2.1848   -3.4539   -8.6584 N   0  0  0  0  0  0  0  0  0  0  0  0
   -2.6199    4.0644  -12.4130 C   0  0  0  0  0  0  0  0  0  0  0  0
   -1.3074    4.2618  -13.2110 C   0  0  0  0  0  0  0  0  0  0  0  0
   -0.1792    3.8910  -12.2806 C   0  0  0  0  0  0  0  0  0  0  0  0
   -0.0991    4.8296  -11.3470 C   0  0  0  0  0  0  0  0  0  0  0  0
   -1.1718    5.8523  -11.6294 C   0  0  0  0  0  0  0  0  0  0  0  0
   -1.2031    5.7946  -13.1650 C   0  0  0  0  0  0  0  0  0  0  0  0
   -2.5258    5.1696  -11.3141 C   0  0  0  0  0  0  0  0  0  0  0  0
   -2.4198   -0.5790   -5.2254 C   0  0  0  0  0  0  0  0  0  0  0  0
   -2.5569   -1.6915   -4.3577 C   0  0  0  0  0  0  0  0  0  0  0  0
   -2.9204   -2.9639   -4.7203 N   0  0  0  0  0  0  0  0  0  0  0  0
   -2.3574   -4.0158   -3.9716 C   0  0  0  0  0  0  0  0  0  0  0  0
   -3.1439   -5.0450   -3.4595 C   0  0  0  0  0  0  0  0  0  0  0  0
   -2.5865   -5.9769   -2.6110 C   0  0  0  0  0  0  0  0  0  0  0  0
   -1.2413   -5.8955   -2.2595 C   0  0  0  0  0  0  0  0  0  0  0  0
   -0.6302   -7.0427   -1.0666 S   0  0  0  0  0  0  0  0  0  0  0  0
    0.7750   -6.1366   -0.3496 C   0  0  0  0  0  0  0  0  0  0  0  0
   -0.4362   -4.9240   -2.8400 C   0  0  0  0  0  0  0  0  0  0  0  0
   -0.9932   -3.9940   -3.6917 C   0  0  0  0  0  0  0  0  0  0  0  0
   -3.8825   -3.2424   -5.7011 C   0  0  0  0  0  0  0  0  0  0  0  0
   -3.7635   -4.3862   -6.4850 C   0  0  0  0  0  0  0  0  0  0  0  0
   -4.6828   -4.6523   -7.4808 C   0  0  0  0  0  0  0  0  0  0  0  0
   -5.7239   -3.7672   -7.7204 C   0  0  0  0  0  0  0  0  0  0  0  0
   -6.9037   -3.9763   -9.0154 S   0  0  0  0  0  0  0  0  0  0  0  0
   -6.0821   -5.1432  -10.1376 C   0  0  0  0  0  0  0  0  0  0  0  0
   -5.8732   -2.6454   -6.9049 C   0  0  0  0  0  0  0  0  0  0  0  0
   -4.9704   -2.3895   -5.8992 C   0  0  0  0  0  0  0  0  0  0  0  0
   -2.2222   -1.3428   -3.0359 C   0  0  0  0  0  0  0  0  0  0  0  0
   -2.1827   -2.2073   -1.5269 S   0  0  0  0  0  0  0  0  0  0  0  0
   -1.6484   -0.7710   -0.7099 C   0  0  0  0  0  0  0  0  0  0  0  0
   -1.4660    0.3016   -1.5564 C   0  0  0  0  0  0  0  0  0  0  0  0
   -0.8548    1.4770   -1.1323 N   0  0  0  0  0  0  0  0  0  0  0  0
   -1.2177    2.6805   -1.7255 C   0  0  0  0  0  0  0  0  0  0  0  0
   -0.2890    3.6982   -1.9455 C   0  0  0  0  0  0  0  0  0  0  0  0
   -0.6517    4.8188   -2.6613 C   0  0  0  0  0  0  0  0  0  0  0  0
   -1.9401    4.9424   -3.1694 C   0  0  0  0  0  0  0  0  0  0  0  0
   -2.3176    6.3293   -4.1996 S   0  0  0  0  0  0  0  0  0  0  0  0
   -3.4327    5.5558   -5.4135 C   0  0  0  0  0  0  0  0  0  0  0  0
   -2.8926    3.9777   -2.8722 C   0  0  0  0  0  0  0  0  0  0  0  0
   -2.5352    2.8591   -2.1512 C   0  0  0  0  0  0  0  0  0  0  0  0
    0.3298    1.3215   -0.3827 C   0  0  0  0  0  0  0  0  0  0  0  0
    0.5596    2.0611    0.7729 C   0  0  0  0  0  0  0  0  0  0  0  0
    1.6767    1.8159    1.5480 C   0  0  0  0  0  0  0  0  0  0  0  0
    2.5881    0.8368    1.1743 C   0  0  0  0  0  0  0  0  0  0  0  0
    4.0321    0.4462    2.1234 S   0  0  0  0  0  0  0  0  0  0  0  0
    3.4287    0.6176    3.8251 C   0  0  0  0  0  0  0  0  0  0  0  0
    2.3928    0.1388   -0.0132 C   0  0  0  0  0  0  0  0  0  0  0  0
    1.2736    0.3744   -0.7800 C   0  0  0  0  0  0  0  0  0  0  0  0
   -1.8335   -0.0174   -2.8856 C   0  0  0  0  0  0  0  0  0  0  0  0
   -1.9466    0.8831   -4.3519 S   0  0  0  0  0  0  0  0  0  0  0  0
   -1.3654   -0.7295    0.7181 C   0  0  0  0  0  0  0  0  0  0  0  0
   -2.0747    0.1457    1.5383 C   0  0  0  0  0  0  0  0  0  0  0  0
   -3.0995    0.7635    0.9118 O   0  0  0  0  0  0  0  0  0  0  0  0
   -3.8351    1.8559    1.4459 C   0  0  0  0  0  0  0  0  0  0  0  0
   -3.0139    3.1294    1.5899 C   0  0  0  0  0  0  0  0  0  0  0  0
   -1.7170    0.2883    2.9157 C   0  0  0  0  0  0  0  0  0  0  0  0
   -2.5068    1.0694    3.7148 O   0  0  0  0  0  0  0  0  0  0  0  0
   -3.0426    0.4898    4.8991 C   0  0  0  0  0  0  0  0  0  0  0  0
   -3.3028    1.5993    5.9043 C   0  0  0  0  0  0  0  0  0  0  0  0
   -0.5748   -0.3116    3.4232 C   0  0  0  0  0  0  0  0  0  0  0  0
    0.1327   -1.2159    2.6052 C   0  0  0  0  0  0  0  0  0  0  0  0
   -0.3053   -1.4721    1.2628 C   0  0  0  0  0  0  0  0  0  0  0  0
    0.4752   -2.3544    0.6378 N   0  0  0  0  0  0  0  0  0  0  0  0
    1.6647   -2.7797    1.6405 S   0  0  0  0  0  0  0  0  0  0  0  0
    1.2421   -1.8870    2.9066 N   0  0  0  0  0  0  0  0  0  0  0  0
   -0.0419   -0.0047    4.7536 C   0  0  0  0  0  0  0  0  0  0  0  0
    0.1935    1.2949    5.1539 C   0  0  0  0  0  0  0  0  0  0  0  0
   -0.1327    2.3239    4.3534 F   0  0  0  0  0  0  0  0  0  0  0  0
    0.8409    1.5883    6.3622 C   0  0  0  0  0  0  0  0  0  0  0  0
    1.0636    2.8785    6.6658 F   0  0  0  0  0  0  0  0  0  0  0  0
    1.3326    0.6004    7.1910 C   0  0  0  0  0  0  0  0  0  0  0  0
    1.0711   -0.7509    6.8237 C   0  0  0  0  0  0  0  0  0  0  0  0
    1.4695   -1.7473    7.6289 N   0  0  0  0  0  0  0  0  0  0  0  0
    1.2552   -2.9880    7.2722 C   0  0  0  0  0  0  0  0  0  0  0  0
    1.8357   -4.0366    8.1703 C   0  0  0  0  0  0  0  0  0  0  0  0
    3.2215   -4.4375    7.6561 C   0  0  0  0  0  0  0  0  0  0  0  0
    0.5226   -3.2832    6.0858 C   0  0  0  0  0  0  0  0  0  0  0  0
    0.0765   -2.3195    5.3224 N   0  0  0  0  0  0  0  0  0  0  0  0
    0.3701   -1.0455    5.6295 C   0  0  0  0  0  0  0  0  0  0  0  0
    0.1262   -4.6731    5.6897 C   0  0  0  0  0  0  0  0  0  0  0  0
   -1.1912   -5.0632    6.3654 C   0  0  0  0  0  0  0  0  0  0  0  0
    2.0366    0.9001    8.4162 C   0  0  0  0  0  0  0  0  0  0  0  0
    3.1524    0.2429    8.8028 C   0  0  0  0  0  0  0  0  0  0  0  0
    4.0050   -0.5628    7.8813 C   0  0  0  0  0  0  0  0  0  0  0  0
    3.8594   -0.7242    6.6886 O   0  0  0  0  0  0  0  0  0  0  0  0
    5.1543   -1.0038    8.6874 C   0  0  0  0  0  0  0  0  0  0  0  0
    6.2231   -1.7861    8.2526 C   0  0  0  0  0  0  0  0  0  0  0  0
    7.1803   -2.0111    9.2111 C   0  0  0  0  0  0  0  0  0  0  0  0
    7.0879   -1.4892   10.5097 C   0  0  0  0  0  0  0  0  0  0  0  0
    6.0428   -0.7147   10.9515 C   0  0  0  0  0  0  0  0  0  0  0  0
    5.0532   -0.4753    9.9915 C   0  0  0  0  0  0  0  0  0  0  0  0
    3.8185    0.2926   10.0953 C   0  0  0  0  0  0  0  0  0  0  0  0
    3.3307    0.8851   11.2289 C   0  0  0  0  0  0  0  0  0  0  0  0
    2.0890    1.5500   11.3216 C   0  0  0  0  0  0  0  0  0  0  0  0
    1.0889    2.0901   11.4843 N   0  0  0  0  0  0  0  0  0  0  0  0
    3.9893    0.8923   12.4769 C   0  0  0  0  0  0  0  0  0  0  0  0
    4.4676    0.9373   13.5195 N   0  0  0  0  0  0  0  0  0  0  0  0
    8.4078   -2.0862   10.9282 C   0  0  0  0  0  0  0  0  0  0  0  0
    9.6325   -1.1408   11.0036 C   0  0  0  0  0  0  0  0  0  0  0  0
    9.3674   -0.0157   10.0339 C   0  0  0  0  0  0  0  0  0  0  0  0
    9.4534   -0.5104    8.8063 C   0  0  0  0  0  0  0  0  0  0  0  0
    9.7787   -1.9792    8.9236 C   0  0  0  0  0  0  0  0  0  0  0  0
   10.6460   -1.9638   10.1924 C   0  0  0  0  0  0  0  0  0  0  0  0
    8.5094   -2.6687    9.4831 C   0  0  0  0  0  0  0  0  0  0  0  0
   -2.6584   -1.6722   -6.9819 H   0  0  0  0  0  0  0  0  0  0  0  0
   -2.3922    4.4915   -8.1737 H   0  0  0  0  0  0  0  0  0  0  0  0
   -2.7003    0.9601  -11.7902 H   0  0  0  0  0  0  0  0  0  0  0  0
   -3.4986    4.0569  -13.0550 H   0  0  0  0  0  0  0  0  0  0  0  0
   -1.2982    3.7878  -14.1889 H   0  0  0  0  0  0  0  0  0  0  0  0
    0.3892    2.9829  -12.3610 H   0  0  0  0  0  0  0  0  0  0  0  0
    0.5492    4.8623  -10.4910 H   0  0  0  0  0  0  0  0  0  0  0  0
   -1.0389    6.8271  -11.1675 H   0  0  0  0  0  0  0  0  0  0  0  0
   -2.0632    6.3013  -13.6009 H   0  0  0  0  0  0  0  0  0  0  0  0
   -0.2868    6.1685  -13.6194 H   0  0  0  0  0  0  0  0  0  0  0  0
   -3.3433    5.8842  -11.2392 H   0  0  0  0  0  0  0  0  0  0  0  0
   -4.1956   -5.0852   -3.6997 H   0  0  0  0  0  0  0  0  0  0  0  0
   -3.1954   -6.7581   -2.1830 H   0  0  0  0  0  0  0  0  0  0  0  0
    1.6423   -6.2052   -1.0000 H   0  0  0  0  0  0  0  0  0  0  0  0
    0.4885   -5.1019   -0.1843 H   0  0  0  0  0  0  0  0  0  0  0  0
    0.9908   -6.6237    0.5963 H   0  0  0  0  0  0  0  0  0  0  0  0
    0.6194   -4.8780   -2.6284 H   0  0  0  0  0  0  0  0  0  0  0  0
   -0.3727   -3.2272   -4.1317 H   0  0  0  0  0  0  0  0  0  0  0  0
   -2.9352   -5.0589   -6.3276 H   0  0  0  0  0  0  0  0  0  0  0  0
   -4.5579   -5.5402   -8.0775 H   0  0  0  0  0  0  0  0  0  0  0  0
   -5.0664   -4.8078  -10.3255 H   0  0  0  0  0  0  0  0  0  0  0  0
   -6.0969   -6.1453   -9.7188 H   0  0  0  0  0  0  0  0  0  0  0  0
   -6.6575   -5.1218  -11.0580 H   0  0  0  0  0  0  0  0  0  0  0  0
   -6.7053   -1.9796   -7.0747 H   0  0  0  0  0  0  0  0  0  0  0  0
   -5.0882   -1.5170   -5.2739 H   0  0  0  0  0  0  0  0  0  0  0  0
    0.7247    3.5845   -1.5918 H   0  0  0  0  0  0  0  0  0  0  0  0
    0.0726    5.5922   -2.8655 H   0  0  0  0  0  0  0  0  0  0  0  0
   -4.4495    5.5312   -5.0321 H   0  0  0  0  0  0  0  0  0  0  0  0
   -3.3949    6.1809   -6.3003 H   0  0  0  0  0  0  0  0  0  0  0  0
   -3.0732    4.5535   -5.6309 H   0  0  0  0  0  0  0  0  0  0  0  0
   -3.9108    4.0881   -3.2093 H   0  0  0  0  0  0  0  0  0  0  0  0
   -3.2738    2.1069   -1.9174 H   0  0  0  0  0  0  0  0  0  0  0  0
   -0.1423    2.8232    1.0724 H   0  0  0  0  0  0  0  0  0  0  0  0
    1.8285    2.3928    2.4461 H   0  0  0  0  0  0  0  0  0  0  0  0
    3.2595    1.6620    4.0700 H   0  0  0  0  0  0  0  0  0  0  0  0
    4.1986    0.2089    4.4706 H   0  0  0  0  0  0  0  0  0  0  0  0
    2.5228    0.0291    3.9324 H   0  0  0  0  0  0  0  0  0  0  0  0
    3.1227   -0.5947   -0.3203 H   0  0  0  0  0  0  0  0  0  0  0  0
    1.1148   -0.1882   -1.6878 H   0  0  0  0  0  0  0  0  0  0  0  0
   -4.3023    1.5888    2.3969 H   0  0  0  0  0  0  0  0  0  0  0  0
   -4.6214    2.0031    0.6988 H   0  0  0  0  0  0  0  0  0  0  0  0
   -2.2491    3.0069    2.3515 H   0  0  0  0  0  0  0  0  0  0  0  0
   -2.5489    3.3837    0.6398 H   0  0  0  0  0  0  0  0  0  0  0  0
   -3.6699    3.9433    1.8861 H   0  0  0  0  0  0  0  0  0  0  0  0
   -3.9854   -0.0159    4.6395 H   0  0  0  0  0  0  0  0  0  0  0  0
   -2.3593   -0.2585    5.3147 H   0  0  0  0  0  0  0  0  0  0  0  0
   -2.3727    2.0894    6.1785 H   0  0  0  0  0  0  0  0  0  0  0  0
   -3.9661    2.3430    5.4713 H   0  0  0  0  0  0  0  0  0  0  0  0
   -3.7626    1.1860    6.7973 H   0  0  0  0  0  0  0  0  0  0  0  0
    1.1890   -4.9121    8.2227 H   0  0  0  0  0  0  0  0  0  0  0  0
    1.9360   -3.6088    9.1689 H   0  0  0  0  0  0  0  0  0  0  0  0
    3.1559   -4.8782    6.6638 H   0  0  0  0  0  0  0  0  0  0  0  0
    3.8615   -3.5609    7.5975 H   0  0  0  0  0  0  0  0  0  0  0  0
    3.6768   -5.1591    8.3299 H   0  0  0  0  0  0  0  0  0  0  0  0
   -0.0128   -4.6856    4.6082 H   0  0  0  0  0  0  0  0  0  0  0  0
    0.9062   -5.3861    5.9547 H   0  0  0  0  0  0  0  0  0  0  0  0
   -1.0993   -5.0332    7.4492 H   0  0  0  0  0  0  0  0  0  0  0  0
   -1.9782   -4.3745    6.0687 H   0  0  0  0  0  0  0  0  0  0  0  0
   -1.4793   -6.0686    6.0694 H   0  0  0  0  0  0  0  0  0  0  0  0
    1.6056    1.6762    9.0350 H   0  0  0  0  0  0  0  0  0  0  0  0
    6.2606   -2.1606    7.2412 H   0  0  0  0  0  0  0  0  0  0  0  0
    5.9911   -0.3145   11.9502 H   0  0  0  0  0  0  0  0  0  0  0  0
    8.3726   -2.7864   11.7603 H   0  0  0  0  0  0  0  0  0  0  0  0
    9.9154   -0.8492   12.0114 H   0  0  0  0  0  0  0  0  0  0  0  0
    9.0980    0.9805   10.3320 H   0  0  0  0  0  0  0  0  0  0  0  0
    9.2696   -0.0103    7.8735 H   0  0  0  0  0  0  0  0  0  0  0  0
   10.1952   -2.4509    8.0376 H   0  0  0  0  0  0  0  0  0  0  0  0
   11.5917   -1.4434   10.0490 H   0  0  0  0  0  0  0  0  0  0  0  0
   10.8302   -2.9548   10.6048 H   0  0  0  0  0  0  0  0  0  0  0  0
    8.5402   -3.7506    9.3698 H   0  0  0  0  0  0  0  0  0  0  0  0
  1  2  2  0  0  0  0
  2  3  1  0  0  0  0
  3  4  2  0  0  0  0
  3  5  1  0  0  0  0
  5  6  2  0  0  0  0
  6  7  1  0  0  0  0
  7  8  2  0  0  0  0
  8  9  1  0  0  0  0
  9 10  2  0  0  0  0
 10 11  1  0  0  0  0
 11 12  2  0  0  0  0
 12 13  1  0  0  0  0
 13 14  3  0  0  0  0
 12 15  1  0  0  0  0
 15 16  3  0  0  0  0
  8 17  1  0  0  0  0
 17 18  1  0  0  0  0
 18 19  1  0  0  0  0
 19 20  2  0  0  0  0
 20 21  1  0  0  0  0
 21 22  1  0  0  0  0
 21 23  1  0  0  0  0
  1 24  1  0  0  0  0
 24 25  2  0  0  0  0
 25 26  1  0  0  0  0
 26 27  1  0  0  0  0
 27 28  2  0  0  0  0
 28 29  1  0  0  0  0
 29 30  2  0  0  0  0
 30 31  1  0  0  0  0
 31 32  1  0  0  0  0
 30 33  1  0  0  0  0
 33 34  2  0  0  0  0
 26 35  1  0  0  0  0
 35 36  2  0  0  0  0
 36 37  1  0  0  0  0
 37 38  2  0  0  0  0
 38 39  1  0  0  0  0
 39 40  1  0  0  0  0
 38 41  1  0  0  0  0
 41 42  2  0  0  0  0
 25 43  1  0  0  0  0
 43 44  1  0  0  0  0
 44 45  1  0  0  0  0
 45 46  2  0  0  0  0
 46 47  1  0  0  0  0
 47 48  1  0  0  0  0
 48 49  2  0  0  0  0
 49 50  1  0  0  0  0
 50 51  2  0  0  0  0
 51 52  1  0  0  0  0
 52 53  1  0  0  0  0
 51 54  1  0  0  0  0
 54 55  2  0  0  0  0
 47 56  1  0  0  0  0
 56 57  2  0  0  0  0
 57 58  1  0  0  0  0
 58 59  2  0  0  0  0
 59 60  1  0  0  0  0
 60 61  1  0  0  0  0
 59 62  1  0  0  0  0
 62 63  2  0  0  0  0
 46 64  1  0  0  0  0
 64 65  1  0  0  0  0
 45 66  1  0  0  0  0
 66 67  2  0  0  0  0
 67 68  1  0  0  0  0
 68 69  1  0  0  0  0
 69 70  1  0  0  0  0
 67 71  1  0  0  0  0
 71 72  1  0  0  0  0
 72 73  1  0  0  0  0
 73 74  1  0  0  0  0
 71 75  2  0  0  0  0
 75 76  1  0  0  0  0
 76 77  1  0  0  0  0
 77 78  2  0  0  0  0
 78 79  1  0  0  0  0
 79 80  1  0  0  0  0
 75 81  1  0  0  0  0
 81 82  2  0  0  0  0
 82 83  1  0  0  0  0
 82 84  1  0  0  0  0
 84 85  1  0  0  0  0
 84 86  2  0  0  0  0
 86 87  1  0  0  0  0
 87 88  2  0  0  0  0
 88 89  1  0  0  0  0
 89 90  1  0  0  0  0
 90 91  1  0  0  0  0
 89 92  2  0  0  0  0
 92 93  1  0  0  0  0
 93 94  2  0  0  0  0
 92 95  1  0  0  0  0
 95 96  1  0  0  0  0
 86 97  1  0  0  0  0
 97 98  2  0  0  0  0
 98 99  1  0  0  0  0
 99100  2  0  0  0  0
 99101  1  0  0  0  0
101102  2  0  0  0  0
102103  1  0  0  0  0
103104  2  0  0  0  0
104105  1  0  0  0  0
105106  2  0  0  0  0
106107  1  0  0  0  0
107108  2  0  0  0  0
108109  1  0  0  0  0
109110  3  0  0  0  0
108111  1  0  0  0  0
111112  3  0  0  0  0
104113  1  0  0  0  0
113114  1  0  0  0  0
114115  1  0  0  0  0
115116  2  0  0  0  0
116117  1  0  0  0  0
117118  1  0  0  0  0
117119  1  0  0  0  0
 11  2  1  0  0  0  0
 23 17  1  0  0  0  0
 65 24  1  0  0  0  0
 77 66  1  0  0  0  0
 94 81  1  0  0  0  0
107 98  1  0  0  0  0
119113  1  0  0  0  0
 10  5  1  0  0  0  0
 22 18  1  0  0  0  0
 34 27  1  0  0  0  0
 42 35  1  0  0  0  0
 64 43  2  0  0  0  0
 80 76  2  0  0  0  0
 94 87  1  0  0  0  0
106101  1  0  0  0  0
118114  1  0  0  0  0
 23  7  1  0  0  0  0
 55 48  1  0  0  0  0
 63 56  1  0  0  0  0
119103  1  0  0  0  0
  1120  1  0  0  0  0
  6121  1  0  0  0  0
  9122  1  0  0  0  0
 17123  1  0  0  0  0
 18124  1  0  0  0  0
 19125  1  0  0  0  0
 20126  1  0  0  0  0
 21127  1  0  0  0  0
 22128  1  0  0  0  0
 22129  1  0  0  0  0
 23130  1  0  0  0  0
 28131  1  0  0  0  0
 29132  1  0  0  0  0
 32133  1  0  0  0  0
 32134  1  0  0  0  0
 32135  1  0  0  0  0
 33136  1  0  0  0  0
 34137  1  0  0  0  0
 36138  1  0  0  0  0
 37139  1  0  0  0  0
 40140  1  0  0  0  0
 40141  1  0  0  0  0
 40142  1  0  0  0  0
 41143  1  0  0  0  0
 42144  1  0  0  0  0
 49145  1  0  0  0  0
 50146  1  0  0  0  0
 53147  1  0  0  0  0
 53148  1  0  0  0  0
 53149  1  0  0  0  0
 54150  1  0  0  0  0
 55151  1  0  0  0  0
 57152  1  0  0  0  0
 58153  1  0  0  0  0
 61154  1  0  0  0  0
 61155  1  0  0  0  0
 61156  1  0  0  0  0
 62157  1  0  0  0  0
 63158  1  0  0  0  0
 69159  1  0  0  0  0
 69160  1  0  0  0  0
 70161  1  0  0  0  0
 70162  1  0  0  0  0
 70163  1  0  0  0  0
 73164  1  0  0  0  0
 73165  1  0  0  0  0
 74166  1  0  0  0  0
 74167  1  0  0  0  0
 74168  1  0  0  0  0
 90169  1  0  0  0  0
 90170  1  0  0  0  0
 91171  1  0  0  0  0
 91172  1  0  0  0  0
 91173  1  0  0  0  0
 95174  1  0  0  0  0
 95175  1  0  0  0  0
 96176  1  0  0  0  0
 96177  1  0  0  0  0
 96178  1  0  0  0  0
 97179  1  0  0  0  0
102180  1  0  0  0  0
105181  1  0  0  0  0
113182  1  0  0  0  0
114183  1  0  0  0  0
115184  1  0  0  0  0
116185  1  0  0  0  0
117186  1  0  0  0  0
118187  1  0  0  0  0
118188  1  0  0  0  0
119189  1  0  0  0  0
M  END
