175

C         -2.24500        2.67200       -5.04560
C         -3.53250        3.15380       -4.97800
C         -4.50740        2.92510       -3.91020
O         -4.44880        2.11240       -2.99970
C         -5.60680        3.87930       -4.14210
C         -6.74170        4.06750       -3.35630
C         -7.58370        5.05200       -3.81550
C         -7.32000        5.79500       -4.97290
C         -6.20840        5.61380       -5.76240
C         -5.33700        4.61930       -5.31060
C         -4.07990        4.13900       -5.88170
C         -3.54080        4.55770       -7.07390
C         -2.43270        3.97780       -7.71860
N         -1.56530        3.55290       -8.34320
C         -4.03770        5.61790       -7.85730
N         -4.34710        6.48600       -8.54350
C         -8.57500        6.61930       -4.82640
C         -8.39850        8.05110       -4.27750
C         -9.78170        8.42690       -3.79700
C        -10.03400        7.72150       -2.70190
C         -8.82540        6.85720       -2.42360
C         -7.71450        7.78630       -2.92990
C         -8.87030        5.78860       -3.53640
C         -1.53320        1.85370       -4.16850
C         -0.14040        1.60600       -4.27020
N          0.72510        2.22860       -5.13050
C          1.86470        1.52900       -5.56750
C          1.75750        0.19760       -5.97070
C          2.87270       -0.48800       -6.39330
C          4.11830        0.13850       -6.42780
S          5.46980       -0.84400       -6.98430
C          6.90880        0.25030       -6.82330
C          4.22420        1.46860       -6.04030
C          3.10540        2.15580       -5.61320
C          0.56050        3.56900       -5.52240
C          0.08410        4.52020       -4.61720
C         -0.17250        5.80410       -5.03810
C          0.06480        6.17460       -6.36230
S         -0.38490        7.81530       -6.82750
C         -0.52730        7.70640       -8.63400
C          0.62940        5.25670       -7.23690
C          0.86530        3.95990       -6.82260
C          0.26970        0.64790       -3.32350
S          1.80640       -0.01410       -2.86440
C          1.04290       -0.91950       -1.56970
C         -0.32010       -0.66800       -1.46750
N         -1.17230       -1.10850       -0.47830
C         -2.52360       -1.26760       -0.84470
C         -2.84380       -2.00350       -1.98340
C         -4.14610       -2.04740       -2.43280
C         -5.13860       -1.35300       -1.75150
S         -6.77170       -1.33340       -2.42990
C         -7.23410        0.39810       -2.11430
C         -4.83380       -0.68300       -0.57330
C         -3.53200       -0.64090       -0.12000
C         -0.76910       -1.34640        0.83490
C          0.24850       -0.60780        1.43590
C          0.70500       -0.93100        2.69850
C          0.14540       -1.99680        3.39230
S          0.68270       -2.55140        4.97640
C          2.21180       -1.63040        5.27810
C         -0.92470       -2.68850        2.82540
C         -1.38120       -2.36450        1.56910
C         -0.75160        0.20950       -2.49300
S         -2.26830        0.95870       -2.83760
C          1.80180       -1.76750       -0.69410
C          1.28630       -2.99410       -0.21400
N          0.22830       -3.70730       -0.62180
N          0.23700       -4.76570        0.13700
C         -0.71870       -5.82310       -0.03830
C         -1.46750       -6.12300        1.25340
N          1.19250       -4.83710        1.02000
C          1.90500       -3.72110        0.84280
C          3.08040       -3.26370        1.48870
C          3.64360       -2.14190        0.88240
C          3.03840       -1.43260       -0.16120
F          3.65660       -0.31120       -0.57450
F          4.79300       -1.63120        1.36520
C          3.58700       -3.85570        2.68590
S          5.12590       -3.38310        3.35590
C          4.88720       -4.29540        4.82110
C          3.67910       -4.99410        4.75430
C          3.02370       -5.92930        5.58500
C          1.84210       -6.34030        5.04380
C          0.90210       -7.29380        5.63480
O          1.06970       -7.87120        6.68080
O         -0.17260       -7.45310        4.85070
C         -1.16790       -8.36510        5.31430
C         -2.15280       -8.61500        4.18790
S          1.48750       -5.64430        3.48380
C          2.96730       -4.75400        3.54460
C          5.88440       -4.27360        5.81510
C          5.67920       -4.40670        7.16280
C          4.39430       -4.13090        7.84450
O          3.33610       -3.82160        7.33170
C          4.69060       -4.15490        9.28660
C          3.78700       -3.94240       10.32490
C          4.35060       -4.00190       11.57650
C          5.71500       -4.24810       11.78130
C          6.61690       -4.46060       10.76540
C          6.06370       -4.40690        9.48320
C          6.69550       -4.58270        8.17790
C          8.00180       -4.93680        7.95670
C          8.55580       -5.20100        6.68650
N          9.07030       -5.45350        5.69120
C          8.96480       -5.11350        8.97080
N          9.80060       -5.26530        9.74360
C          5.58930       -4.14740       13.28070
C          6.07120       -2.84080       13.95880
C          5.94620       -1.74890       12.92550
C          4.65410       -1.51990       12.73250
C          3.88190       -2.45320       13.63190
C          4.84250       -2.53170       14.82920
C          4.06860       -3.87750       13.05260
H         -1.66600        3.01600       -5.89270
H         -6.91220        3.47680       -2.46970
H         -6.01970        6.19010       -6.65270
H         -9.27920        6.56480       -5.65430
H         -7.91180        8.74300       -4.95920
H        -10.43430        9.10340       -4.31690
H        -10.93940        7.69090       -2.12440
H         -8.72810        6.46220       -1.41580
H         -7.62760        8.68950       -2.32840
H         -6.73980        7.30910       -3.01310
H         -9.77130        5.17850       -3.50530
H          0.79350       -0.28860       -5.95770
H          2.79470       -1.51710       -6.70820
H          7.76290       -0.34570       -7.12950
H          7.02570        0.55730       -5.78820
H          6.80300        1.10650       -7.48300
H          5.17200        1.98100       -6.05820
H          3.19390        3.18670       -5.30440
H         -0.11140        4.23560       -3.59410
H         -0.56650        6.53670       -4.35060
H         -1.05230        8.60520       -8.94180
H         -1.11060        6.82950       -8.89830
H          0.45770        7.67980       -9.09110
H          0.85950        5.52750       -8.25380
H          1.26030        3.23840       -7.52040
H         -2.05600       -2.51200       -2.51920
H         -4.40180       -2.59410       -3.32730
H         -8.00520        0.64520       -2.83770
H         -6.35300        1.01430       -2.26960
H         -7.62540        0.51030       -1.10690
H         -5.60590       -0.17350       -0.01930
H         -3.28350       -0.09800        0.77980
H          0.68660        0.22730        0.91000
H          1.49450       -0.33940        3.13380
H          2.67990       -2.13860        6.11680
H          1.98780       -0.59970        5.53740
H          2.85480       -1.68470        4.40500
H         -1.37490       -3.49410        3.38450
H         -2.20070       -2.90880        1.12360
H         -0.17980       -6.71760       -0.36610
H         -1.39610       -5.49760       -0.82960
H         -2.05290       -5.26290        1.56480
H         -2.13810       -6.96240        1.09330
H         -0.76520       -6.37300        2.04360
H          3.39480       -6.29450        6.52360
H         -1.66530       -7.92720        6.18710
H         -0.67670       -9.29150        5.63260
H         -2.62270       -7.68220        3.88880
H         -2.91810       -9.30920        4.52210
H         -1.63920       -9.03830        3.32890
H          6.89090       -4.08900        5.45920
H          2.74380       -3.75720       10.12120
H          7.66390       -4.64590       10.93920
H          5.87140       -5.03480       13.84360
H          7.03270       -2.92020       14.45900
H          6.78300       -1.30920       12.41500
H          4.19540       -0.85100       12.02790
H          2.84980       -2.17980       13.83500
H          4.59670       -3.32720       15.53120
H          4.93060       -1.58560       15.36110
H          3.35710       -4.59040       13.46470
