216

C          7.80840       -4.45450        0.87720
C          8.43010       -4.28260        2.08420
C          8.50510       -3.00350        2.82910
O          8.17940       -1.89640        2.45100
C          9.21800       -3.31210        4.08510
C          9.45210       -2.44460        5.14910
C         10.14160       -3.01200        6.19360
C         10.57730       -4.34300        6.17610
C         10.36080       -5.20690        5.12920
C          9.65560       -4.65000        4.05740
C          9.22670       -5.25590        2.79670
C          9.51610       -6.53840        2.40020
C          9.09780       -7.14840        1.20260
N          8.81090       -7.74850        0.26530
C         10.31060       -7.44350        3.13320
N         10.95320       -8.23460        3.66350
C         11.20200       -4.24120        7.54590
C         12.73750       -4.09610        7.59760
C         13.00190       -3.54680        8.98080
C         12.58650       -2.28670        9.00080
C         12.03480       -1.96310        7.63110
C         12.95810       -2.82770        6.76320
C         10.71320       -2.75740        7.56710
C          6.82550       -3.59570        0.32800
C          6.65280       -3.48610       -1.07080
C          5.65200       -2.63610       -1.68190
N          5.74600       -2.63610       -3.01240
S          6.95170       -3.60290       -3.45220
N          7.41660       -4.08100       -1.98700
C          4.73600       -1.88200       -0.91780
C          4.94090       -1.95400        0.47980
N          4.17980       -1.34470        1.39130
S          4.61510       -1.84620        2.85320
N          5.78010       -2.85520        2.41570
C          5.91680       -2.82760        1.09040
C          3.64620       -1.13970       -1.44180
C          2.80370       -1.40590       -2.53330
N          2.76250       -2.57270       -3.25770
C          3.18070       -3.78920       -2.70520
C          2.96790       -4.07900       -1.35560
C          3.54780       -5.18840       -0.78600
C          4.34020       -6.04440       -1.55260
S          5.17650       -7.33970       -0.70810
C          6.50700       -7.77950       -1.86020
C          4.44010       -5.82900       -2.92290
C          3.86200       -4.71250       -3.49310
C          2.19080       -2.55330       -4.53870
C          1.23930       -3.50350       -4.89690
C          0.63040       -3.45530       -6.13500
C          0.98140       -2.46360       -7.04200
S          0.24830       -2.27600       -8.63480
C         -1.05880       -3.53180       -8.67060
C          1.96810       -1.53860       -6.70110
C          2.55970       -1.57290       -5.45960
C          1.82030       -0.39910       -2.66070
S          0.47160       -0.15350       -3.72590
C         -0.12630        1.14700       -2.69750
C          0.75250        1.43990       -1.65560
N          0.55900        2.41080       -0.68720
C          0.98140        2.06200        0.60960
C          0.55880        0.84900        1.15370
C          1.08120        0.40360        2.34730
C          2.03130        1.16580        3.02080
S          2.71660        0.48580        4.50070
C          4.35230        1.27440        4.57190
C          2.39540        2.40960        2.52130
C          1.87650        2.85350        1.32080
C          0.16630        3.71150       -0.99920
C          0.36040        4.24170       -2.27580
C         -0.08400        5.50990       -2.57200
C         -0.72450        6.28440       -1.60640
S         -1.26120        7.88750       -2.11740
C         -2.14540        8.53550       -0.67110
C         -0.89870        5.76920       -0.32930
C         -0.45940        4.49520       -0.03160
C          1.84860        0.55310       -1.65130
S          3.13400        0.27190       -0.53330
C         -1.47290        1.55690       -2.80020
C         -2.35540        1.27160       -3.84230
N         -1.94370        0.89020       -5.10920
C         -2.63970       -0.14280       -5.75190
C         -2.96220       -0.07540       -7.10450
C         -3.65090       -1.11060       -7.70360
C         -4.04380       -2.23020       -6.97860
C         -4.81870       -3.33650       -7.62830
C         -3.72340       -2.28600       -5.62700
C         -3.02840       -1.26120       -5.01800
C         -0.97560        1.65370       -5.77680
C         -0.17620        1.07500       -6.75900
C          0.76720        1.83150       -7.42440
C          0.95900        3.17360       -7.12230
C          2.00190        3.98560       -7.82710
C          0.16410        3.74140       -6.13360
C         -0.79520        3.00180       -5.47240
C         -3.69190        1.47070       -3.44310
S         -5.21970        1.28400       -4.22040
C         -6.06090        1.80500       -2.74770
C         -5.15650        2.21620       -1.74350
N         -5.45250        2.87310       -0.58430
C         -6.62670        3.61760       -0.40010
C         -7.14740        4.41790       -1.41540
C         -8.32250        5.11240       -1.21660
C         -9.01290        5.03190       -0.01010
C        -10.31940        5.73790        0.17110
C         -8.46580        4.26510        1.01080
C         -7.28620        3.56970        0.82670
C         -4.52260        2.85010        0.47970
C         -4.14810        4.03830        1.09590
C         -3.22350        4.02060        2.12300
C         -2.65180        2.82990        2.55330
C         -1.63370        2.80570        3.65160
C         -3.05300        1.64490        1.94460
C         -3.98130        1.64640        0.92330
C         -3.82900        1.96080       -2.14900
S         -2.29310        2.20360       -1.38930
C         -7.45610        1.76690       -2.76440
C         -8.26570        1.68140       -1.65030
C         -7.84360        1.07250       -0.37950
O         -6.75230        0.60430       -0.10840
C         -9.05490        1.02700        0.46590
C         -9.15400        0.53360        1.76230
C        -10.40790        0.65570        2.31330
C        -11.48870        1.20910        1.61750
C        -11.40700        1.68500        0.32960
C        -10.13670        1.58670       -0.24020
C         -9.65640        2.01920       -1.55180
C        -10.36120        2.77420       -2.45930
C         -9.80970        3.28920       -3.64840
N         -9.41900        3.76480       -4.61870
C        -11.68820        3.20150       -2.27810
N        -12.76260        3.59780       -2.17710
C        -12.43280        1.03050        2.78070
C        -12.77910        2.28290        3.62340
C        -11.61140        3.22790        3.48810
C        -10.58820        2.70450        4.15020
C        -11.04550        1.39500        4.74290
C        -12.51740        1.72850        5.03300
C        -11.22670        0.41450        3.55750
H          8.08030       -5.29700        0.25360
H          9.09660       -1.42630        5.12100
H         10.70060       -6.22880        5.13450
H         10.81460       -4.92790        8.29630
H         13.28910       -4.98720        7.31060
H         13.39830       -4.12880        9.79210
H         12.56630       -1.60640        9.83210
H         11.94720       -0.91040        7.37520
H         13.99200       -2.48770        6.79630
H         12.63680       -2.91710        5.72730
H          9.99820       -2.45690        8.33110
H          2.37260       -3.41160       -0.75030
H          3.41800       -5.39620        0.26500
H          6.97800       -6.87000       -2.22130
H          7.22220       -8.34840       -1.27440
H          6.11930       -8.38330       -2.67570
H          4.98970       -6.51320       -3.54900
H          3.98220       -4.52080       -4.54910
H          0.96370       -4.27250       -4.19040
H         -0.12090       -4.18970       -6.37510
H         -0.62420       -4.52600       -8.62030
H         -1.56100       -3.39950       -9.62390
H         -1.75770       -3.35550       -7.85800
H          2.25950       -0.79150       -7.42170
H          3.31760       -0.85230       -5.19290
H         -0.15960        0.25140        0.61260
H          0.77840       -0.54560        2.76090
H          4.80190        1.24900        3.58410
H          4.26900        2.29250        4.94150
H          4.94030        0.68140        5.26540
H          3.10150        3.03020        3.04930
H          2.18720        3.80440        0.91460
H          0.85700        3.65620       -3.03500
H          0.06240        5.92130       -3.55870
H         -2.53250        9.50300       -0.97560
H         -2.96710        7.87380       -0.41310
H         -1.45980        8.65970        0.16210
H         -1.38590        6.34210        0.44260
H         -0.62140        4.09040        0.95520
H         -2.67940        0.79280       -7.68000
H         -3.89630       -1.04350       -8.75350
H         -5.88730       -3.16980       -7.48960
H         -4.57230       -4.29940       -7.18510
H         -4.62160       -3.37720       -8.69710
H         -4.01800       -3.14730       -5.04460
H         -2.77350       -1.32230       -3.97000
H         -0.30100        0.03180       -6.99910
H          1.36420        1.36830       -8.19640
H          1.66630        5.01120       -7.96420
H          2.91950        4.00990       -7.23780
H          2.23570        3.55750       -8.79870
H          0.28650        4.78660       -5.88840
H         -1.41460        3.47560       -4.72480
H         -6.63250        4.49190       -2.36160
H         -8.71630        5.72200       -2.01690
H        -11.13590        5.10940       -0.18780
H        -10.34210        6.66510       -0.39690
H        -10.49870        5.95930        1.22060
H         -8.97970        4.19490        1.95820
H         -6.87440        2.97140        1.62570
H         -4.58140        4.97050        0.76310
H         -2.93760        4.95050        2.59390
H         -0.70740        2.35110        3.30190
H         -1.99450        2.21080        4.48960
H         -1.41790        3.80960        4.00850
H         -2.63250        0.70970        2.28380
H         -4.31740        0.72580        0.47240
H         -7.91730        1.76350       -3.74460
H         -8.29700        0.10980        2.26280
H        -12.25110        2.09510       -0.19990
H        -13.30050        0.39860        2.60210
H        -13.76100        2.70370        3.42450
H        -11.63590        4.12290        2.89420
H         -9.58160        3.07360        4.22680
H        -10.44900        1.00610        5.56420
H        -12.63390        2.48170        5.81110
H        -13.12080        0.85450        5.27410
H        -11.30720       -0.62040        3.88480
