
  xtb     02052207053D
 energy: -212.331468141196 gnorm: 0.000192191844 xtb: 6.4.1 (unknown)
119135  0     0  0            999 V2000
    1.5959   -7.3563   -2.8595 C   0  0  0  0  0  0  0  0  0  0  0  0
    0.9416   -7.6208   -1.6926 C   0  0  0  0  0  0  0  0  0  0  0  0
    0.8895   -6.6863   -0.5372 C   0  0  0  0  0  0  0  0  0  0  0  0
    1.3802   -5.5796   -0.4452 O   0  0  0  0  0  0  0  0  0  0  0  0
    0.2412   -7.4356    0.5528 C   0  0  0  0  0  0  0  0  0  0  0  0
   -0.0272   -6.9651    1.8360 C   0  0  0  0  0  0  0  0  0  0  0  0
   -0.6383   -7.8848    2.6527 C   0  0  0  0  0  0  0  0  0  0  0  0
   -0.9487   -9.1841    2.2287 C   0  0  0  0  0  0  0  0  0  0  0  0
   -0.6748   -9.6657    0.9706 C   0  0  0  0  0  0  0  0  0  0  0  0
   -0.0608   -8.7418    0.1192 C   0  0  0  0  0  0  0  0  0  0  0  0
    0.3630   -8.8803   -1.2720 C   0  0  0  0  0  0  0  0  0  0  0  0
    0.1680   -9.9811   -2.0651 C   0  0  0  0  0  0  0  0  0  0  0  0
    0.5130  -10.0616   -3.4309 C   0  0  0  0  0  0  0  0  0  0  0  0
    0.7436  -10.2048   -4.5467 N   0  0  0  0  0  0  0  0  0  0  0  0
   -0.4271  -11.1835   -1.6313 C   0  0  0  0  0  0  0  0  0  0  0  0
   -0.8973  -12.1909   -1.3434 N   0  0  0  0  0  0  0  0  0  0  0  0
   -1.5588   -9.5559    3.5573 C   0  0  0  0  0  0  0  0  0  0  0  0
   -3.1043   -9.5856    3.6569 C   0  0  0  0  0  0  0  0  0  0  0  0
   -3.6207   -8.6231    2.6164 C   0  0  0  0  0  0  0  0  0  0  0  0
   -3.3254   -7.3944    3.0191 C   0  0  0  0  0  0  0  0  0  0  0  0
   -2.6028   -7.5041    4.3390 C   0  0  0  0  0  0  0  0  0  0  0  0
   -3.2991   -8.7416    4.9269 C   0  0  0  0  0  0  0  0  0  0  0  0
   -1.2110   -8.1090    4.0296 C   0  0  0  0  0  0  0  0  0  0  0  0
    1.9386   -6.0419   -3.2850 C   0  0  0  0  0  0  0  0  0  0  0  0
    1.1180   -4.9209   -3.0502 C   0  0  0  0  0  0  0  0  0  0  0  0
    1.5535   -3.5754   -3.3410 C   0  0  0  0  0  0  0  0  0  0  0  0
    0.6227   -2.6742   -3.0192 N   0  0  0  0  0  0  0  0  0  0  0  0
   -0.6663   -3.4392   -2.4506 S   0  0  0  0  0  4  0  0  0  0  0  0
   -0.1283   -4.9392   -2.5725 N   0  0  0  0  0  0  0  0  0  0  0  0
    2.8204   -3.2739   -3.8834 C   0  0  0  0  0  0  0  0  0  0  0  0
    3.5790   -4.4047   -4.2551 C   0  0  0  0  0  0  0  0  0  0  0  0
    4.7751   -4.3988   -4.8496 N   0  0  0  0  0  0  0  0  0  0  0  0
    5.2745   -5.9079   -5.0461 S   0  0  0  0  0  0  0  0  0  0  0  0
    4.0291   -6.6623   -4.3790 N   0  0  0  0  0  0  0  0  0  0  0  0
    3.1324   -5.7582   -3.9782 C   0  0  0  0  0  0  0  0  0  0  0  0
    3.2821   -1.9343   -3.9603 C   0  0  0  0  0  0  0  0  0  0  0  0
    4.5091   -1.4582   -4.3798 C   0  0  0  0  0  0  0  0  0  0  0  0
    4.6664   -0.0801   -4.1832 C   0  0  0  0  0  0  0  0  0  0  0  0
    5.9634    0.5848   -4.4516 C   0  0  0  0  0  0  0  0  0  0  0  0
    6.6195    0.4361   -5.4495 O   0  0  0  0  0  0  0  0  0  0  0  0
    6.3466    1.3359   -3.4081 O   0  0  0  0  0  0  0  0  0  0  0  0
    7.5788    2.0262   -3.5514 C   0  0  0  0  0  0  0  0  0  0  0  0
    3.5442    0.5240   -3.6332 C   0  0  0  0  0  0  0  0  0  0  0  0
    2.2886   -0.6392   -3.3641 S   0  0  0  0  0  0  0  0  0  0  0  0
    3.2999    1.9061   -3.2938 C   0  0  0  0  0  0  0  0  0  0  0  0
    2.3756    2.1784   -2.2851 C   0  0  0  0  0  0  0  0  0  0  0  0
    2.1377    3.4938   -1.9401 C   0  0  0  0  0  0  0  0  0  0  0  0
    1.2784    3.9986   -0.9974 N   0  0  0  0  0  0  0  0  0  0  0  0
    0.4069    3.2214   -0.1566 C   0  0  0  0  0  0  0  0  0  0  0  0
    1.0930    2.8163    1.1470 C   0  0  0  0  0  0  0  0  0  0  0  0
    1.4055    5.3633   -0.9855 C   0  0  0  0  0  0  0  0  0  0  0  0
    2.3625    5.7617   -1.9575 C   0  0  0  0  0  0  0  0  0  0  0  0
    2.8261    4.5588   -2.5769 C   0  0  0  0  0  0  0  0  0  0  0  0
    3.7231    4.2758   -3.6038 C   0  0  0  0  0  0  0  0  0  0  0  0
    3.9450    2.9649   -3.9599 C   0  0  0  0  0  0  0  0  0  0  0  0
    2.6673    7.1106   -2.1098 C   0  0  0  0  0  0  0  0  0  0  0  0
    2.0241    8.0342   -1.3178 C   0  0  0  0  0  0  0  0  0  0  0  0
    1.0410    7.6454   -0.3906 C   0  0  0  0  0  0  0  0  0  0  0  0
    0.7473    6.2938   -0.2064 C   0  0  0  0  0  0  0  0  0  0  0  0
    0.3519    8.6420    0.3951 C   0  0  0  0  0  0  0  0  0  0  0  0
   -0.9284    8.5858    0.8255 C   0  0  0  0  0  0  0  0  0  0  0  0
   -1.3943    9.4333    1.9605 C   0  0  0  0  0  0  0  0  0  0  0  0
   -0.8384   10.4065    2.4140 O   0  0  0  0  0  0  0  0  0  0  0  0
   -2.6299    8.7855    2.4442 C   0  0  0  0  0  0  0  0  0  0  0  0
   -3.3666    9.1160    3.5812 C   0  0  0  0  0  0  0  0  0  0  0  0
   -4.4650    8.3172    3.7907 C   0  0  0  0  0  0  0  0  0  0  0  0
   -4.8132    7.2640    2.9328 C   0  0  0  0  0  0  0  0  0  0  0  0
   -4.1018    6.9276    1.8071 C   0  0  0  0  0  0  0  0  0  0  0  0
   -2.9786    7.7283    1.5763 C   0  0  0  0  0  0  0  0  0  0  0  0
   -2.0192    7.6895    0.4785 C   0  0  0  0  0  0  0  0  0  0  0  0
   -2.2237    7.1034   -0.7410 C   0  0  0  0  0  0  0  0  0  0  0  0
   -3.3215    6.2749   -1.0487 C   0  0  0  0  0  0  0  0  0  0  0  0
   -4.1720    5.5610   -1.3409 N   0  0  0  0  0  0  0  0  0  0  0  0
   -1.3914    7.3074   -1.8633 C   0  0  0  0  0  0  0  0  0  0  0  0
   -0.8006    7.4806   -2.8316 N   0  0  0  0  0  0  0  0  0  0  0  0
   -6.0212    6.8871    3.7525 C   0  0  0  0  0  0  0  0  0  0  0  0
   -5.8821    5.6437    4.6559 C   0  0  0  0  0  0  0  0  0  0  0  0
   -6.9976    5.8022    5.6636 C   0  0  0  0  0  0  0  0  0  0  0  0
   -6.6674    6.7967    6.4775 C   0  0  0  0  0  0  0  0  0  0  0  0
   -5.3228    7.3270    6.0340 C   0  0  0  0  0  0  0  0  0  0  0  0
   -4.6809    6.0280    5.5297 C   0  0  0  0  0  0  0  0  0  0  0  0
   -5.6331    8.0588    4.7105 C   0  0  0  0  0  0  0  0  0  0  0  0
    1.9312   -8.1635   -3.4978 H   0  0  0  0  0  0  0  0  0  0  0  0
    0.2335   -5.9579    2.1214 H   0  0  0  0  0  0  0  0  0  0  0  0
   -0.9084  -10.6717    0.6644 H   0  0  0  0  0  0  0  0  0  0  0  0
   -1.0938  -10.3891    4.0803 H   0  0  0  0  0  0  0  0  0  0  0  0
   -3.5378  -10.5819    3.6459 H   0  0  0  0  0  0  0  0  0  0  0  0
   -4.0820   -8.9280    1.6955 H   0  0  0  0  0  0  0  0  0  0  0  0
   -3.4905   -6.4675    2.5015 H   0  0  0  0  0  0  0  0  0  0  0  0
   -2.5790   -6.6054    4.9501 H   0  0  0  0  0  0  0  0  0  0  0  0
   -4.3484   -8.5644    5.1580 H   0  0  0  0  0  0  0  0  0  0  0  0
   -2.7936   -9.1496    5.8011 H   0  0  0  0  0  0  0  0  0  0  0  0
   -0.5159   -7.9973    4.8596 H   0  0  0  0  0  0  0  0  0  0  0  0
    5.2720   -2.0974   -4.7851 H   0  0  0  0  0  0  0  0  0  0  0  0
    8.3459    1.3570   -3.9465 H   0  0  0  0  0  0  0  0  0  0  0  0
    7.8480    2.3799   -2.5596 H   0  0  0  0  0  0  0  0  0  0  0  0
    7.4598    2.8700   -4.2346 H   0  0  0  0  0  0  0  0  0  0  0  0
    1.8786    1.3630   -1.7829 H   0  0  0  0  0  0  0  0  0  0  0  0
    0.0978    2.3313   -0.7106 H   0  0  0  0  0  0  0  0  0  0  0  0
   -0.4887    3.8121    0.0555 H   0  0  0  0  0  0  0  0  0  0  0  0
    0.4143    2.2297    1.7602 H   0  0  0  0  0  0  0  0  0  0  0  0
    1.3967    3.6987    1.7057 H   0  0  0  0  0  0  0  0  0  0  0  0
    1.9779    2.2207    0.9365 H   0  0  0  0  0  0  0  0  0  0  0  0
    4.2276    5.0776   -4.1208 H   0  0  0  0  0  0  0  0  0  0  0  0
    4.6044    2.7383   -4.7831 H   0  0  0  0  0  0  0  0  0  0  0  0
    3.4004    7.4252   -2.8361 H   0  0  0  0  0  0  0  0  0  0  0  0
    2.2389    9.0858   -1.4301 H   0  0  0  0  0  0  0  0  0  0  0  0
    0.0419    5.9924    0.5542 H   0  0  0  0  0  0  0  0  0  0  0  0
    0.9314    9.4954    0.7309 H   0  0  0  0  0  0  0  0  0  0  0  0
   -3.0702    9.9384    4.2132 H   0  0  0  0  0  0  0  0  0  0  0  0
   -4.3751    6.1135    1.1561 H   0  0  0  0  0  0  0  0  0  0  0  0
   -6.9767    6.9322    3.2340 H   0  0  0  0  0  0  0  0  0  0  0  0
   -5.8340    4.6975    4.1238 H   0  0  0  0  0  0  0  0  0  0  0  0
   -7.9070    5.2309    5.6462 H   0  0  0  0  0  0  0  0  0  0  0  0
   -7.2460    7.2219    7.2763 H   0  0  0  0  0  0  0  0  0  0  0  0
   -4.7648    7.9130    6.7593 H   0  0  0  0  0  0  0  0  0  0  0  0
   -4.5118    5.3137    6.3338 H   0  0  0  0  0  0  0  0  0  0  0  0
   -3.7566    6.1763    4.9741 H   0  0  0  0  0  0  0  0  0  0  0  0
   -6.3320    8.8837    4.8345 H   0  0  0  0  0  0  0  0  0  0  0  0
  1  2  2  0  0  0  0
  2  3  1  0  0  0  0
  3  4  2  0  0  0  0
  3  5  1  0  0  0  0
  5  6  2  0  0  0  0
  6  7  1  0  0  0  0
  7  8  2  0  0  0  0
  8  9  1  0  0  0  0
  9 10  2  0  0  0  0
 10 11  1  0  0  0  0
 11 12  2  0  0  0  0
 12 13  1  0  0  0  0
 13 14  3  0  0  0  0
 12 15  1  0  0  0  0
 15 16  3  0  0  0  0
  8 17  1  0  0  0  0
 17 18  1  0  0  0  0
 18 19  1  0  0  0  0
 19 20  2  0  0  0  0
 20 21  1  0  0  0  0
 21 22  1  0  0  0  0
 21 23  1  0  0  0  0
  1 24  1  0  0  0  0
 24 25  2  0  0  0  0
 25 26  1  0  0  0  0
 26 27  1  0  0  0  0
 27 28  2  0  0  0  0
 28 29  2  0  0  0  0
 26 30  2  0  0  0  0
 30 31  1  0  0  0  0
 31 32  2  0  0  0  0
 32 33  1  0  0  0  0
 33 34  1  0  0  0  0
 34 35  2  0  0  0  0
 30 36  1  0  0  0  0
 36 37  2  0  0  0  0
 37 38  1  0  0  0  0
 38 39  1  0  0  0  0
 39 40  2  0  0  0  0
 39 41  1  0  0  0  0
 41 42  1  0  0  0  0
 38 43  2  0  0  0  0
 43 44  1  0  0  0  0
 43 45  1  0  0  0  0
 45 46  2  0  0  0  0
 46 47  1  0  0  0  0
 47 48  1  0  0  0  0
 48 49  1  0  0  0  0
 49 50  1  0  0  0  0
 48 51  1  0  0  0  0
 51 52  2  0  0  0  0
 52 53  1  0  0  0  0
 53 54  1  0  0  0  0
 54 55  2  0  0  0  0
 52 56  1  0  0  0  0
 56 57  2  0  0  0  0
 57 58  1  0  0  0  0
 58 59  2  0  0  0  0
 58 60  1  0  0  0  0
 60 61  2  0  0  0  0
 61 62  1  0  0  0  0
 62 63  2  0  0  0  0
 62 64  1  0  0  0  0
 64 65  2  0  0  0  0
 65 66  1  0  0  0  0
 66 67  2  0  0  0  0
 67 68  1  0  0  0  0
 68 69  2  0  0  0  0
 69 70  1  0  0  0  0
 70 71  2  0  0  0  0
 71 72  1  0  0  0  0
 72 73  3  0  0  0  0
 71 74  1  0  0  0  0
 74 75  3  0  0  0  0
 67 76  1  0  0  0  0
 76 77  1  0  0  0  0
 77 78  1  0  0  0  0
 78 79  2  0  0  0  0
 79 80  1  0  0  0  0
 80 81  1  0  0  0  0
 80 82  1  0  0  0  0
 11  2  1  0  0  0  0
 23 17  1  0  0  0  0
 35 24  1  0  0  0  0
 44 36  1  0  0  0  0
 55 45  1  0  0  0  0
 70 61  1  0  0  0  0
 82 76  1  0  0  0  0
 10  5  1  0  0  0  0
 22 18  1  0  0  0  0
 29 25  1  0  0  0  0
 35 31  1  0  0  0  0
 53 47  2  0  0  0  0
 69 64  1  0  0  0  0
 81 77  1  0  0  0  0
 23  7  1  0  0  0  0
 59 51  1  0  0  0  0
 82 66  1  0  0  0  0
  1 83  1  0  0  0  0
  6 84  1  0  0  0  0
  9 85  1  0  0  0  0
 17 86  1  0  0  0  0
 18 87  1  0  0  0  0
 19 88  1  0  0  0  0
 20 89  1  0  0  0  0
 21 90  1  0  0  0  0
 22 91  1  0  0  0  0
 22 92  1  0  0  0  0
 23 93  1  0  0  0  0
 37 94  1  0  0  0  0
 42 95  1  0  0  0  0
 42 96  1  0  0  0  0
 42 97  1  0  0  0  0
 46 98  1  0  0  0  0
 49 99  1  0  0  0  0
 49100  1  0  0  0  0
 50101  1  0  0  0  0
 50102  1  0  0  0  0
 50103  1  0  0  0  0
 54104  1  0  0  0  0
 55105  1  0  0  0  0
 56106  1  0  0  0  0
 57107  1  0  0  0  0
 59108  1  0  0  0  0
 60109  1  0  0  0  0
 65110  1  0  0  0  0
 68111  1  0  0  0  0
 76112  1  0  0  0  0
 77113  1  0  0  0  0
 78114  1  0  0  0  0
 79115  1  0  0  0  0
 80116  1  0  0  0  0
 81117  1  0  0  0  0
 81118  1  0  0  0  0
 82119  1  0  0  0  0
M  END
