
  xtb     02052214553D
 energy: -286.292938928382 gnorm: 0.000660939676 xtb: 6.4.1 (unknown)
174188  0     0  0            999 V2000
   -0.9206    4.8215    4.8123 C   0  0  0  0  0  0  0  0  0  0  0  0
   -1.9324    5.7022    4.6086 C   0  0  0  0  0  0  0  0  0  0  0  0
   -3.0525    5.5154    3.6441 C   0  0  0  0  0  0  0  0  0  0  0  0
   -3.2036    4.6249    2.8361 O   0  0  0  0  0  0  0  0  0  0  0  0
   -4.0132    6.5940    3.9368 C   0  0  0  0  0  0  0  0  0  0  0  0
   -5.2334    6.8096    3.2995 C   0  0  0  0  0  0  0  0  0  0  0  0
   -5.9258    7.8981    3.7701 C   0  0  0  0  0  0  0  0  0  0  0  0
   -5.4447    8.7094    4.8077 C   0  0  0  0  0  0  0  0  0  0  0  0
   -4.2498    8.5008    5.4527 C   0  0  0  0  0  0  0  0  0  0  0  0
   -3.5238    7.4004    4.9838 C   0  0  0  0  0  0  0  0  0  0  0  0
   -2.2328    6.8754    5.4155 C   0  0  0  0  0  0  0  0  0  0  0  0
   -1.4311    7.4264    6.3797 C   0  0  0  0  0  0  0  0  0  0  0  0
   -0.1681    6.9419    6.7776 C   0  0  0  0  0  0  0  0  0  0  0  0
    0.8633    6.6299    7.1755 N   0  0  0  0  0  0  0  0  0  0  0  0
   -1.7532    8.5804    7.1259 C   0  0  0  0  0  0  0  0  0  0  0  0
   -1.9450    9.5084    7.7740 N   0  0  0  0  0  0  0  0  0  0  0  0
   -6.6440    9.6222    4.7563 C   0  0  0  0  0  0  0  0  0  0  0  0
   -6.4721   10.9969    4.0637 C   0  0  0  0  0  0  0  0  0  0  0  0
   -5.3635   10.8335    3.0534 C   0  0  0  0  0  0  0  0  0  0  0  0
   -5.8195   10.0661    2.0724 C   0  0  0  0  0  0  0  0  0  0  0  0
   -7.2447    9.6963    2.4019 C   0  0  0  0  0  0  0  0  0  0  0  0
   -7.6938   10.9724    3.1312 C   0  0  0  0  0  0  0  0  0  0  0  0
   -7.1797    8.7183    3.6013 C   0  0  0  0  0  0  0  0  0  0  0  0
   -0.5452    3.7281    3.9509 C   0  0  0  0  0  0  0  0  0  0  0  0
   -0.0945    2.5228    4.5253 C   0  0  0  0  0  0  0  0  0  0  0  0
   -0.0714    2.3697    5.8908 O   0  0  0  0  0  0  0  0  0  0  0  0
   -1.3341    2.2053    6.5164 C   0  0  0  0  0  0  0  0  0  0  0  0
   -2.0208    0.9091    6.1069 C   0  0  0  0  0  0  0  0  0  0  0  0
    0.3479    1.4757    3.7195 C   0  0  0  0  0  0  0  0  0  0  0  0
    0.6665    0.2625    4.2862 O   0  0  0  0  0  0  0  0  0  0  0  0
    2.0361    0.0191    4.5740 C   0  0  0  0  0  0  0  0  0  0  0  0
    2.5839    0.8841    5.6992 C   0  0  0  0  0  0  0  0  0  0  0  0
    0.4014    1.6390    2.3229 C   0  0  0  0  0  0  0  0  0  0  0  0
   -0.0917    2.8237    1.7659 C   0  0  0  0  0  0  0  0  0  0  0  0
   -0.5479    3.8459    2.5590 C   0  0  0  0  0  0  0  0  0  0  0  0
    0.9252    0.5927    1.4784 C   0  0  0  0  0  0  0  0  0  0  0  0
    1.6503    0.7273    0.3015 C   0  0  0  0  0  0  0  0  0  0  0  0
    2.1674    1.9131   -0.1939 N   0  0  0  0  0  0  0  0  0  0  0  0
    2.3880    2.0456   -1.5695 C   0  0  0  0  0  0  0  0  0  0  0  0
    3.5546    2.6474   -2.0416 C   0  0  0  0  0  0  0  0  0  0  0  0
    3.8182    2.6796   -3.3929 C   0  0  0  0  0  0  0  0  0  0  0  0
    2.9195    2.1213   -4.2967 C   0  0  0  0  0  0  0  0  0  0  0  0
    3.3579    2.0948   -6.0100 S   0  0  0  0  0  0  0  0  0  0  0  0
    2.6374    0.5082   -6.5388 C   0  0  0  0  0  0  0  0  0  0  0  0
    1.7167    1.6036   -3.8380 C   0  0  0  0  0  0  0  0  0  0  0  0
    1.4556    1.5588   -2.4834 C   0  0  0  0  0  0  0  0  0  0  0  0
    2.5301    2.9455    0.6848 C   0  0  0  0  0  0  0  0  0  0  0  0
    3.1361    2.6608    1.9041 C   0  0  0  0  0  0  0  0  0  0  0  0
    3.3192    3.6491    2.8486 C   0  0  0  0  0  0  0  0  0  0  0  0
    2.9020    4.9474    2.5833 C   0  0  0  0  0  0  0  0  0  0  0  0
    2.9409    6.2449    3.7769 S   0  0  0  0  0  0  0  0  0  0  0  0
    3.1472    5.3561    5.3449 C   0  0  0  0  0  0  0  0  0  0  0  0
    2.4091    5.2590    1.3180 C   0  0  0  0  0  0  0  0  0  0  0  0
    2.2260    4.2715    0.3765 C   0  0  0  0  0  0  0  0  0  0  0  0
    1.8991   -0.5413   -0.2836 C   0  0  0  0  0  0  0  0  0  0  0  0
    2.6240   -1.0820   -1.7600 S   0  0  0  0  0  0  0  0  0  0  0  0
    2.3318   -2.7495   -1.3190 C   0  0  0  0  0  0  0  0  0  0  0  0
    1.6659   -2.8727   -0.1113 C   0  0  0  0  0  0  0  0  0  0  0  0
    1.2470   -4.0608    0.4822 N   0  0  0  0  0  0  0  0  0  0  0  0
    0.7560   -5.1104   -0.2932 C   0  0  0  0  0  0  0  0  0  0  0  0
   -0.0163   -4.8483   -1.4247 C   0  0  0  0  0  0  0  0  0  0  0  0
   -0.3937   -5.8655   -2.2738 C   0  0  0  0  0  0  0  0  0  0  0  0
   -0.0188   -7.1723   -1.9947 C   0  0  0  0  0  0  0  0  0  0  0  0
   -0.3599   -8.5085   -3.1162 S   0  0  0  0  0  0  0  0  0  0  0  0
   -2.1260   -8.2472   -3.4713 C   0  0  0  0  0  0  0  0  0  0  0  0
    0.6931   -7.4530   -0.8354 C   0  0  0  0  0  0  0  0  0  0  0  0
    1.0740   -6.4346    0.0120 C   0  0  0  0  0  0  0  0  0  0  0  0
    1.3922   -4.1769    1.8709 C   0  0  0  0  0  0  0  0  0  0  0  0
    0.4302   -4.8264    2.6378 C   0  0  0  0  0  0  0  0  0  0  0  0
    0.5493   -4.8886    4.0126 C   0  0  0  0  0  0  0  0  0  0  0  0
    1.6330   -4.2951    4.6458 C   0  0  0  0  0  0  0  0  0  0  0  0
    1.8780   -4.2721    6.3939 S   0  0  0  0  0  0  0  0  0  0  0  0
    0.3824   -5.0560    7.0577 C   0  0  0  0  0  0  0  0  0  0  0  0
    2.6123   -3.6667    3.8793 C   0  0  0  0  0  0  0  0  0  0  0  0
    2.4966   -3.6103    2.5096 C   0  0  0  0  0  0  0  0  0  0  0  0
    1.4149   -1.6034    0.4634 C   0  0  0  0  0  0  0  0  0  0  0  0
    0.6471   -1.0805    1.9205 S   0  0  0  0  0  0  0  0  0  0  0  0
    2.7181   -3.8173   -2.2128 C   0  0  0  0  0  0  0  0  0  0  0  0
    2.6017   -3.6632   -3.6054 C   0  0  0  0  0  0  0  0  0  0  0  0
    2.3062   -2.4224   -4.1216 O   0  0  0  0  0  0  0  0  0  0  0  0
    0.9204   -2.1260   -4.2680 C   0  0  0  0  0  0  0  0  0  0  0  0
    0.3322   -2.6496   -5.5689 C   0  0  0  0  0  0  0  0  0  0  0  0
    2.8076   -4.7549   -4.4516 C   0  0  0  0  0  0  0  0  0  0  0  0
    2.7072   -4.5611   -5.8000 O   0  0  0  0  0  0  0  0  0  0  0  0
    3.8529   -4.8822   -6.5715 C   0  0  0  0  0  0  0  0  0  0  0  0
    5.0091   -3.9300   -6.2909 C   0  0  0  0  0  0  0  0  0  0  0  0
    3.1139   -6.0121   -3.8962 C   0  0  0  0  0  0  0  0  0  0  0  0
    3.4136   -6.0958   -2.5340 C   0  0  0  0  0  0  0  0  0  0  0  0
    3.2154   -5.0210   -1.7047 C   0  0  0  0  0  0  0  0  0  0  0  0
    3.0981   -7.2400   -4.6563 C   0  0  0  0  0  0  0  0  0  0  0  0
    2.1030   -7.6217   -5.4940 C   0  0  0  0  0  0  0  0  0  0  0  0
    0.7948   -6.9412   -5.6447 C   0  0  0  0  0  0  0  0  0  0  0  0
    0.4017   -5.8822   -5.1759 O   0  0  0  0  0  0  0  0  0  0  0  0
   -0.0237   -7.8427   -6.4461 C   0  0  0  0  0  0  0  0  0  0  0  0
   -1.3460   -7.6361   -6.8239 C   0  0  0  0  0  0  0  0  0  0  0  0
   -1.9954   -6.5102   -6.4912 O   0  0  0  0  0  0  0  0  0  0  0  0
   -1.9667   -8.6497   -7.5613 C   0  0  0  0  0  0  0  0  0  0  0  0
   -1.2674   -9.7982   -7.8840 C   0  0  0  0  0  0  0  0  0  0  0  0
    0.0607   -9.9980   -7.5116 C   0  0  0  0  0  0  0  0  0  0  0  0
    0.6904   -9.0027   -6.7858 C   0  0  0  0  0  0  0  0  0  0  0  0
    2.0424   -8.8661   -6.2537 C   0  0  0  0  0  0  0  0  0  0  0  0
    3.0853   -9.7150   -6.5001 C   0  0  0  0  0  0  0  0  0  0  0  0
    4.4153   -9.5047   -6.0775 C   0  0  0  0  0  0  0  0  0  0  0  0
    5.5216   -9.3773   -5.7980 N   0  0  0  0  0  0  0  0  0  0  0  0
    2.9714  -10.9013   -7.2568 C   0  0  0  0  0  0  0  0  0  0  0  0
    2.9408  -11.8778   -7.8585 N   0  0  0  0  0  0  0  0  0  0  0  0
   -0.3251    4.9110    5.7143 H   0  0  0  0  0  0  0  0  0  0  0  0
   -5.5649    6.1574    2.5067 H   0  0  0  0  0  0  0  0  0  0  0  0
   -3.9001    9.1289    6.2547 H   0  0  0  0  0  0  0  0  0  0  0  0
   -7.2334    9.6881    5.6686 H   0  0  0  0  0  0  0  0  0  0  0  0
   -6.3790   11.8371    4.7463 H   0  0  0  0  0  0  0  0  0  0  0  0
   -4.3745   11.2331    3.1802 H   0  0  0  0  0  0  0  0  0  0  0  0
   -5.2873    9.6961    1.2156 H   0  0  0  0  0  0  0  0  0  0  0  0
   -7.8560    9.3523    1.5716 H   0  0  0  0  0  0  0  0  0  0  0  0
   -8.6403   10.8608    3.6585 H   0  0  0  0  0  0  0  0  0  0  0  0
   -7.7390   11.8392    2.4736 H   0  0  0  0  0  0  0  0  0  0  0  0
   -8.1191    8.1921    3.7593 H   0  0  0  0  0  0  0  0  0  0  0  0
   -1.1073    2.2042    7.5855 H   0  0  0  0  0  0  0  0  0  0  0  0
   -1.9843    3.0636    6.2913 H   0  0  0  0  0  0  0  0  0  0  0  0
   -2.3060    0.9476    5.0575 H   0  0  0  0  0  0  0  0  0  0  0  0
   -2.9113    0.7578    6.7109 H   0  0  0  0  0  0  0  0  0  0  0  0
   -1.3424    0.0712    6.2459 H   0  0  0  0  0  0  0  0  0  0  0  0
    2.0627   -1.0373    4.8529 H   0  0  0  0  0  0  0  0  0  0  0  0
    2.6403    0.1560    3.6664 H   0  0  0  0  0  0  0  0  0  0  0  0
    2.5564    1.9347    5.4203 H   0  0  0  0  0  0  0  0  0  0  0  0
    1.9862    0.7556    6.5967 H   0  0  0  0  0  0  0  0  0  0  0  0
    3.6113    0.5977    5.9086 H   0  0  0  0  0  0  0  0  0  0  0  0
   -0.1331    2.9223    0.6933 H   0  0  0  0  0  0  0  0  0  0  0  0
   -0.8798    4.7655    2.1069 H   0  0  0  0  0  0  0  0  0  0  0  0
    4.2635    3.0568   -1.3375 H   0  0  0  0  0  0  0  0  0  0  0  0
    4.7352    3.1130   -3.7609 H   0  0  0  0  0  0  0  0  0  0  0  0
    3.1502    0.2389   -7.4569 H   0  0  0  0  0  0  0  0  0  0  0  0
    2.8194   -0.2391   -5.7720 H   0  0  0  0  0  0  0  0  0  0  0  0
    1.5748    0.6196   -6.7354 H   0  0  0  0  0  0  0  0  0  0  0  0
    0.9788    1.2385   -4.5352 H   0  0  0  0  0  0  0  0  0  0  0  0
    0.5238    1.1448   -2.1259 H   0  0  0  0  0  0  0  0  0  0  0  0
    3.4510    1.6503    2.1185 H   0  0  0  0  0  0  0  0  0  0  0  0
    3.7870    3.3976    3.7865 H   0  0  0  0  0  0  0  0  0  0  0  0
    4.1723    5.0134    5.4535 H   0  0  0  0  0  0  0  0  0  0  0  0
    2.9079    6.0723    6.1249 H   0  0  0  0  0  0  0  0  0  0  0  0
    2.4448    4.5287    5.3851 H   0  0  0  0  0  0  0  0  0  0  0  0
    2.1392    6.2802    1.0978 H   0  0  0  0  0  0  0  0  0  0  0  0
    1.8090    4.5122   -0.5902 H   0  0  0  0  0  0  0  0  0  0  0  0
   -0.3068   -3.8312   -1.6415 H   0  0  0  0  0  0  0  0  0  0  0  0
   -0.9615   -5.6325   -3.1595 H   0  0  0  0  0  0  0  0  0  0  0  0
   -2.4358   -9.0835   -4.0899 H   0  0  0  0  0  0  0  0  0  0  0  0
   -2.2771   -7.3161   -4.0065 H   0  0  0  0  0  0  0  0  0  0  0  0
   -2.6773   -8.2461   -2.5361 H   0  0  0  0  0  0  0  0  0  0  0  0
    0.9652   -8.4741   -0.6167 H   0  0  0  0  0  0  0  0  0  0  0  0
    1.6465   -6.6556    0.9007 H   0  0  0  0  0  0  0  0  0  0  0  0
   -0.4236   -5.2752    2.1522 H   0  0  0  0  0  0  0  0  0  0  0  0
   -0.2183   -5.3928    4.5769 H   0  0  0  0  0  0  0  0  0  0  0  0
   -0.4959   -4.4998    6.7434 H   0  0  0  0  0  0  0  0  0  0  0  0
    0.4829   -5.0085    8.1376 H   0  0  0  0  0  0  0  0  0  0  0  0
    0.3307   -6.0932    6.7390 H   0  0  0  0  0  0  0  0  0  0  0  0
    3.4665   -3.2292    4.3735 H   0  0  0  0  0  0  0  0  0  0  0  0
    3.2624   -3.1242    1.9235 H   0  0  0  0  0  0  0  0  0  0  0  0
    0.3635   -2.5301   -3.4136 H   0  0  0  0  0  0  0  0  0  0  0  0
    0.8676   -1.0347   -4.2299 H   0  0  0  0  0  0  0  0  0  0  0  0
    0.8877   -2.2557   -6.4159 H   0  0  0  0  0  0  0  0  0  0  0  0
    0.3916   -3.7330   -5.5930 H   0  0  0  0  0  0  0  0  0  0  0  0
   -0.7080   -2.3423   -5.6469 H   0  0  0  0  0  0  0  0  0  0  0  0
    4.1689   -5.9198   -6.3944 H   0  0  0  0  0  0  0  0  0  0  0  0
    3.5182   -4.7880   -7.6077 H   0  0  0  0  0  0  0  0  0  0  0  0
    5.8301   -4.1372   -6.9712 H   0  0  0  0  0  0  0  0  0  0  0  0
    4.6842   -2.9010   -6.4230 H   0  0  0  0  0  0  0  0  0  0  0  0
    5.3582   -4.0524   -5.2673 H   0  0  0  0  0  0  0  0  0  0  0  0
    3.7382   -7.0421   -2.1281 H   0  0  0  0  0  0  0  0  0  0  0  0
    3.4401   -5.0996   -0.6530 H   0  0  0  0  0  0  0  0  0  0  0  0
    3.8954   -7.9402   -4.4369 H   0  0  0  0  0  0  0  0  0  0  0  0
   -1.3699   -5.9379   -6.0005 H   0  0  0  0  0  0  0  0  0  0  0  0
   -2.9920   -8.5182   -7.8686 H   0  0  0  0  0  0  0  0  0  0  0  0
   -1.7685  -10.5703   -8.4482 H   0  0  0  0  0  0  0  0  0  0  0  0
    0.5640  -10.9105   -7.7836 H   0  0  0  0  0  0  0  0  0  0  0  0
  1  2  2  0  0  0  0
  2  3  1  0  0  0  0
  3  4  2  0  0  0  0
  3  5  1  0  0  0  0
  5  6  2  0  0  0  0
  6  7  1  0  0  0  0
  7  8  2  0  0  0  0
  8  9  1  0  0  0  0
  9 10  2  0  0  0  0
 10 11  1  0  0  0  0
 11 12  2  0  0  0  0
 12 13  1  0  0  0  0
 13 14  3  0  0  0  0
 12 15  1  0  0  0  0
 15 16  3  0  0  0  0
  8 17  1  0  0  0  0
 17 18  1  0  0  0  0
 18 19  1  0  0  0  0
 19 20  2  0  0  0  0
 20 21  1  0  0  0  0
 21 22  1  0  0  0  0
 21 23  1  0  0  0  0
  1 24  1  0  0  0  0
 24 25  2  0  0  0  0
 25 26  1  0  0  0  0
 26 27  1  0  0  0  0
 27 28  1  0  0  0  0
 25 29  1  0  0  0  0
 29 30  1  0  0  0  0
 30 31  1  0  0  0  0
 31 32  1  0  0  0  0
 29 33  2  0  0  0  0
 33 34  1  0  0  0  0
 34 35  2  0  0  0  0
 33 36  1  0  0  0  0
 36 37  2  0  0  0  0
 37 38  1  0  0  0  0
 38 39  1  0  0  0  0
 39 40  2  0  0  0  0
 40 41  1  0  0  0  0
 41 42  2  0  0  0  0
 42 43  1  0  0  0  0
 43 44  1  0  0  0  0
 42 45  1  0  0  0  0
 45 46  2  0  0  0  0
 38 47  1  0  0  0  0
 47 48  2  0  0  0  0
 48 49  1  0  0  0  0
 49 50  2  0  0  0  0
 50 51  1  0  0  0  0
 51 52  1  0  0  0  0
 50 53  1  0  0  0  0
 53 54  2  0  0  0  0
 37 55  1  0  0  0  0
 55 56  1  0  0  0  0
 56 57  1  0  0  0  0
 57 58  2  0  0  0  0
 58 59  1  0  0  0  0
 59 60  1  0  0  0  0
 60 61  2  0  0  0  0
 61 62  1  0  0  0  0
 62 63  2  0  0  0  0
 63 64  1  0  0  0  0
 64 65  1  0  0  0  0
 63 66  1  0  0  0  0
 66 67  2  0  0  0  0
 59 68  1  0  0  0  0
 68 69  2  0  0  0  0
 69 70  1  0  0  0  0
 70 71  2  0  0  0  0
 71 72  1  0  0  0  0
 72 73  1  0  0  0  0
 71 74  1  0  0  0  0
 74 75  2  0  0  0  0
 58 76  1  0  0  0  0
 76 77  1  0  0  0  0
 57 78  1  0  0  0  0
 78 79  2  0  0  0  0
 79 80  1  0  0  0  0
 80 81  1  0  0  0  0
 81 82  1  0  0  0  0
 79 83  1  0  0  0  0
 83 84  1  0  0  0  0
 84 85  1  0  0  0  0
 85 86  1  0  0  0  0
 83 87  2  0  0  0  0
 87 88  1  0  0  0  0
 88 89  2  0  0  0  0
 87 90  1  0  0  0  0
 90 91  2  0  0  0  0
 91 92  1  0  0  0  0
 92 93  2  0  0  0  0
 92 94  1  0  0  0  0
 94 95  2  0  0  0  0
 95 96  1  0  0  0  0
 95 97  1  0  0  0  0
 97 98  2  0  0  0  0
 98 99  1  0  0  0  0
 99100  2  0  0  0  0
100101  1  0  0  0  0
101102  2  0  0  0  0
102103  1  0  0  0  0
103104  3  0  0  0  0
102105  1  0  0  0  0
105106  3  0  0  0  0
 11  2  1  0  0  0  0
 23 17  1  0  0  0  0
 35 24  1  0  0  0  0
 77 36  1  0  0  0  0
 89 78  1  0  0  0  0
101 91  1  0  0  0  0
 10  5  1  0  0  0  0
 22 18  1  0  0  0  0
 46 39  1  0  0  0  0
 54 47  1  0  0  0  0
 76 55  2  0  0  0  0
100 94  1  0  0  0  0
 23  7  1  0  0  0  0
 67 60  1  0  0  0  0
 75 68  1  0  0  0  0
  1107  1  0  0  0  0
  6108  1  0  0  0  0
  9109  1  0  0  0  0
 17110  1  0  0  0  0
 18111  1  0  0  0  0
 19112  1  0  0  0  0
 20113  1  0  0  0  0
 21114  1  0  0  0  0
 22115  1  0  0  0  0
 22116  1  0  0  0  0
 23117  1  0  0  0  0
 27118  1  0  0  0  0
 27119  1  0  0  0  0
 28120  1  0  0  0  0
 28121  1  0  0  0  0
 28122  1  0  0  0  0
 31123  1  0  0  0  0
 31124  1  0  0  0  0
 32125  1  0  0  0  0
 32126  1  0  0  0  0
 32127  1  0  0  0  0
 34128  1  0  0  0  0
 35129  1  0  0  0  0
 40130  1  0  0  0  0
 41131  1  0  0  0  0
 44132  1  0  0  0  0
 44133  1  0  0  0  0
 44134  1  0  0  0  0
 45135  1  0  0  0  0
 46136  1  0  0  0  0
 48137  1  0  0  0  0
 49138  1  0  0  0  0
 52139  1  0  0  0  0
 52140  1  0  0  0  0
 52141  1  0  0  0  0
 53142  1  0  0  0  0
 54143  1  0  0  0  0
 61144  1  0  0  0  0
 62145  1  0  0  0  0
 65146  1  0  0  0  0
 65147  1  0  0  0  0
 65148  1  0  0  0  0
 66149  1  0  0  0  0
 67150  1  0  0  0  0
 69151  1  0  0  0  0
 70152  1  0  0  0  0
 73153  1  0  0  0  0
 73154  1  0  0  0  0
 73155  1  0  0  0  0
 74156  1  0  0  0  0
 75157  1  0  0  0  0
 81158  1  0  0  0  0
 81159  1  0  0  0  0
 82160  1  0  0  0  0
 82161  1  0  0  0  0
 82162  1  0  0  0  0
 85163  1  0  0  0  0
 85164  1  0  0  0  0
 86165  1  0  0  0  0
 86166  1  0  0  0  0
 86167  1  0  0  0  0
 88168  1  0  0  0  0
 89169  1  0  0  0  0
 90170  1  0  0  0  0
 96171  1  0  0  0  0
 97172  1  0  0  0  0
 98173  1  0  0  0  0
 99174  1  0  0  0  0
M  END
