
  xtb     02072211363D
 energy: -337.129419358129 gnorm: 0.000406174468 xtb: 6.4.1 (unknown)
203224  0     0  0            999 V2000
   -8.4591    0.6371    1.9964 C   0  0  0  0  0  0  0  0  0  0  0  0
   -9.1336    0.0185    3.0261 C   0  0  0  0  0  0  0  0  0  0  0  0
   -8.5536   -0.5201    4.2550 C   0  0  0  0  0  0  0  0  0  0  0  0
   -7.3719   -0.5829    4.5629 O   0  0  0  0  0  0  0  0  0  0  0  0
   -9.6876   -0.9569    5.0914 C   0  0  0  0  0  0  0  0  0  0  0  0
   -9.6308   -1.5471    6.3514 C   0  0  0  0  0  0  0  0  0  0  0  0
  -10.8607   -1.8404    6.8903 C   0  0  0  0  0  0  0  0  0  0  0  0
  -12.0619   -1.5651    6.2263 C   0  0  0  0  0  0  0  0  0  0  0  0
  -12.1324   -0.9888    4.9796 C   0  0  0  0  0  0  0  0  0  0  0  0
  -10.8925   -0.6867    4.4119 C   0  0  0  0  0  0  0  0  0  0  0  0
  -10.5693   -0.1073    3.1074 C   0  0  0  0  0  0  0  0  0  0  0  0
  -11.4873    0.2222    2.1382 C   0  0  0  0  0  0  0  0  0  0  0  0
  -11.1879    0.6516    0.8308 C   0  0  0  0  0  0  0  0  0  0  0  0
  -11.0407    0.9704   -0.2646 N   0  0  0  0  0  0  0  0  0  0  0  0
  -12.8847    0.1441    2.3029 C   0  0  0  0  0  0  0  0  0  0  0  0
  -14.0315    0.1252    2.3684 N   0  0  0  0  0  0  0  0  0  0  0  0
  -12.9025   -2.1297    7.3441 C   0  0  0  0  0  0  0  0  0  0  0  0
  -13.5183   -3.5363    7.1432 C   0  0  0  0  0  0  0  0  0  0  0  0
  -12.6186   -4.2635    6.1752 C   0  0  0  0  0  0  0  0  0  0  0  0
  -11.4798   -4.5279    6.8015 C   0  0  0  0  0  0  0  0  0  0  0  0
  -11.5889   -3.9840    8.2045 C   0  0  0  0  0  0  0  0  0  0  0  0
  -13.0889   -4.1988    8.4621 C   0  0  0  0  0  0  0  0  0  0  0  0
  -11.5625   -2.4402    8.0830 C   0  0  0  0  0  0  0  0  0  0  0  0
   -7.0974    0.8205    1.7771 C   0  0  0  0  0  0  0  0  0  0  0  0
   -6.5829    1.5189    0.6544 C   0  0  0  0  0  0  0  0  0  0  0  0
   -7.3058    2.2893   -0.2161 N   0  0  0  0  0  0  0  0  0  0  0  0
   -6.7655    2.5012   -1.5027 C   0  0  0  0  0  0  0  0  0  0  0  0
   -6.3978    1.4135   -2.2940 C   0  0  0  0  0  0  0  0  0  0  0  0
   -5.7890    1.6199   -3.5112 C   0  0  0  0  0  0  0  0  0  0  0  0
   -5.5345    2.9141   -3.9624 C   0  0  0  0  0  0  0  0  0  0  0  0
   -4.6771    3.0540   -5.4945 S   0  0  0  0  0  0  0  0  0  0  0  0
   -4.4669    4.8443   -5.7202 C   0  0  0  0  0  0  0  0  0  0  0  0
   -5.9464    3.9987   -3.1980 C   0  0  0  0  0  0  0  0  0  0  0  0
   -6.5598    3.7911   -1.9782 C   0  0  0  0  0  0  0  0  0  0  0  0
   -8.4130    3.0659    0.1669 C   0  0  0  0  0  0  0  0  0  0  0  0
   -9.4356    3.2988   -0.7528 C   0  0  0  0  0  0  0  0  0  0  0  0
  -10.5245    4.0625   -0.3973 C   0  0  0  0  0  0  0  0  0  0  0  0
  -10.6235    4.6014    0.8837 C   0  0  0  0  0  0  0  0  0  0  0  0
  -12.0744    5.5406    1.2315 S   0  0  0  0  0  0  0  0  0  0  0  0
  -11.9691    5.8667    3.0149 C   0  0  0  0  0  0  0  0  0  0  0  0
   -9.5949    4.3901    1.7943 C   0  0  0  0  0  0  0  0  0  0  0  0
   -8.4958    3.6366    1.4345 C   0  0  0  0  0  0  0  0  0  0  0  0
   -5.1929    1.3427    0.5507 C   0  0  0  0  0  0  0  0  0  0  0  0
   -3.9989    1.8468   -0.5978 S   0  0  0  0  0  0  0  0  0  0  0  0
   -2.7245    1.1046    0.3639 C   0  0  0  0  0  0  0  0  0  0  0  0
   -3.2253    0.4710    1.5015 C   0  0  0  0  0  0  0  0  0  0  0  0
   -2.5122   -0.1745    2.5038 N   0  0  0  0  0  0  0  0  0  0  0  0
   -3.0014    0.0637    3.8076 C   0  0  0  0  0  0  0  0  0  0  0  0
   -3.1603    1.3781    4.2399 C   0  0  0  0  0  0  0  0  0  0  0  0
   -3.7563    1.6406    5.4544 C   0  0  0  0  0  0  0  0  0  0  0  0
   -4.2040    0.5919    6.2490 C   0  0  0  0  0  0  0  0  0  0  0  0
   -5.0517    0.9811    7.7501 S   0  0  0  0  0  0  0  0  0  0  0  0
   -6.3160   -0.3268    7.7661 C   0  0  0  0  0  0  0  0  0  0  0  0
   -3.9916   -0.7209    5.8482 C   0  0  0  0  0  0  0  0  0  0  0  0
   -3.3962   -0.9844    4.6328 C   0  0  0  0  0  0  0  0  0  0  0  0
   -1.5834   -1.1829    2.2848 C   0  0  0  0  0  0  0  0  0  0  0  0
   -1.5433   -1.9009    1.0889 C   0  0  0  0  0  0  0  0  0  0  0  0
   -0.5863   -2.8766    0.8867 C   0  0  0  0  0  0  0  0  0  0  0  0
    0.3466   -3.1517    1.8750 C   0  0  0  0  0  0  0  0  0  0  0  0
    1.5944   -4.3945    1.6975 S   0  0  0  0  0  0  0  0  0  0  0  0
    2.0411   -4.2525   -0.0554 C   0  0  0  0  0  0  0  0  0  0  0  0
    0.2986   -2.4555    3.0786 C   0  0  0  0  0  0  0  0  0  0  0  0
   -0.6506   -1.4819    3.2823 C   0  0  0  0  0  0  0  0  0  0  0  0
   -4.6317    0.6201    1.5933 C   0  0  0  0  0  0  0  0  0  0  0  0
   -5.8104    0.1004    2.7500 S   0  0  0  0  0  0  0  0  0  0  0  0
   -1.4090    1.2335   -0.1460 C   0  0  0  0  0  0  0  0  0  0  0  0
   -1.0757    1.9017   -1.3245 C   0  0  0  0  0  0  0  0  0  0  0  0
   -2.0362    2.5189   -2.0873 O   0  0  0  0  0  0  0  0  0  0  0  0
   -2.1707    3.9302   -1.9115 C   0  0  0  0  0  0  0  0  0  0  0  0
   -1.2113    4.7444   -2.7683 C   0  0  0  0  0  0  0  0  0  0  0  0
    0.2925    1.8080   -1.6550 C   0  0  0  0  0  0  0  0  0  0  0  0
    0.8921    2.3429   -2.7529 O   0  0  0  0  0  0  0  0  0  0  0  0
    0.3765    1.9373   -4.0210 C   0  0  0  0  0  0  0  0  0  0  0  0
    1.1765    2.6650   -5.0875 C   0  0  0  0  0  0  0  0  0  0  0  0
    1.0166    1.0869   -0.7140 C   0  0  0  0  0  0  0  0  0  0  0  0
    0.0089    0.5677    0.5958 S   0  0  0  0  0  0  0  0  0  0  0  0
    2.3726    0.6754   -0.7943 C   0  0  0  0  0  0  0  0  0  0  0  0
    3.3080    1.0551   -1.7148 C   0  0  0  0  0  0  0  0  0  0  0  0
    4.5444    0.3835   -1.5897 C   0  0  0  0  0  0  0  0  0  0  0  0
    5.6743    0.4980   -2.4294 C   0  0  0  0  0  0  0  0  0  0  0  0
    5.7217    1.4117   -3.5527 C   0  0  0  0  0  0  0  0  0  0  0  0
    6.3774    1.2076   -4.7386 C   0  0  0  0  0  0  0  0  0  0  0  0
    6.3571    2.2728   -5.6586 C   0  0  0  0  0  0  0  0  0  0  0  0
    5.6891    3.3831   -5.2332 C   0  0  0  0  0  0  0  0  0  0  0  0
    5.4411    4.9019   -6.0696 S   0  0  0  0  0  0  0  0  0  0  0  0
    5.2811    4.3509   -7.8079 C   0  0  0  0  0  0  0  0  0  0  0  0
    4.0736    3.4582   -8.0114 C   0  0  0  0  0  0  0  0  0  0  0  0
    4.9598    3.1462   -3.5253 Se  0  0  0  0  0  2  0  0  0  0  0  0
    6.7544   -0.3305   -2.1222 C   0  0  0  0  0  0  0  0  0  0  0  0
    6.7302   -1.2646   -1.0522 C   0  0  0  0  0  0  0  0  0  0  0  0
    5.5757   -1.4182   -0.2419 C   0  0  0  0  0  0  0  0  0  0  0  0
    5.4491   -2.4498    0.7589 C   0  0  0  0  0  0  0  0  0  0  0  0
    4.7552   -2.3819    1.9375 C   0  0  0  0  0  0  0  0  0  0  0  0
    4.6439   -3.5786    2.6691 C   0  0  0  0  0  0  0  0  0  0  0  0
    5.2235   -4.6654    2.0805 C   0  0  0  0  0  0  0  0  0  0  0  0
    5.2592   -6.3322    2.5915 S   0  0  0  0  0  0  0  0  0  0  0  0
    4.0952   -6.3563    3.9988 C   0  0  0  0  0  0  0  0  0  0  0  0
    4.7508   -5.9345    5.2997 C   0  0  0  0  0  0  0  0  0  0  0  0
    6.0617   -4.2243    0.4633 Se  0  0  0  0  0  2  0  0  0  0  0  0
    4.5276   -0.5523   -0.5225 C   0  0  0  0  0  0  0  0  0  0  0  0
    2.9880   -0.5387    0.3052 S   0  0  0  0  0  0  0  0  0  0  0  0
    7.9638   -1.9125   -0.9083 C   0  0  0  0  0  0  0  0  0  0  0  0
    8.9203   -1.5306   -1.8321 C   0  0  0  0  0  0  0  0  0  0  0  0
    8.2922   -0.3303   -2.9397 S   0  0  0  0  0  0  0  0  0  0  0  0
   10.2211   -2.0733   -1.8146 C   0  0  0  0  0  0  0  0  0  0  0  0
   11.2911   -1.8473   -2.6341 C   0  0  0  0  0  0  0  0  0  0  0  0
   11.3158   -0.9614   -3.8110 C   0  0  0  0  0  0  0  0  0  0  0  0
   10.4074   -0.2828   -4.2519 O   0  0  0  0  0  0  0  0  0  0  0  0
   12.6730   -1.0628   -4.3736 C   0  0  0  0  0  0  0  0  0  0  0  0
   13.1646   -0.3956   -5.4940 C   0  0  0  0  0  0  0  0  0  0  0  0
   14.4760   -0.6832   -5.7850 C   0  0  0  0  0  0  0  0  0  0  0  0
   15.2441   -1.5672   -5.0151 C   0  0  0  0  0  0  0  0  0  0  0  0
   14.7725   -2.2290   -3.9068 C   0  0  0  0  0  0  0  0  0  0  0  0
   13.4369   -1.9542   -3.5941 C   0  0  0  0  0  0  0  0  0  0  0  0
   12.6027   -2.4573   -2.5044 C   0  0  0  0  0  0  0  0  0  0  0  0
   13.0134   -3.3407   -1.5392 C   0  0  0  0  0  0  0  0  0  0  0  0
   14.3043   -3.9057   -1.4688 C   0  0  0  0  0  0  0  0  0  0  0  0
   15.3289   -4.4093   -1.3440 N   0  0  0  0  0  0  0  0  0  0  0  0
   12.2331   -3.8252   -0.4680 C   0  0  0  0  0  0  0  0  0  0  0  0
   11.6827   -4.2713    0.4366 N   0  0  0  0  0  0  0  0  0  0  0  0
   16.4665   -1.3855   -5.8802 C   0  0  0  0  0  0  0  0  0  0  0  0
   16.7829   -2.5221   -6.8750 C   0  0  0  0  0  0  0  0  0  0  0  0
   17.7026   -1.8735   -7.8843 C   0  0  0  0  0  0  0  0  0  0  0  0
   16.9752   -1.0376   -8.6143 C   0  0  0  0  0  0  0  0  0  0  0  0
   15.5515   -1.1071   -8.1106 C   0  0  0  0  0  0  0  0  0  0  0  0
   15.4895   -2.5835   -7.6980 C   0  0  0  0  0  0  0  0  0  0  0  0
   15.6099   -0.4008   -6.7393 C   0  0  0  0  0  0  0  0  0  0  0  0
   -9.0828    1.0484    1.2134 H   0  0  0  0  0  0  0  0  0  0  0  0
   -8.6870   -1.7497    6.8327 H   0  0  0  0  0  0  0  0  0  0  0  0
  -13.0651   -0.7876    4.4802 H   0  0  0  0  0  0  0  0  0  0  0  0
  -13.5961   -1.4368    7.8165 H   0  0  0  0  0  0  0  0  0  0  0  0
  -14.5784   -3.5349    6.9047 H   0  0  0  0  0  0  0  0  0  0  0  0
  -12.8728   -4.4535    5.1488 H   0  0  0  0  0  0  0  0  0  0  0  0
  -10.5920   -4.9830    6.4025 H   0  0  0  0  0  0  0  0  0  0  0  0
  -10.8927   -4.3917    8.9331 H   0  0  0  0  0  0  0  0  0  0  0  0
  -13.4556   -3.6809    9.3473 H   0  0  0  0  0  0  0  0  0  0  0  0
  -13.3612   -5.2520    8.5127 H   0  0  0  0  0  0  0  0  0  0  0  0
  -11.3829   -1.9522    9.0394 H   0  0  0  0  0  0  0  0  0  0  0  0
   -6.5835    0.4111   -1.9388 H   0  0  0  0  0  0  0  0  0  0  0  0
   -5.4907    0.7827   -4.1228 H   0  0  0  0  0  0  0  0  0  0  0  0
   -5.4360    5.3254   -5.8150 H   0  0  0  0  0  0  0  0  0  0  0  0
   -3.8975    5.2591   -4.8934 H   0  0  0  0  0  0  0  0  0  0  0  0
   -3.9101    4.9578   -6.6453 H   0  0  0  0  0  0  0  0  0  0  0  0
   -5.7851    5.0111   -3.5318 H   0  0  0  0  0  0  0  0  0  0  0  0
   -6.8626    4.6358   -1.3771 H   0  0  0  0  0  0  0  0  0  0  0  0
   -9.3771    2.8641   -1.7379 H   0  0  0  0  0  0  0  0  0  0  0  0
  -11.3231    4.2314   -1.1019 H   0  0  0  0  0  0  0  0  0  0  0  0
  -11.1326    6.5255    3.2295 H   0  0  0  0  0  0  0  0  0  0  0  0
  -12.9002    6.3601    3.2755 H   0  0  0  0  0  0  0  0  0  0  0  0
  -11.8846    4.9291    3.5564 H   0  0  0  0  0  0  0  0  0  0  0  0
   -9.6298    4.8155    2.7843 H   0  0  0  0  0  0  0  0  0  0  0  0
   -7.6976    3.4852    2.1462 H   0  0  0  0  0  0  0  0  0  0  0  0
   -2.8375    2.1885    3.6026 H   0  0  0  0  0  0  0  0  0  0  0  0
   -3.9001    2.6566    5.7882 H   0  0  0  0  0  0  0  0  0  0  0  0
   -5.9176   -1.2353    8.2095 H   0  0  0  0  0  0  0  0  0  0  0  0
   -6.6390   -0.4921    6.7418 H   0  0  0  0  0  0  0  0  0  0  0  0
   -7.1355    0.0489    8.3714 H   0  0  0  0  0  0  0  0  0  0  0  0
   -4.3094   -1.5420    6.4704 H   0  0  0  0  0  0  0  0  0  0  0  0
   -3.2581   -2.0036    4.3045 H   0  0  0  0  0  0  0  0  0  0  0  0
   -2.2707   -1.6955    0.3172 H   0  0  0  0  0  0  0  0  0  0  0  0
   -0.5773   -3.4215   -0.0446 H   0  0  0  0  0  0  0  0  0  0  0  0
    3.0063   -4.7397   -0.1619 H   0  0  0  0  0  0  0  0  0  0  0  0
    2.1244   -3.2005   -0.3098 H   0  0  0  0  0  0  0  0  0  0  0  0
    1.3061   -4.7544   -0.6781 H   0  0  0  0  0  0  0  0  0  0  0  0
    1.0237   -2.6784    3.8457 H   0  0  0  0  0  0  0  0  0  0  0  0
   -0.6685   -0.9287    4.2087 H   0  0  0  0  0  0  0  0  0  0  0  0
   -3.2075    4.1376   -2.1936 H   0  0  0  0  0  0  0  0  0  0  0  0
   -2.0413    4.1825   -0.8519 H   0  0  0  0  0  0  0  0  0  0  0  0
   -1.3758    4.5334   -3.8224 H   0  0  0  0  0  0  0  0  0  0  0  0
   -0.1785    4.5124   -2.5211 H   0  0  0  0  0  0  0  0  0  0  0  0
   -1.3839    5.8028   -2.5893 H   0  0  0  0  0  0  0  0  0  0  0  0
    0.4984    0.8501   -4.1236 H   0  0  0  0  0  0  0  0  0  0  0  0
   -0.6904    2.1738   -4.0950 H   0  0  0  0  0  0  0  0  0  0  0  0
    0.8306    2.3685   -6.0736 H   0  0  0  0  0  0  0  0  0  0  0  0
    2.2331    2.4210   -4.9902 H   0  0  0  0  0  0  0  0  0  0  0  0
    1.0628    3.7398   -4.9738 H   0  0  0  0  0  0  0  0  0  0  0  0
    3.0768    1.7812   -2.4727 H   0  0  0  0  0  0  0  0  0  0  0  0
    6.8618    0.2772   -4.9786 H   0  0  0  0  0  0  0  0  0  0  0  0
    6.8450    2.2064   -6.6157 H   0  0  0  0  0  0  0  0  0  0  0  0
    5.1858    5.2805   -8.3682 H   0  0  0  0  0  0  0  0  0  0  0  0
    6.2086    3.8580   -8.0950 H   0  0  0  0  0  0  0  0  0  0  0  0
    4.1702    2.5439   -7.4289 H   0  0  0  0  0  0  0  0  0  0  0  0
    3.9838    3.1924   -9.0627 H   0  0  0  0  0  0  0  0  0  0  0  0
    3.1666    3.9718   -7.7005 H   0  0  0  0  0  0  0  0  0  0  0  0
    4.3492   -1.4590    2.3157 H   0  0  0  0  0  0  0  0  0  0  0  0
    4.1185   -3.6179    3.6058 H   0  0  0  0  0  0  0  0  0  0  0  0
    3.7646   -7.3935    4.0511 H   0  0  0  0  0  0  0  0  0  0  0  0
    3.2482   -5.7282    3.7263 H   0  0  0  0  0  0  0  0  0  0  0  0
    5.1478   -4.9244    5.2307 H   0  0  0  0  0  0  0  0  0  0  0  0
    5.5707   -6.6058    5.5443 H   0  0  0  0  0  0  0  0  0  0  0  0
    4.0207   -5.9679    6.1062 H   0  0  0  0  0  0  0  0  0  0  0  0
    8.1850   -2.6209   -0.1270 H   0  0  0  0  0  0  0  0  0  0  0  0
   10.3637   -2.7812   -1.0070 H   0  0  0  0  0  0  0  0  0  0  0  0
   12.5383    0.2822   -6.0527 H   0  0  0  0  0  0  0  0  0  0  0  0
   15.3805   -2.9008   -3.3248 H   0  0  0  0  0  0  0  0  0  0  0  0
   17.3515   -1.0026   -5.3757 H   0  0  0  0  0  0  0  0  0  0  0  0
   17.1303   -3.4441   -6.4170 H   0  0  0  0  0  0  0  0  0  0  0  0
   18.7626   -2.0421   -7.9252 H   0  0  0  0  0  0  0  0  0  0  0  0
   17.3064   -0.3683   -9.3866 H   0  0  0  0  0  0  0  0  0  0  0  0
   14.7774   -0.7406   -8.7796 H   0  0  0  0  0  0  0  0  0  0  0  0
   15.5767   -3.2534   -8.5518 H   0  0  0  0  0  0  0  0  0  0  0  0
   14.6065   -2.8457   -7.1181 H   0  0  0  0  0  0  0  0  0  0  0  0
   15.9246    0.6388   -6.8091 H   0  0  0  0  0  0  0  0  0  0  0  0
  1  2  2  0  0  0  0
  2  3  1  0  0  0  0
  3  4  2  0  0  0  0
  3  5  1  0  0  0  0
  5  6  2  0  0  0  0
  6  7  1  0  0  0  0
  7  8  2  0  0  0  0
  8  9  1  0  0  0  0
  9 10  2  0  0  0  0
 10 11  1  0  0  0  0
 11 12  2  0  0  0  0
 12 13  1  0  0  0  0
 13 14  3  0  0  0  0
 12 15  1  0  0  0  0
 15 16  3  0  0  0  0
  8 17  1  0  0  0  0
 17 18  1  0  0  0  0
 18 19  1  0  0  0  0
 19 20  2  0  0  0  0
 20 21  1  0  0  0  0
 21 22  1  0  0  0  0
 21 23  1  0  0  0  0
  1 24  1  0  0  0  0
 24 25  2  0  0  0  0
 25 26  1  0  0  0  0
 26 27  1  0  0  0  0
 27 28  2  0  0  0  0
 28 29  1  0  0  0  0
 29 30  2  0  0  0  0
 30 31  1  0  0  0  0
 31 32  1  0  0  0  0
 30 33  1  0  0  0  0
 33 34  2  0  0  0  0
 26 35  1  0  0  0  0
 35 36  2  0  0  0  0
 36 37  1  0  0  0  0
 37 38  2  0  0  0  0
 38 39  1  0  0  0  0
 39 40  1  0  0  0  0
 38 41  1  0  0  0  0
 41 42  2  0  0  0  0
 25 43  1  0  0  0  0
 43 44  1  0  0  0  0
 44 45  1  0  0  0  0
 45 46  2  0  0  0  0
 46 47  1  0  0  0  0
 47 48  1  0  0  0  0
 48 49  2  0  0  0  0
 49 50  1  0  0  0  0
 50 51  2  0  0  0  0
 51 52  1  0  0  0  0
 52 53  1  0  0  0  0
 51 54  1  0  0  0  0
 54 55  2  0  0  0  0
 47 56  1  0  0  0  0
 56 57  2  0  0  0  0
 57 58  1  0  0  0  0
 58 59  2  0  0  0  0
 59 60  1  0  0  0  0
 60 61  1  0  0  0  0
 59 62  1  0  0  0  0
 62 63  2  0  0  0  0
 46 64  1  0  0  0  0
 64 65  1  0  0  0  0
 45 66  1  0  0  0  0
 66 67  2  0  0  0  0
 67 68  1  0  0  0  0
 68 69  1  0  0  0  0
 69 70  1  0  0  0  0
 67 71  1  0  0  0  0
 71 72  1  0  0  0  0
 72 73  1  0  0  0  0
 73 74  1  0  0  0  0
 71 75  2  0  0  0  0
 75 76  1  0  0  0  0
 75 77  1  0  0  0  0
 77 78  2  0  0  0  0
 78 79  1  0  0  0  0
 79 80  2  0  0  0  0
 80 81  1  0  0  0  0
 81 82  2  0  0  0  0
 82 83  1  0  0  0  0
 83 84  2  0  0  0  0
 84 85  1  0  0  0  0
 85 86  1  0  0  0  0
 86 87  1  0  0  0  0
 84 88  1  0  0  0  0
 80 89  1  0  0  0  0
 89 90  2  0  0  0  0
 90 91  1  0  0  0  0
 91 92  1  0  0  0  0
 92 93  2  0  0  0  0
 93 94  1  0  0  0  0
 94 95  2  0  0  0  0
 95 96  1  0  0  0  0
 96 97  1  0  0  0  0
 97 98  1  0  0  0  0
 95 99  1  0  0  0  0
 91100  2  0  0  0  0
100101  1  0  0  0  0
 90102  1  0  0  0  0
102103  2  0  0  0  0
103104  1  0  0  0  0
103105  1  0  0  0  0
105106  2  0  0  0  0
106107  1  0  0  0  0
107108  2  0  0  0  0
107109  1  0  0  0  0
109110  2  0  0  0  0
110111  1  0  0  0  0
111112  2  0  0  0  0
112113  1  0  0  0  0
113114  2  0  0  0  0
114115  1  0  0  0  0
115116  2  0  0  0  0
116117  1  0  0  0  0
117118  3  0  0  0  0
116119  1  0  0  0  0
119120  3  0  0  0  0
112121  1  0  0  0  0
121122  1  0  0  0  0
122123  1  0  0  0  0
123124  2  0  0  0  0
124125  1  0  0  0  0
125126  1  0  0  0  0
125127  1  0  0  0  0
 11  2  1  0  0  0  0
 23 17  1  0  0  0  0
 65 24  1  0  0  0  0
 76 66  1  0  0  0  0
101 77  1  0  0  0  0
115106  1  0  0  0  0
127121  1  0  0  0  0
 10  5  1  0  0  0  0
 22 18  1  0  0  0  0
 34 27  1  0  0  0  0
 42 35  1  0  0  0  0
 64 43  2  0  0  0  0
100 79  1  0  0  0  0
114109  1  0  0  0  0
126122  1  0  0  0  0
 23  7  1  0  0  0  0
 55 48  1  0  0  0  0
 63 56  1  0  0  0  0
 88 81  1  0  0  0  0
104 89  1  0  0  0  0
127111  1  0  0  0  0
 99 92  1  0  0  0  0
  1128  1  0  0  0  0
  6129  1  0  0  0  0
  9130  1  0  0  0  0
 17131  1  0  0  0  0
 18132  1  0  0  0  0
 19133  1  0  0  0  0
 20134  1  0  0  0  0
 21135  1  0  0  0  0
 22136  1  0  0  0  0
 22137  1  0  0  0  0
 23138  1  0  0  0  0
 28139  1  0  0  0  0
 29140  1  0  0  0  0
 32141  1  0  0  0  0
 32142  1  0  0  0  0
 32143  1  0  0  0  0
 33144  1  0  0  0  0
 34145  1  0  0  0  0
 36146  1  0  0  0  0
 37147  1  0  0  0  0
 40148  1  0  0  0  0
 40149  1  0  0  0  0
 40150  1  0  0  0  0
 41151  1  0  0  0  0
 42152  1  0  0  0  0
 49153  1  0  0  0  0
 50154  1  0  0  0  0
 53155  1  0  0  0  0
 53156  1  0  0  0  0
 53157  1  0  0  0  0
 54158  1  0  0  0  0
 55159  1  0  0  0  0
 57160  1  0  0  0  0
 58161  1  0  0  0  0
 61162  1  0  0  0  0
 61163  1  0  0  0  0
 61164  1  0  0  0  0
 62165  1  0  0  0  0
 63166  1  0  0  0  0
 69167  1  0  0  0  0
 69168  1  0  0  0  0
 70169  1  0  0  0  0
 70170  1  0  0  0  0
 70171  1  0  0  0  0
 73172  1  0  0  0  0
 73173  1  0  0  0  0
 74174  1  0  0  0  0
 74175  1  0  0  0  0
 74176  1  0  0  0  0
 78177  1  0  0  0  0
 82178  1  0  0  0  0
 83179  1  0  0  0  0
 86180  1  0  0  0  0
 86181  1  0  0  0  0
 87182  1  0  0  0  0
 87183  1  0  0  0  0
 87184  1  0  0  0  0
 93185  1  0  0  0  0
 94186  1  0  0  0  0
 97187  1  0  0  0  0
 97188  1  0  0  0  0
 98189  1  0  0  0  0
 98190  1  0  0  0  0
 98191  1  0  0  0  0
102192  1  0  0  0  0
105193  1  0  0  0  0
110194  1  0  0  0  0
113195  1  0  0  0  0
121196  1  0  0  0  0
122197  1  0  0  0  0
123198  1  0  0  0  0
124199  1  0  0  0  0
125200  1  0  0  0  0
126201  1  0  0  0  0
126202  1  0  0  0  0
127203  1  0  0  0  0
M  END
