
  xtb     02042203313D
 energy: -238.955151462538 gnorm: 0.000987011832 xtb: 6.4.1 (unknown)
137151  0     0  0            999 V2000
    3.8278    4.5111   -0.7011 C   0  0  0  0  0  0  0  0  0  0  0  0
    4.1735    4.7755   -1.9997 C   0  0  0  0  0  0  0  0  0  0  0  0
    3.9843    3.8242   -3.1136 C   0  0  0  0  0  0  0  0  0  0  0  0
    3.5756    2.6781   -3.0521 O   0  0  0  0  0  0  0  0  0  0  0  0
    4.5714    4.4676   -4.3022 C   0  0  0  0  0  0  0  0  0  0  0  0
    4.5920    3.9678   -5.6021 C   0  0  0  0  0  0  0  0  0  0  0  0
    5.2296    4.7845   -6.5049 C   0  0  0  0  0  0  0  0  0  0  0  0
    5.8175    6.0023   -6.1398 C   0  0  0  0  0  0  0  0  0  0  0  0
    5.8106    6.5033   -4.8593 C   0  0  0  0  0  0  0  0  0  0  0  0
    5.1563    5.6940   -3.9270 C   0  0  0  0  0  0  0  0  0  0  0  0
    4.9278    5.9016   -2.4975 C   0  0  0  0  0  0  0  0  0  0  0  0
    5.3009    7.0098   -1.7791 C   0  0  0  0  0  0  0  0  0  0  0  0
    6.0310    8.0946   -2.3037 C   0  0  0  0  0  0  0  0  0  0  0  0
    6.6313    9.0061   -2.6614 N   0  0  0  0  0  0  0  0  0  0  0  0
    4.9970    7.2309   -0.4197 C   0  0  0  0  0  0  0  0  0  0  0  0
    4.7804    7.5016    0.6754 N   0  0  0  0  0  0  0  0  0  0  0  0
    6.2707    6.2972   -7.5480 C   0  0  0  0  0  0  0  0  0  0  0  0
    5.4566    7.3321   -8.3634 C   0  0  0  0  0  0  0  0  0  0  0  0
    4.0560    7.3135   -7.8035 C   0  0  0  0  0  0  0  0  0  0  0  0
    3.4970    6.1616   -8.1493 C   0  0  0  0  0  0  0  0  0  0  0  0
    4.5095    5.3805   -8.9497 C   0  0  0  0  0  0  0  0  0  0  0  0
    5.2412    6.5318   -9.6579 C   0  0  0  0  0  0  0  0  0  0  0  0
    5.6126    4.9411   -7.9553 C   0  0  0  0  0  0  0  0  0  0  0  0
    2.8762    3.5413   -0.3115 C   0  0  0  0  0  0  0  0  0  0  0  0
    2.9410    2.9026    0.9461 C   0  0  0  0  0  0  0  0  0  0  0  0
    2.0404    1.8366    1.3171 C   0  0  0  0  0  0  0  0  0  0  0  0
    2.3252    1.3485    2.5235 N   0  0  0  0  0  0  0  0  0  0  0  0
    3.5774    2.1539    3.1389 S   0  0  0  0  0  4  0  0  0  0  0  0
    3.8436    3.1373    1.8981 N   0  0  0  0  0  0  0  0  0  0  0  0
    1.0162    1.3513    0.4659 C   0  0  0  0  0  0  0  0  0  0  0  0
    0.8311    2.1282   -0.7010 C   0  0  0  0  0  0  0  0  0  0  0  0
   -0.2061    2.0487   -1.5365 N   0  0  0  0  0  0  0  0  0  0  0  0
   -0.0547    3.1790   -2.6691 S   0  0  0  0  0  0  0  0  0  0  0  0
    1.3212    3.8306   -2.1669 N   0  0  0  0  0  0  0  0  0  0  0  0
    1.7424    3.1883   -1.0808 C   0  0  0  0  0  0  0  0  0  0  0  0
    0.2531    0.2240    0.8510 C   0  0  0  0  0  0  0  0  0  0  0  0
   -0.5980   -0.6225    0.1185 C   0  0  0  0  0  0  0  0  0  0  0  0
   -0.7804   -0.6874   -1.2425 N   0  0  0  0  0  0  0  0  0  0  0  0
    0.2146   -0.4421   -2.1848 C   0  0  0  0  0  0  0  0  0  0  0  0
    1.5680   -0.5896   -1.8819 C   0  0  0  0  0  0  0  0  0  0  0  0
    2.5381   -0.3453   -2.8316 C   0  0  0  0  0  0  0  0  0  0  0  0
    2.1772    0.0413   -4.1168 C   0  0  0  0  0  0  0  0  0  0  0  0
    3.3164    0.3511   -5.4123 S   0  0  0  0  0  0  0  0  0  0  0  0
    4.9342    0.3104   -4.5975 C   0  0  0  0  0  0  0  0  0  0  0  0
    0.8232    0.1690   -4.4327 C   0  0  0  0  0  0  0  0  0  0  0  0
   -0.1426   -0.0714   -3.4863 C   0  0  0  0  0  0  0  0  0  0  0  0
   -2.0364   -1.1536   -1.6821 C   0  0  0  0  0  0  0  0  0  0  0  0
   -3.2035   -0.5802   -1.1771 C   0  0  0  0  0  0  0  0  0  0  0  0
   -4.4326   -1.0896   -1.5304 C   0  0  0  0  0  0  0  0  0  0  0  0
   -4.5217   -2.1788   -2.3966 C   0  0  0  0  0  0  0  0  0  0  0  0
   -6.1414   -2.8002   -2.7105 S   0  0  0  0  0  0  0  0  0  0  0  0
   -5.8979   -4.0190   -4.0349 C   0  0  0  0  0  0  0  0  0  0  0  0
   -3.3626   -2.7239   -2.9343 C   0  0  0  0  0  0  0  0  0  0  0  0
   -2.1301   -2.2128   -2.5790 C   0  0  0  0  0  0  0  0  0  0  0  0
   -1.2483   -1.5345    0.9875 C   0  0  0  0  0  0  0  0  0  0  0  0
   -2.4216   -2.7845    0.7481 S   0  0  0  0  0  0  0  0  0  0  0  0
   -2.3867   -3.1803    2.4631 C   0  0  0  0  0  0  0  0  0  0  0  0
   -1.5316   -2.3529    3.1835 C   0  0  0  0  0  0  0  0  0  0  0  0
   -1.3763   -2.3250    4.5525 N   0  0  0  0  0  0  0  0  0  0  0  0
   -0.1557   -1.8594    5.0725 C   0  0  0  0  0  0  0  0  0  0  0  0
   -0.1351   -0.9316    6.1127 C   0  0  0  0  0  0  0  0  0  0  0  0
    1.0629   -0.4127    6.5480 C   0  0  0  0  0  0  0  0  0  0  0  0
    2.2628   -0.8089    5.9587 C   0  0  0  0  0  0  0  0  0  0  0  0
    3.7285   -0.0236    6.5467 S   0  0  0  0  0  0  0  0  0  0  0  0
    4.9941   -0.5298    5.3471 C   0  0  0  0  0  0  0  0  0  0  0  0
    2.2498   -1.7774    4.9654 C   0  0  0  0  0  0  0  0  0  0  0  0
    1.0474   -2.2977    4.5280 C   0  0  0  0  0  0  0  0  0  0  0  0
   -2.4258   -2.6542    5.4213 C   0  0  0  0  0  0  0  0  0  0  0  0
   -3.7491   -2.3347    5.1093 C   0  0  0  0  0  0  0  0  0  0  0  0
   -4.7779   -2.8013    5.8948 C   0  0  0  0  0  0  0  0  0  0  0  0
   -4.5124   -3.5751    7.0254 C   0  0  0  0  0  0  0  0  0  0  0  0
   -5.9140   -4.2016    7.8916 S   0  0  0  0  0  0  0  0  0  0  0  0
   -5.2012   -5.3388    9.1134 C   0  0  0  0  0  0  0  0  0  0  0  0
   -3.1934   -3.8113    7.3917 C   0  0  0  0  0  0  0  0  0  0  0  0
   -2.1614   -3.3584    6.5930 C   0  0  0  0  0  0  0  0  0  0  0  0
   -0.8774   -1.4390    2.3165 C   0  0  0  0  0  0  0  0  0  0  0  0
    0.3217   -0.2166    2.5561 S   0  0  0  0  0  0  0  0  0  0  0  0
   -3.2846   -4.1957    2.9031 C   0  0  0  0  0  0  0  0  0  0  0  0
   -4.5348   -4.4224    2.3761 C   0  0  0  0  0  0  0  0  0  0  0  0
   -5.2755   -5.3986    3.0576 C   0  0  0  0  0  0  0  0  0  0  0  0
   -6.8461   -5.9790    2.5699 S   0  0  0  0  0  0  0  0  0  0  0  0
   -7.0907   -5.2320    0.9177 C   0  0  0  0  0  0  0  0  0  0  0  0
   -6.1954   -5.8270   -0.1512 C   0  0  0  0  0  0  0  0  0  0  0  0
   -4.5772   -5.9361    4.1399 C   0  0  0  0  0  0  0  0  0  0  0  0
   -2.9406   -5.3043    4.1884 S   0  0  0  0  0  0  0  0  0  0  0  0
   -4.9377   -6.7994    5.1944 C   0  0  0  0  0  0  0  0  0  0  0  0
   -6.1690   -6.9978    5.7539 C   0  0  0  0  0  0  0  0  0  0  0  0
   -7.3501   -6.2878    5.4660 C   0  0  0  0  0  0  0  0  0  0  0  0
   -8.3277   -5.7036    5.3231 N   0  0  0  0  0  0  0  0  0  0  0  0
   -6.2904   -7.8912    6.8394 C   0  0  0  0  0  0  0  0  0  0  0  0
   -6.3673   -8.6047    7.7350 N   0  0  0  0  0  0  0  0  0  0  0  0
    4.3201    5.0329    0.1097 H   0  0  0  0  0  0  0  0  0  0  0  0
    4.1236    3.0266   -5.8461 H   0  0  0  0  0  0  0  0  0  0  0  0
    6.2722    7.4396   -4.5936 H   0  0  0  0  0  0  0  0  0  0  0  0
    7.3438    6.4074   -7.6919 H   0  0  0  0  0  0  0  0  0  0  0  0
    5.9260    8.3083   -8.4498 H   0  0  0  0  0  0  0  0  0  0  0  0
    3.6492    8.0903   -7.1829 H   0  0  0  0  0  0  0  0  0  0  0  0
    2.5299    5.7829   -7.8747 H   0  0  0  0  0  0  0  0  0  0  0  0
    4.1166    4.5794   -9.5704 H   0  0  0  0  0  0  0  0  0  0  0  0
    6.1696    6.2258  -10.1384 H   0  0  0  0  0  0  0  0  0  0  0  0
    4.6102    7.0537  -10.3759 H   0  0  0  0  0  0  0  0  0  0  0  0
    6.2562    4.1656   -8.3668 H   0  0  0  0  0  0  0  0  0  0  0  0
    1.8662   -0.9076   -0.8941 H   0  0  0  0  0  0  0  0  0  0  0  0
    3.5734   -0.4605   -2.5572 H   0  0  0  0  0  0  0  0  0  0  0  0
    4.9229    1.0270   -3.7812 H   0  0  0  0  0  0  0  0  0  0  0  0
    5.6574    0.6088   -5.3505 H   0  0  0  0  0  0  0  0  0  0  0  0
    5.1551   -0.6953   -4.2518 H   0  0  0  0  0  0  0  0  0  0  0  0
    0.5444    0.4699   -5.4311 H   0  0  0  0  0  0  0  0  0  0  0  0
   -1.1843    0.0625   -3.7336 H   0  0  0  0  0  0  0  0  0  0  0  0
   -3.1304    0.2603   -0.5037 H   0  0  0  0  0  0  0  0  0  0  0  0
   -5.3387   -0.6561   -1.1363 H   0  0  0  0  0  0  0  0  0  0  0  0
   -5.4267   -3.5428   -4.8893 H   0  0  0  0  0  0  0  0  0  0  0  0
   -6.8931   -4.3585   -4.3049 H   0  0  0  0  0  0  0  0  0  0  0  0
   -5.3087   -4.8570   -3.6735 H   0  0  0  0  0  0  0  0  0  0  0  0
   -3.4025   -3.5591   -3.6140 H   0  0  0  0  0  0  0  0  0  0  0  0
   -1.2295   -2.6522   -2.9812 H   0  0  0  0  0  0  0  0  0  0  0  0
   -1.0646   -0.6059    6.5550 H   0  0  0  0  0  0  0  0  0  0  0  0
    1.0842    0.3242    7.3359 H   0  0  0  0  0  0  0  0  0  0  0  0
    4.6459   -0.3161    4.3408 H   0  0  0  0  0  0  0  0  0  0  0  0
    5.2306   -1.5828    5.4709 H   0  0  0  0  0  0  0  0  0  0  0  0
    5.8698    0.0706    5.5728 H   0  0  0  0  0  0  0  0  0  0  0  0
    3.1641   -2.1339    4.5203 H   0  0  0  0  0  0  0  0  0  0  0  0
    1.0377   -3.0465    3.7494 H   0  0  0  0  0  0  0  0  0  0  0  0
   -3.9654   -1.7406    4.2340 H   0  0  0  0  0  0  0  0  0  0  0  0
   -5.8040   -2.5860    5.6390 H   0  0  0  0  0  0  0  0  0  0  0  0
   -4.6523   -4.7841    9.8688 H   0  0  0  0  0  0  0  0  0  0  0  0
   -4.5677   -6.0687    8.6181 H   0  0  0  0  0  0  0  0  0  0  0  0
   -6.0481   -5.8440    9.5674 H   0  0  0  0  0  0  0  0  0  0  0  0
   -2.9561   -4.3678    8.2834 H   0  0  0  0  0  0  0  0  0  0  0  0
   -1.1386   -3.5778    6.8603 H   0  0  0  0  0  0  0  0  0  0  0  0
   -4.9068   -3.8327    1.5584 H   0  0  0  0  0  0  0  0  0  0  0  0
   -6.9715   -4.1535    1.0061 H   0  0  0  0  0  0  0  0  0  0  0  0
   -8.1381   -5.4476    0.7069 H   0  0  0  0  0  0  0  0  0  0  0  0
   -6.4189   -5.3541   -1.1053 H   0  0  0  0  0  0  0  0  0  0  0  0
   -5.1440   -5.6659    0.0776 H   0  0  0  0  0  0  0  0  0  0  0  0
   -6.3700   -6.8968   -0.2385 H   0  0  0  0  0  0  0  0  0  0  0  0
   -4.1060   -7.3064    5.6729 H   0  0  0  0  0  0  0  0  0  0  0  0
  1  2  2  0  0  0  0
  2  3  1  0  0  0  0
  3  4  2  0  0  0  0
  3  5  1  0  0  0  0
  5  6  2  0  0  0  0
  6  7  1  0  0  0  0
  7  8  2  0  0  0  0
  8  9  1  0  0  0  0
  9 10  2  0  0  0  0
 10 11  1  0  0  0  0
 11 12  2  0  0  0  0
 12 13  1  0  0  0  0
 13 14  3  0  0  0  0
 12 15  1  0  0  0  0
 15 16  3  0  0  0  0
  8 17  1  0  0  0  0
 17 18  1  0  0  0  0
 18 19  1  0  0  0  0
 19 20  2  0  0  0  0
 20 21  1  0  0  0  0
 21 22  1  0  0  0  0
 21 23  1  0  0  0  0
  1 24  1  0  0  0  0
 24 25  2  0  0  0  0
 25 26  1  0  0  0  0
 26 27  1  0  0  0  0
 27 28  2  0  0  0  0
 28 29  2  0  0  0  0
 26 30  2  0  0  0  0
 30 31  1  0  0  0  0
 31 32  2  0  0  0  0
 32 33  1  0  0  0  0
 33 34  1  0  0  0  0
 34 35  2  0  0  0  0
 30 36  1  0  0  0  0
 36 37  2  0  0  0  0
 37 38  1  0  0  0  0
 38 39  1  0  0  0  0
 39 40  2  0  0  0  0
 40 41  1  0  0  0  0
 41 42  2  0  0  0  0
 42 43  1  0  0  0  0
 43 44  1  0  0  0  0
 42 45  1  0  0  0  0
 45 46  2  0  0  0  0
 38 47  1  0  0  0  0
 47 48  2  0  0  0  0
 48 49  1  0  0  0  0
 49 50  2  0  0  0  0
 50 51  1  0  0  0  0
 51 52  1  0  0  0  0
 50 53  1  0  0  0  0
 53 54  2  0  0  0  0
 37 55  1  0  0  0  0
 55 56  1  0  0  0  0
 56 57  1  0  0  0  0
 57 58  2  0  0  0  0
 58 59  1  0  0  0  0
 59 60  1  0  0  0  0
 60 61  2  0  0  0  0
 61 62  1  0  0  0  0
 62 63  2  0  0  0  0
 63 64  1  0  0  0  0
 64 65  1  0  0  0  0
 63 66  1  0  0  0  0
 66 67  2  0  0  0  0
 59 68  1  0  0  0  0
 68 69  2  0  0  0  0
 69 70  1  0  0  0  0
 70 71  2  0  0  0  0
 71 72  1  0  0  0  0
 72 73  1  0  0  0  0
 71 74  1  0  0  0  0
 74 75  2  0  0  0  0
 58 76  1  0  0  0  0
 76 77  1  0  0  0  0
 57 78  1  0  0  0  0
 78 79  2  0  0  0  0
 79 80  1  0  0  0  0
 80 81  1  0  0  0  0
 81 82  1  0  0  0  0
 82 83  1  0  0  0  0
 80 84  2  0  0  0  0
 84 85  1  0  0  0  0
 84 86  1  0  0  0  0
 86 87  2  0  0  0  0
 87 88  1  0  0  0  0
 88 89  3  0  0  0  0
 87 90  1  0  0  0  0
 90 91  3  0  0  0  0
 11  2  1  0  0  0  0
 23 17  1  0  0  0  0
 35 24  1  0  0  0  0
 77 36  1  0  0  0  0
 85 78  1  0  0  0  0
 10  5  1  0  0  0  0
 22 18  1  0  0  0  0
 29 25  1  0  0  0  0
 35 31  1  0  0  0  0
 46 39  1  0  0  0  0
 54 47  1  0  0  0  0
 76 55  2  0  0  0  0
 23  7  1  0  0  0  0
 67 60  1  0  0  0  0
 75 68  1  0  0  0  0
  1 92  1  0  0  0  0
  6 93  1  0  0  0  0
  9 94  1  0  0  0  0
 17 95  1  0  0  0  0
 18 96  1  0  0  0  0
 19 97  1  0  0  0  0
 20 98  1  0  0  0  0
 21 99  1  0  0  0  0
 22100  1  0  0  0  0
 22101  1  0  0  0  0
 23102  1  0  0  0  0
 40103  1  0  0  0  0
 41104  1  0  0  0  0
 44105  1  0  0  0  0
 44106  1  0  0  0  0
 44107  1  0  0  0  0
 45108  1  0  0  0  0
 46109  1  0  0  0  0
 48110  1  0  0  0  0
 49111  1  0  0  0  0
 52112  1  0  0  0  0
 52113  1  0  0  0  0
 52114  1  0  0  0  0
 53115  1  0  0  0  0
 54116  1  0  0  0  0
 61117  1  0  0  0  0
 62118  1  0  0  0  0
 65119  1  0  0  0  0
 65120  1  0  0  0  0
 65121  1  0  0  0  0
 66122  1  0  0  0  0
 67123  1  0  0  0  0
 69124  1  0  0  0  0
 70125  1  0  0  0  0
 73126  1  0  0  0  0
 73127  1  0  0  0  0
 73128  1  0  0  0  0
 74129  1  0  0  0  0
 75130  1  0  0  0  0
 79131  1  0  0  0  0
 82132  1  0  0  0  0
 82133  1  0  0  0  0
 83134  1  0  0  0  0
 83135  1  0  0  0  0
 83136  1  0  0  0  0
 86137  1  0  0  0  0
M  END
