173

C          5.10540        1.34640        0.87010
C          6.10710        1.13280       -0.05080
C          5.87020        0.71830       -1.44320
O          4.79650        0.56530       -1.99620
C          7.20170        0.39610       -1.99690
C          7.49110       -0.04500       -3.28450
C          8.83060       -0.25160       -3.51690
C          9.81060       -0.04450       -2.53870
C          9.53820        0.39080       -1.26280
C          8.18280        0.61040       -1.00940
C          7.52080        1.09800        0.19740
C          8.14440        1.59870        1.31460
C          9.53670        1.62150        1.51680
N         10.65910        1.68700        1.75400
C          7.46540        2.24190        2.36710
N          6.99260        2.83130        3.23350
C         10.93160       -0.46310       -3.45760
C         11.50130       -1.88230       -3.24940
C         12.21180       -2.18060       -4.54990
C         11.28590       -2.36960       -5.48130
C          9.93410       -2.20300       -4.82580
C         10.24930       -2.75090       -3.42800
C          9.83900       -0.68720       -4.55180
C          3.78660        1.70640        0.57580
C          3.23150        2.38480       -0.53050
N          3.92280        3.03060       -1.51650
C          5.22930        3.50090       -1.32730
C          6.17550        3.36310       -2.34520
C          7.47960        3.75340       -2.13730
C          7.87060        4.30100       -0.91590
S          9.57960        4.67670       -0.73290
C          9.72630        5.27360        0.97370
C          6.91410        4.50670        0.07340
C          5.61020        4.10640       -0.13200
C          3.31580        3.24540       -2.76960
C          2.61370        2.22250       -3.40580
C          2.01900        2.45310       -4.62530
C          2.11510        3.70320       -5.23620
S          1.29690        3.87910       -6.78770
C          1.66750        5.58270       -7.29440
C          2.83330        4.71570       -4.61310
C          3.42840        4.48570       -3.38780
C          1.82210        2.42720       -0.42530
S          0.55470        3.08160       -1.41590
C         -0.65290        2.54900       -0.26120
C         -0.08360        1.98160        0.87830
N         -0.80060        1.59730        2.00450
C         -1.64570        2.52530        2.62750
C         -2.81010        2.10750        3.27970
C         -3.64090        3.03040        3.87060
C         -3.34270        4.39190        3.82160
S         -4.48910        5.47380        4.61480
C         -3.78170        7.12690        4.36450
C         -2.19230        4.81170        3.16890
C         -1.35340        3.88490        2.58030
C         -0.61900        0.31640        2.54010
C         -0.65770        0.10670        3.91530
C         -0.56120       -1.16740        4.43780
C         -0.40570       -2.25550        3.59050
S         -0.32640       -3.93270        4.14260
C         -0.40780       -3.80320        5.95340
C         -0.31870       -2.04580        2.21600
C         -0.42460       -0.77580        1.69500
C          1.31630        1.88800        0.75190
S          2.55920        1.29190        1.78330
C         -2.02840        2.53170       -0.59570
C         -2.69460        3.09190       -1.67230
C         -4.02720        2.69960       -1.77100
C         -4.41300        1.80990       -0.78500
S         -3.09130        1.50640        0.31070
C         -5.57770        1.04110       -0.52080
S         -5.33150       -0.21270        0.65430
C         -6.96640       -0.77720        0.50100
C         -7.67140        0.02720       -0.40450
C         -9.10780       -0.14830       -0.68290
O         -9.85000       -0.81360        0.02050
C         -9.55710        0.56890       -1.87080
C        -10.75840        0.35320       -2.49720
C        -11.84470       -0.58610       -2.12160
C        -12.78320        0.05630       -1.09540
S        -10.92020        1.38550       -3.87750
C         -9.37590        2.12150       -3.60340
C         -8.90240        3.21210       -4.49370
C         -9.26190        4.58110       -3.90860
C         -8.76260        1.57750       -2.50300
C         -7.43170        1.95360       -2.02250
O         -6.82510        2.92260       -2.45170
C         -6.88970        1.03940       -1.00700
C         -7.45970       -1.96660        1.07080
C         -6.81980       -2.86070        1.88550
C         -5.51260       -2.67910        2.53480
O         -4.75840       -1.72470        2.44450
C         -5.28960       -3.87030        3.36270
C         -4.15910       -4.14660        4.12950
C         -4.21680       -5.34880        4.79020
C         -5.32440       -6.20440        4.70650
C         -6.44370       -5.94350        3.95130
C         -6.40020       -4.73170        3.25410
C         -7.34880       -4.14730        2.30650
C         -8.47620       -4.76190        1.82950
C         -8.95120       -6.01020        2.28510
N         -9.40100       -7.01450        2.61320
C         -9.29790       -4.29580        0.77840
N         -9.99200       -4.04090       -0.10030
C         -4.69580       -7.23490        5.61220
C         -4.11820       -8.49030        4.92520
C         -3.16250       -9.05800        5.95000
C         -2.11170       -8.25000        6.01370
C         -2.34030       -7.12070        5.03520
C         -3.11450       -7.87110        3.94430
C         -3.45800       -6.28470        5.69580
H          5.32300        1.18170        1.91910
H          6.70700       -0.19120       -4.01130
H         10.30060        0.54830       -0.51790
H         11.70330        0.28330       -3.63590
H         12.07590       -2.01280       -2.33650
H         13.27960       -2.16840       -4.66670
H         11.42580       -2.54660       -6.53170
H          9.08090       -2.62610       -5.34940
H         10.48480       -3.81380       -3.44570
H          9.46970       -2.56270       -2.69220
H          9.88060       -0.08640       -5.45860
H          5.88230        2.92820       -3.28850
H          8.21930        3.61810       -2.91140
H          9.38090        4.51430        1.66900
H         10.78640        5.44980        1.12620
H          9.17520        6.20180        1.09290
H          7.17270        4.96610        1.01320
H          4.88260        4.25790        0.65110
H          2.57340        1.24730       -2.94780
H          1.47670        1.66600       -5.12600
H          1.18050        5.71240       -8.25590
H          1.25410        6.28400       -6.57550
H          2.74000        5.71320       -7.40460
H          2.93380        5.68920       -5.06460
H          3.98240        5.27650       -2.90340
H         -3.06480        1.05910        3.30180
H         -4.54260        2.70890        4.36860
H         -2.80310        7.18750        4.83180
H         -3.72960        7.35300        3.30350
H         -4.46590        7.81310        4.85380
H         -1.93020        5.85580        3.11370
H         -0.45680        4.22430        2.08240
H         -0.77420        0.94770        4.58200
H         -0.60960       -1.29260        5.50740
H         -0.31970       -4.81940        6.32520
H          0.42200       -3.20590        6.31920
H         -1.36260       -3.38280        6.25630
H         -0.18690       -2.89410        1.56190
H         -0.38250       -0.62390        0.62670
H         -2.21170        3.75990       -2.36380
H         -4.69850        3.04020       -2.53670
H        -12.41010       -0.86850       -3.01180
H        -11.40280       -1.47900       -1.67380
H        -13.21070        0.97700       -1.48780
H        -13.58900       -0.63110       -0.85470
H        -12.23360        0.27800       -0.18480
H         -7.81630        3.14680       -4.58460
H         -9.35590        3.10240       -5.48070
H         -8.94060        5.36840       -4.58500
H        -10.33640        4.66330       -3.75920
H         -8.75920        4.71540       -2.95460
H         -8.47980       -2.19310        0.78360
H         -3.33060       -3.45680        4.15640
H         -7.28390       -6.61540        3.89810
H         -5.24200       -7.46130        6.52580
H         -4.86270       -9.17030        4.52050
H         -3.36720       -9.93060        6.54210
H         -1.26380       -8.31490        6.67050
H         -1.46970       -6.55190        4.72090
H         -2.50180       -8.62420        3.45190
H         -3.56490       -7.22270        3.19540
H         -3.17360       -5.88510        6.66780
