231

C          4.52580       -0.62100        5.44270
C          4.86030        0.49920        6.16810
C          4.10660        1.75370        6.21450
O          3.12500        2.05870        5.55690
C          4.75330        2.58760        7.24210
C          4.37550        3.86590        7.64350
C          5.17500        4.40160        8.62480
C          6.26890        3.71490        9.16640
C          6.65350        2.45340        8.77580
C          5.85370        1.88970        7.77880
C          5.95910        0.59710        7.10040
C          6.96250       -0.32180        7.29400
C          7.14370       -1.50120        6.54680
N          7.38490       -2.46150        5.96180
C          7.99110       -0.19150        8.24840
N          8.84900       -0.16040        9.01190
C          6.61240        4.84210       10.10790
C          6.21470        4.68670       11.59650
C          5.02510        3.75980       11.62830
C          3.99030        4.41100       11.11440
C          4.46160        5.79050       10.72600
C          5.51280        6.03580       11.82010
C          5.39410        5.60840        9.50290
C          3.53200       -0.80820        4.48160
C          3.32190       -2.04530        3.82100
N          3.92280       -3.23680        4.15650
C          4.36520       -4.08220        3.12900
C          4.29700       -5.46940        3.25620
C          4.80990       -6.28030        2.26990
C          5.37830       -5.72800        1.12380
S          6.04970       -6.85940       -0.05690
C          6.74560       -5.79710       -1.35090
C          5.40770       -4.34990        0.97160
C          4.91440       -3.53670        1.97170
C          4.07600       -3.61680        5.50030
C          3.10420       -3.27040        6.43620
C          3.25290       -3.60880        7.76600
C          4.37460       -4.31520        8.18180
S          4.68160       -4.79660        9.85040
C          3.28320       -4.09890       10.77590
C          5.33540       -4.68620        7.24280
C          5.19380       -4.34060        5.91780
C          2.41090       -1.90520        2.76320
S          1.74000       -2.99410        1.58430
C          0.72420       -1.70290        0.95700
C          0.97860       -0.48670        1.58360
N          0.46210        0.72660        1.13440
C         -0.03510        1.63800        2.06300
C          0.02120        3.01070        1.83820
C         -0.43000        3.89980        2.79310
C         -0.93710        3.43350        3.99710
S         -1.50140        4.48520        5.30060
C         -1.71490        6.09250        4.48400
C         -1.00420        2.06230        4.22400
C         -0.57250        1.17470        3.26540
C          0.59070        1.01140       -0.23360
C         -0.43940        1.62940       -0.93760
C         -0.36390        1.78500       -2.30770
C          0.75860        1.34730       -2.99800
S          0.90960        1.44500       -4.75750
C         -0.81010        1.27960       -5.31690
C          1.82720        0.80510       -2.28680
C          1.74000        0.62530       -0.92360
C          1.91020       -0.61530        2.63190
S          2.51360        0.47550        3.82440
C         -0.28550       -1.84380       -0.04340
C         -0.27940       -2.45850       -1.28860
N          0.65150       -3.36850       -1.75750
C          1.00030       -4.48990       -0.99380
C          2.16670       -5.18880       -1.29850
C          2.50770       -6.33120       -0.60470
C          1.69330       -6.79100        0.42240
S          2.04100       -8.23600        1.37380
C          3.14050       -9.19570        0.29100
C          0.53580       -6.08980        0.74200
C          0.18650       -4.95720        0.03940
C          0.81740       -3.41890       -3.16150
C          0.57100       -4.58360       -3.88120
C          0.63630       -4.58190       -5.26080
C          0.95470       -3.41350       -5.94200
S          1.00920       -3.28560       -7.69820
C          0.84990       -5.00430       -8.25960
C          1.23330       -2.25310       -5.22210
C          1.16420       -2.25610       -3.84660
C         -1.38640       -2.02600       -2.05950
S         -1.83890       -2.26140       -3.70570
C         -3.25790       -1.22670       -3.49380
C         -3.43980       -0.87970       -2.14280
N         -4.58380       -0.37130       -1.58760
C         -5.85440       -0.67220       -2.07730
C         -6.10650       -1.86000       -2.76870
C         -7.36630       -2.13740       -3.24390
C         -8.41950       -1.24620       -3.03760
S         -9.98250       -1.71220       -3.70460
C        -11.05520       -0.29200       -3.34690
C         -8.18420       -0.07980       -2.32270
C         -6.91770        0.19940       -1.84880
C         -4.46000        0.52410       -0.49960
C         -3.78480        1.72750       -0.67920
C         -3.68550        2.62760        0.35860
C         -4.24920        2.33500        1.59910
S         -4.09680        3.57460        2.83800
C         -4.54580        2.71840        4.37040
C         -4.92060        1.13170        1.78030
C         -5.02820        0.23440        0.73470
C         -2.31180       -1.25410       -1.37610
S         -1.79320       -0.96230        0.24580
C         -3.84630       -0.64010       -4.64230
C         -3.66740       -1.15860       -5.95150
C         -3.21930       -2.45560       -6.31220
C         -3.07390       -2.62350       -7.65540
C         -2.63750       -3.82830       -8.35540
O         -2.32540       -4.86270       -7.81030
O         -2.62510       -3.62260       -9.67450
C         -2.26490       -4.70050      -10.53510
C         -3.40270       -4.98540      -11.50280
S         -3.47830       -1.19840       -8.56410
C         -3.89870       -0.36380       -7.10450
C         -4.31970        0.97360       -7.06860
C         -4.68470        1.41640       -5.77620
C         -4.45210        0.64050       -4.59960
N         -4.83490        1.39560       -3.55860
N         -5.29150        2.48990       -4.09570
C         -5.75110        3.59270       -3.30240
C         -4.66100        4.65600       -3.20620
N         -5.24170        2.56850       -5.39450
C         -4.38050        1.78660       -8.22260
C         -4.21770        3.14990       -8.24840
C         -3.52390        3.93890       -7.21240
O         -2.99740        3.55310       -6.18470
C         -3.45770        5.31830       -7.73650
C         -2.92250        6.42610       -7.14710
C         -2.95130        7.65610       -7.84210
C         -2.42060        8.83130       -7.27700
C         -2.45630       10.00660       -7.97370
F         -1.95020       11.12530       -7.43240
C         -3.02310       10.05730       -9.26180
F         -3.04540       11.22450       -9.92190
C         -3.54650        8.93280       -9.83630
C         -3.52620        7.70560       -9.14430
C         -4.06690        6.53720       -9.73100
C         -4.03710        5.35890       -9.03420
C         -4.51660        4.01830       -9.36370
C         -5.20370        3.68020      -10.50350
C         -5.48910        4.58210      -11.54760
N         -5.74660        5.26950      -12.43120
C         -5.73900        2.40600      -10.78190
N         -6.22590        1.40820      -11.07720
H          5.12860       -1.50120        5.62630
H          3.52570        4.35790        7.19650
H          7.49970        1.94110        9.20220
H          7.60140        5.27970        9.98680
H          7.03790        4.43390       12.25940
H          5.07170        2.73790       11.95650
H          2.99880        4.04220       10.92650
H          3.68830        6.54330       10.59660
H          6.15210        6.89520       11.62270
H          5.07480        6.12360       12.81340
H          5.58850        6.54630        8.98610
H          3.85000       -5.90800        4.13470
H          4.77660       -7.35240        2.38320
H          5.95820       -5.20900       -1.81350
H          7.52020       -5.16260       -0.93020
H          7.17940       -6.47310       -2.08140
H          5.83120       -3.89140        0.09290
H          4.97880       -2.46400        1.86370
H          2.22680       -2.72550        6.11990
H          2.48250       -3.32180        8.46330
H          3.46590       -4.35560       11.81470
H          2.35260       -4.55020       10.44410
H          3.26320       -3.01900       10.66160
H          6.20560       -5.23330        7.56920
H          5.95690       -4.61150        5.20650
H          0.44350        3.38570        0.91790
H         -0.36120        4.95660        2.59160
H         -2.22410        6.72510        5.20430
H         -2.33030        5.96460        3.59850
H         -0.74750        6.52170        4.23960
H         -1.39640        1.70280        5.16350
H         -0.64870        0.11190        3.44100
H         -1.31150        1.96040       -0.39770
H         -1.18290        2.24330       -2.84100
H         -1.30790        0.53400       -4.70520
H         -1.33250        2.23160       -5.28550
H         -0.75620        0.93260       -6.34460
H          2.72380        0.52350       -2.81850
H          2.56120        0.17590       -0.38520
H          2.80040       -4.83370       -2.09780
H          3.40980       -6.85810       -0.86800
H          3.20220      -10.18350        0.73660
H          4.12880       -8.74680        0.25230
H          2.70000       -9.26140       -0.69900
H         -0.09700       -6.45270        1.53710
H         -0.73410       -4.44530        0.27610
H          0.29910       -5.48900       -3.35850
H          0.40320       -5.48950       -5.79210
H          1.63130       -5.60950       -7.80970
H         -0.13990       -5.37940       -8.01360
H          0.98120       -4.97390       -9.33710
H          1.49170       -1.34850       -5.75040
H          1.35680       -1.35350       -3.28800
H         -5.31370       -2.57430       -2.92650
H         -7.55480       -3.05560       -3.77850
H        -10.64950        0.60320       -3.80890
H        -11.16850       -0.16900       -2.27370
H        -12.01530       -0.53340       -3.79220
H         -8.97720        0.62450       -2.12890
H         -6.74930        1.11080       -1.29630
H         -3.36880        1.94260       -1.65040
H         -3.17790        3.57170        0.22700
H         -3.97850        1.79560        4.44040
H         -4.25760        3.38800        5.17510
H         -5.61620        2.53560        4.40210
H         -5.37050        0.88660        2.72870
H         -5.55990       -0.69530        0.87220
H         -3.04420       -3.26420       -5.62690
H         -1.36550       -4.38770      -11.07510
H         -2.03790       -5.58020       -9.92350
H         -4.28760       -5.30960      -10.96050
H         -3.64750       -4.08710      -12.06340
H         -3.10520       -5.76810      -12.19470
H         -6.00630        3.20390       -2.31530
H         -6.63780        4.00540       -3.78860
H         -5.04270        5.53550       -2.69580
H         -4.33450        4.93430       -4.20530
H         -3.80600        4.27410       -2.65430
H         -4.52900        1.26010       -9.15810
H         -2.48150        6.36810       -6.16320
H         -1.98090        8.80830       -6.29200
H         -3.97720        8.98930      -10.82390
H         -4.48700        6.60660      -10.72120
