
  xtb     02142202143D
 energy: -366.383007557095 gnorm: 0.000627275180 xtb: 6.4.1 (unknown)
222245  0     0  0            999 V2000
   -2.7026   -7.9426    1.9639 C   0  0  0  0  0  0  0  0  0  0  0  0
   -3.8957   -8.6127    2.1224 C   0  0  0  0  0  0  0  0  0  0  0  0
   -5.1944   -8.0385    2.4763 C   0  0  0  0  0  0  0  0  0  0  0  0
   -5.4811   -6.8587    2.6168 O   0  0  0  0  0  0  0  0  0  0  0  0
   -6.1135   -9.1788    2.6619 C   0  0  0  0  0  0  0  0  0  0  0  0
   -7.4669   -9.1336    2.9860 C   0  0  0  0  0  0  0  0  0  0  0  0
   -8.0598  -10.3682    3.1014 C   0  0  0  0  0  0  0  0  0  0  0  0
   -7.3590  -11.5650    2.9112 C   0  0  0  0  0  0  0  0  0  0  0  0
   -6.0253  -11.6249    2.5818 C   0  0  0  0  0  0  0  0  0  0  0  0
   -5.4058  -10.3798    2.4543 C   0  0  0  0  0  0  0  0  0  0  0  0
   -4.0336  -10.0483    2.0737 C   0  0  0  0  0  0  0  0  0  0  0  0
   -3.0768  -10.9619    1.6988 C   0  0  0  0  0  0  0  0  0  0  0  0
   -3.2300  -12.3609    1.7648 C   0  0  0  0  0  0  0  0  0  0  0  0
   -3.2551  -13.5089    1.8053 N   0  0  0  0  0  0  0  0  0  0  0  0
   -1.8172  -10.6596    1.1498 C   0  0  0  0  0  0  0  0  0  0  0  0
   -0.7911  -10.5220    0.6473 N   0  0  0  0  0  0  0  0  0  0  0  0
   -8.5779  -12.4140    3.1725 C   0  0  0  0  0  0  0  0  0  0  0  0
   -9.2920  -13.0447    1.9517 C   0  0  0  0  0  0  0  0  0  0  0  0
   -8.9950  -12.1511    0.7732 C   0  0  0  0  0  0  0  0  0  0  0  0
   -9.6589  -11.0164    0.9482 C   0  0  0  0  0  0  0  0  0  0  0  0
  -10.4169  -11.1223    2.2484 C   0  0  0  0  0  0  0  0  0  0  0  0
  -10.7399  -12.6250    2.2517 C   0  0  0  0  0  0  0  0  0  0  0  0
   -9.3605  -11.0789    3.3805 C   0  0  0  0  0  0  0  0  0  0  0  0
   -2.4037   -6.5830    1.9816 C   0  0  0  0  0  0  0  0  0  0  0  0
   -1.0931   -6.0714    1.7984 C   0  0  0  0  0  0  0  0  0  0  0  0
    0.0636   -6.8036    1.7781 N   0  0  0  0  0  0  0  0  0  0  0  0
    1.1271   -6.3262    0.9866 C   0  0  0  0  0  0  0  0  0  0  0  0
    2.4118   -6.2063    1.5123 C   0  0  0  0  0  0  0  0  0  0  0  0
    3.4251   -5.6891    0.7376 C   0  0  0  0  0  0  0  0  0  0  0  0
    3.1781   -5.2874   -0.5746 C   0  0  0  0  0  0  0  0  0  0  0  0
    4.5456   -4.5963   -1.4531 S   0  0  0  0  0  0  0  0  0  0  0  0
    3.8495   -4.1399   -3.0668 C   0  0  0  0  0  0  0  0  0  0  0  0
    1.9069   -5.4362   -1.1109 C   0  0  0  0  0  0  0  0  0  0  0  0
    0.8907   -5.9535   -0.3325 C   0  0  0  0  0  0  0  0  0  0  0  0
    0.2713   -7.9373    2.5782 C   0  0  0  0  0  0  0  0  0  0  0  0
    1.0565   -8.9849    2.1050 C   0  0  0  0  0  0  0  0  0  0  0  0
    1.2268  -10.1294    2.8593 C   0  0  0  0  0  0  0  0  0  0  0  0
    0.5976  -10.2511    4.0898 C   0  0  0  0  0  0  0  0  0  0  0  0
    0.6763  -11.7053    5.0849 S   0  0  0  0  0  0  0  0  0  0  0  0
    1.1728  -12.9881    3.8994 C   0  0  0  0  0  0  0  0  0  0  0  0
   -0.1407   -9.1792    4.5923 C   0  0  0  0  0  0  0  0  0  0  0  0
   -0.2943   -8.0304    3.8519 C   0  0  0  0  0  0  0  0  0  0  0  0
   -1.1134   -4.6750    1.6275 C   0  0  0  0  0  0  0  0  0  0  0  0
    0.0936   -3.4887    1.2348 S   0  0  0  0  0  0  0  0  0  0  0  0
   -1.1127   -2.2124    1.3028 C   0  0  0  0  0  0  0  0  0  0  0  0
   -2.3939   -2.7100    1.5533 C   0  0  0  0  0  0  0  0  0  0  0  0
   -3.5966   -2.0192    1.6397 N   0  0  0  0  0  0  0  0  0  0  0  0
   -4.5070   -2.5224    2.5992 C   0  0  0  0  0  0  0  0  0  0  0  0
   -5.7904   -2.9093    2.2298 C   0  0  0  0  0  0  0  0  0  0  0  0
   -6.6298   -3.4905    3.1568 C   0  0  0  0  0  0  0  0  0  0  0  0
   -6.1931   -3.6921    4.4602 C   0  0  0  0  0  0  0  0  0  0  0  0
   -7.1978   -4.5027    5.6651 S   0  0  0  0  0  0  0  0  0  0  0  0
   -8.0019   -5.7640    4.6312 C   0  0  0  0  0  0  0  0  0  0  0  0
   -4.9306   -3.2563    4.8448 C   0  0  0  0  0  0  0  0  0  0  0  0
   -4.0907   -2.6767    3.9188 C   0  0  0  0  0  0  0  0  0  0  0  0
   -3.9669   -0.9605    0.8269 C   0  0  0  0  0  0  0  0  0  0  0  0
   -4.9079   -0.0358    1.2963 C   0  0  0  0  0  0  0  0  0  0  0  0
   -5.1609    1.1167    0.5889 C   0  0  0  0  0  0  0  0  0  0  0  0
   -4.4743    1.3754   -0.5906 C   0  0  0  0  0  0  0  0  0  0  0  0
   -4.6599    2.9616   -1.3726 S   0  0  0  0  0  0  0  0  0  0  0  0
   -3.9547    3.9994   -0.0402 C   0  0  0  0  0  0  0  0  0  0  0  0
   -3.6202    0.4212   -1.1183 C   0  0  0  0  0  0  0  0  0  0  0  0
   -3.3704   -0.7423   -0.4175 C   0  0  0  0  0  0  0  0  0  0  0  0
   -2.3754   -4.1149    1.7399 C   0  0  0  0  0  0  0  0  0  0  0  0
   -3.6054   -5.2931    2.0638 S   0  0  0  0  0  0  0  0  0  0  0  0
   -0.6728   -0.8699    1.0430 C   0  0  0  0  0  0  0  0  0  0  0  0
   -1.4021    0.2763    1.3311 C   0  0  0  0  0  0  0  0  0  0  0  0
   -0.9826    1.5393    0.9210 C   0  0  0  0  0  0  0  0  0  0  0  0
    0.2102    1.7398    0.2598 C   0  0  0  0  0  0  0  0  0  0  0  0
    1.0307    0.6081    0.0092 C   0  0  0  0  0  0  0  0  0  0  0  0
    2.1989    0.7540   -0.6414 N   0  0  0  0  0  0  0  0  0  0  0  0
    2.9573   -0.3011   -0.7846 C   0  0  0  0  0  0  0  0  0  0  0  0
    2.5887   -1.5537   -0.2672 C   0  0  0  0  0  0  0  0  0  0  0  0
    1.4232   -1.7250    0.2985 N   0  0  0  0  0  0  0  0  0  0  0  0
    0.6047   -0.6763    0.4364 C   0  0  0  0  0  0  0  0  0  0  0  0
    0.7004    3.0557   -0.1025 C   0  0  0  0  0  0  0  0  0  0  0  0
    1.8976    3.6264    0.2811 C   0  0  0  0  0  0  0  0  0  0  0  0
    2.8538    3.0814    1.1174 N   0  0  0  0  0  0  0  0  0  0  0  0
    4.1973    3.4362    0.8600 C   0  0  0  0  0  0  0  0  0  0  0  0
    5.0013    3.8998    1.8935 C   0  0  0  0  0  0  0  0  0  0  0  0
    6.2740    4.3642    1.6284 C   0  0  0  0  0  0  0  0  0  0  0  0
    6.7536    4.3715    0.3254 C   0  0  0  0  0  0  0  0  0  0  0  0
    8.3366    5.0237   -0.1015 S   0  0  0  0  0  0  0  0  0  0  0  0
    8.6059    6.2566    1.2078 C   0  0  0  0  0  0  0  0  0  0  0  0
    5.9777    3.8401   -0.6997 C   0  0  0  0  0  0  0  0  0  0  0  0
    4.7085    3.3740   -0.4348 C   0  0  0  0  0  0  0  0  0  0  0  0
    2.5812    2.0531    2.0196 C   0  0  0  0  0  0  0  0  0  0  0  0
    1.4192    2.0558    2.7880 C   0  0  0  0  0  0  0  0  0  0  0  0
    1.0887    0.9675    3.5722 C   0  0  0  0  0  0  0  0  0  0  0  0
    1.9217   -0.1419    3.6082 C   0  0  0  0  0  0  0  0  0  0  0  0
    1.5490   -1.6268    4.4887 S   0  0  0  0  0  0  0  0  0  0  0  0
   -0.2423   -1.5098    4.7668 C   0  0  0  0  0  0  0  0  0  0  0  0
    3.1351   -0.1060    2.9253 C   0  0  0  0  0  0  0  0  0  0  0  0
    3.4664    0.9803    2.1481 C   0  0  0  0  0  0  0  0  0  0  0  0
    2.0531    4.9140   -0.2986 C   0  0  0  0  0  0  0  0  0  0  0  0
    3.3313    6.0702   -0.2472 S   0  0  0  0  0  0  0  0  0  0  0  0
    2.4567    7.0930   -1.3809 C   0  0  0  0  0  0  0  0  0  0  0  0
    1.2648    6.4828   -1.8464 C   0  0  0  0  0  0  0  0  0  0  0  0
    0.5656    6.9227   -2.9380 N   0  0  0  0  0  0  0  0  0  0  0  0
    1.2209    7.6334   -3.9702 C   0  0  0  0  0  0  0  0  0  0  0  0
    0.6177    8.7498   -4.5375 C   0  0  0  0  0  0  0  0  0  0  0  0
    1.2921    9.5122   -5.4731 C   0  0  0  0  0  0  0  0  0  0  0  0
    2.5832    9.1689   -5.8499 C   0  0  0  0  0  0  0  0  0  0  0  0
    3.5809   10.1147   -6.9527 S   0  0  0  0  0  0  0  0  0  0  0  0
    2.6295   11.6361   -7.2130 C   0  0  0  0  0  0  0  0  0  0  0  0
    3.1580    8.0035   -5.3390 C   0  0  0  0  0  0  0  0  0  0  0  0
    2.4825    7.2373   -4.4186 C   0  0  0  0  0  0  0  0  0  0  0  0
   -0.7775    6.5756   -3.1615 C   0  0  0  0  0  0  0  0  0  0  0  0
   -1.1759    6.1932   -4.4441 C   0  0  0  0  0  0  0  0  0  0  0  0
   -2.4990    5.9393   -4.7124 C   0  0  0  0  0  0  0  0  0  0  0  0
   -3.4625    6.0676   -3.7110 C   0  0  0  0  0  0  0  0  0  0  0  0
   -5.1263    5.7946   -4.2148 S   0  0  0  0  0  0  0  0  0  0  0  0
   -6.1097    6.0775   -2.7184 C   0  0  0  0  0  0  0  0  0  0  0  0
   -3.0649    6.4215   -2.4287 C   0  0  0  0  0  0  0  0  0  0  0  0
   -1.7316    6.6678   -2.1545 C   0  0  0  0  0  0  0  0  0  0  0  0
    1.0229    5.2786   -1.1565 C   0  0  0  0  0  0  0  0  0  0  0  0
   -0.2393    4.0871   -1.1674 S   0  0  0  0  0  0  0  0  0  0  0  0
    2.8873    8.3591   -1.7842 C   0  0  0  0  0  0  0  0  0  0  0  0
    4.1377    8.9252   -1.7314 C   0  0  0  0  0  0  0  0  0  0  0  0
    5.3595    8.3016   -1.2130 C   0  0  0  0  0  0  0  0  0  0  0  0
    5.4503    7.3478   -0.4581 O   0  0  0  0  0  0  0  0  0  0  0  0
    6.4803    9.0880   -1.7597 C   0  0  0  0  0  0  0  0  0  0  0  0
    7.8402    8.8186   -1.6297 C   0  0  0  0  0  0  0  0  0  0  0  0
    8.6531    9.7370   -2.2505 C   0  0  0  0  0  0  0  0  0  0  0  0
    8.1517   10.8426   -2.9490 C   0  0  0  0  0  0  0  0  0  0  0  0
    6.8114   11.1161   -3.0911 C   0  0  0  0  0  0  0  0  0  0  0  0
    5.9669   10.1919   -2.4706 C   0  0  0  0  0  0  0  0  0  0  0  0
    4.5076   10.1416   -2.4155 C   0  0  0  0  0  0  0  0  0  0  0  0
    3.6573   11.0824   -2.9437 C   0  0  0  0  0  0  0  0  0  0  0  0
    2.2578   11.0952   -2.7916 C   0  0  0  0  0  0  0  0  0  0  0  0
    1.1167   11.2091   -2.7031 N   0  0  0  0  0  0  0  0  0  0  0  0
    4.0597   12.1932   -3.7094 C   0  0  0  0  0  0  0  0  0  0  0  0
    4.2844   13.1078   -4.3681 N   0  0  0  0  0  0  0  0  0  0  0  0
    9.5288   11.3313   -3.3248 C   0  0  0  0  0  0  0  0  0  0  0  0
    9.9847   11.0580   -4.7736 C   0  0  0  0  0  0  0  0  0  0  0  0
   11.4888   11.1959   -4.7116 C   0  0  0  0  0  0  0  0  0  0  0  0
   11.9633   10.1471   -4.0516 C   0  0  0  0  0  0  0  0  0  0  0  0
   10.7879    9.2827   -3.6560 C   0  0  0  0  0  0  0  0  0  0  0  0
    9.8630    9.5308   -4.8546 C   0  0  0  0  0  0  0  0  0  0  0  0
   10.0879   10.0968   -2.5471 C   0  0  0  0  0  0  0  0  0  0  0  0
   -1.8410   -8.5732    1.7856 H   0  0  0  0  0  0  0  0  0  0  0  0
   -7.9805   -8.1948    3.1207 H   0  0  0  0  0  0  0  0  0  0  0  0
   -5.4998  -12.5533    2.4329 H   0  0  0  0  0  0  0  0  0  0  0  0
   -8.5095  -13.1007    4.0139 H   0  0  0  0  0  0  0  0  0  0  0  0
   -9.0960  -14.1044    1.8118 H   0  0  0  0  0  0  0  0  0  0  0  0
   -8.3084  -12.4053   -0.0130 H   0  0  0  0  0  0  0  0  0  0  0  0
   -9.6375  -10.1329    0.3372 H   0  0  0  0  0  0  0  0  0  0  0  0
  -11.2466  -10.4319    2.3781 H   0  0  0  0  0  0  0  0  0  0  0  0
  -11.4332  -12.9086    1.4613 H   0  0  0  0  0  0  0  0  0  0  0  0
  -11.1069  -12.9877    3.2109 H   0  0  0  0  0  0  0  0  0  0  0  0
   -9.8063  -10.8963    4.3566 H   0  0  0  0  0  0  0  0  0  0  0  0
    2.6019   -6.5030    2.5324 H   0  0  0  0  0  0  0  0  0  0  0  0
    4.4188   -5.5762    1.1430 H   0  0  0  0  0  0  0  0  0  0  0  0
    4.6646   -3.6776   -3.6151 H   0  0  0  0  0  0  0  0  0  0  0  0
    3.5127   -5.0292   -3.5913 H   0  0  0  0  0  0  0  0  0  0  0  0
    3.0408   -3.4263   -2.9355 H   0  0  0  0  0  0  0  0  0  0  0  0
    1.6912   -5.1546   -2.1285 H   0  0  0  0  0  0  0  0  0  0  0  0
   -0.0994   -6.0686   -0.7484 H   0  0  0  0  0  0  0  0  0  0  0  0
    1.5171   -8.9120    1.1326 H   0  0  0  0  0  0  0  0  0  0  0  0
    1.8302  -10.9279    2.4610 H   0  0  0  0  0  0  0  0  0  0  0  0
    0.9982  -13.9353    4.4001 H   0  0  0  0  0  0  0  0  0  0  0  0
    0.5526  -12.9175    3.0108 H   0  0  0  0  0  0  0  0  0  0  0  0
    2.2268  -12.8907    3.6552 H   0  0  0  0  0  0  0  0  0  0  0  0
   -0.5932   -9.2646    5.5682 H   0  0  0  0  0  0  0  0  0  0  0  0
   -0.8722   -7.2069    4.2437 H   0  0  0  0  0  0  0  0  0  0  0  0
   -6.1154   -2.7715    1.2094 H   0  0  0  0  0  0  0  0  0  0  0  0
   -7.6171   -3.8006    2.8551 H   0  0  0  0  0  0  0  0  0  0  0  0
   -8.2867   -6.5697    5.3013 H   0  0  0  0  0  0  0  0  0  0  0  0
   -8.8865   -5.3557    4.1496 H   0  0  0  0  0  0  0  0  0  0  0  0
   -7.2731   -6.1085    3.9024 H   0  0  0  0  0  0  0  0  0  0  0  0
   -4.6108   -3.3955    5.8659 H   0  0  0  0  0  0  0  0  0  0  0  0
   -3.0967   -2.3632    4.2039 H   0  0  0  0  0  0  0  0  0  0  0  0
   -5.4078   -0.2126    2.2369 H   0  0  0  0  0  0  0  0  0  0  0  0
   -5.8711    1.8370    0.9676 H   0  0  0  0  0  0  0  0  0  0  0  0
   -4.5492    4.9035    0.0442 H   0  0  0  0  0  0  0  0  0  0  0  0
   -2.9290    4.2468   -0.3003 H   0  0  0  0  0  0  0  0  0  0  0  0
   -3.9949    3.4462    0.8916 H   0  0  0  0  0  0  0  0  0  0  0  0
   -3.1300    0.6072   -2.0613 H   0  0  0  0  0  0  0  0  0  0  0  0
   -2.6912   -1.4782   -0.8197 H   0  0  0  0  0  0  0  0  0  0  0  0
   -2.2980    0.2121    1.9247 H   0  0  0  0  0  0  0  0  0  0  0  0
   -1.5987    2.3938    1.1591 H   0  0  0  0  0  0  0  0  0  0  0  0
    3.8885   -0.1613   -1.3167 H   0  0  0  0  0  0  0  0  0  0  0  0
    3.2390   -2.4147   -0.3171 H   0  0  0  0  0  0  0  0  0  0  0  0
    4.6160    3.9147    2.9024 H   0  0  0  0  0  0  0  0  0  0  0  0
    6.8760    4.7355    2.4421 H   0  0  0  0  0  0  0  0  0  0  0  0
    8.8743    5.7705    2.1414 H   0  0  0  0  0  0  0  0  0  0  0  0
    7.7016    6.8489    1.3144 H   0  0  0  0  0  0  0  0  0  0  0  0
    9.4323    6.8779    0.8753 H   0  0  0  0  0  0  0  0  0  0  0  0
    6.3729    3.8185   -1.7038 H   0  0  0  0  0  0  0  0  0  0  0  0
    4.0886    2.9783   -1.2260 H   0  0  0  0  0  0  0  0  0  0  0  0
    0.7646    2.9139    2.7595 H   0  0  0  0  0  0  0  0  0  0  0  0
    0.1759    0.9949    4.1458 H   0  0  0  0  0  0  0  0  0  0  0  0
   -0.7313   -1.2437    3.8343 H   0  0  0  0  0  0  0  0  0  0  0  0
   -0.4607   -0.7870    5.5481 H   0  0  0  0  0  0  0  0  0  0  0  0
   -0.5528   -2.5003    5.0860 H   0  0  0  0  0  0  0  0  0  0  0  0
    3.7991   -0.9545    2.9903 H   0  0  0  0  0  0  0  0  0  0  0  0
    4.3951    0.9899    1.5971 H   0  0  0  0  0  0  0  0  0  0  0  0
   -0.3703    9.0443   -4.2196 H   0  0  0  0  0  0  0  0  0  0  0  0
    0.8071   10.3862   -5.8746 H   0  0  0  0  0  0  0  0  0  0  0  0
    1.7102   11.4162   -7.7482 H   0  0  0  0  0  0  0  0  0  0  0  0
    3.2658   12.2744   -7.8179 H   0  0  0  0  0  0  0  0  0  0  0  0
    2.4336   12.1159   -6.2587 H   0  0  0  0  0  0  0  0  0  0  0  0
    4.1433    7.7158   -5.6725 H   0  0  0  0  0  0  0  0  0  0  0  0
    2.9380    6.3428   -4.0205 H   0  0  0  0  0  0  0  0  0  0  0  0
   -0.4369    6.1050   -5.2262 H   0  0  0  0  0  0  0  0  0  0  0  0
   -2.8103    5.6477   -5.7035 H   0  0  0  0  0  0  0  0  0  0  0  0
   -5.8834    5.3085   -1.9871 H   0  0  0  0  0  0  0  0  0  0  0  0
   -7.1454    5.9907   -3.0317 H   0  0  0  0  0  0  0  0  0  0  0  0
   -5.9235    7.0753   -2.3324 H   0  0  0  0  0  0  0  0  0  0  0  0
   -3.7872    6.5307   -1.6371 H   0  0  0  0  0  0  0  0  0  0  0  0
   -1.4332    6.9678   -1.1606 H   0  0  0  0  0  0  0  0  0  0  0  0
    2.1280    8.9466   -2.2834 H   0  0  0  0  0  0  0  0  0  0  0  0
    8.1855    7.9485   -1.0950 H   0  0  0  0  0  0  0  0  0  0  0  0
    6.4397   11.9668   -3.6376 H   0  0  0  0  0  0  0  0  0  0  0  0
    9.7907   12.3287   -2.9765 H   0  0  0  0  0  0  0  0  0  0  0  0
    9.4695   11.6428   -5.5307 H   0  0  0  0  0  0  0  0  0  0  0  0
   12.0301   12.0420   -5.0927 H   0  0  0  0  0  0  0  0  0  0  0  0
   12.9801    9.9425   -3.7713 H   0  0  0  0  0  0  0  0  0  0  0  0
   11.0043    8.2502   -3.3952 H   0  0  0  0  0  0  0  0  0  0  0  0
    8.8495    9.1588   -4.7183 H   0  0  0  0  0  0  0  0  0  0  0  0
   10.2749    9.1340   -5.7811 H   0  0  0  0  0  0  0  0  0  0  0  0
   10.7243   10.2719   -1.6813 H   0  0  0  0  0  0  0  0  0  0  0  0
  1  2  2  0  0  0  0
  2  3  1  0  0  0  0
  3  4  2  0  0  0  0
  3  5  1  0  0  0  0
  5  6  2  0  0  0  0
  6  7  1  0  0  0  0
  7  8  2  0  0  0  0
  8  9  1  0  0  0  0
  9 10  2  0  0  0  0
 10 11  1  0  0  0  0
 11 12  2  0  0  0  0
 12 13  1  0  0  0  0
 13 14  3  0  0  0  0
 12 15  1  0  0  0  0
 15 16  3  0  0  0  0
  8 17  1  0  0  0  0
 17 18  1  0  0  0  0
 18 19  1  0  0  0  0
 19 20  2  0  0  0  0
 20 21  1  0  0  0  0
 21 22  1  0  0  0  0
 21 23  1  0  0  0  0
  1 24  1  0  0  0  0
 24 25  2  0  0  0  0
 25 26  1  0  0  0  0
 26 27  1  0  0  0  0
 27 28  2  0  0  0  0
 28 29  1  0  0  0  0
 29 30  2  0  0  0  0
 30 31  1  0  0  0  0
 31 32  1  0  0  0  0
 30 33  1  0  0  0  0
 33 34  2  0  0  0  0
 26 35  1  0  0  0  0
 35 36  2  0  0  0  0
 36 37  1  0  0  0  0
 37 38  2  0  0  0  0
 38 39  1  0  0  0  0
 39 40  1  0  0  0  0
 38 41  1  0  0  0  0
 41 42  2  0  0  0  0
 25 43  1  0  0  0  0
 43 44  1  0  0  0  0
 44 45  1  0  0  0  0
 45 46  2  0  0  0  0
 46 47  1  0  0  0  0
 47 48  1  0  0  0  0
 48 49  2  0  0  0  0
 49 50  1  0  0  0  0
 50 51  2  0  0  0  0
 51 52  1  0  0  0  0
 52 53  1  0  0  0  0
 51 54  1  0  0  0  0
 54 55  2  0  0  0  0
 47 56  1  0  0  0  0
 56 57  2  0  0  0  0
 57 58  1  0  0  0  0
 58 59  2  0  0  0  0
 59 60  1  0  0  0  0
 60 61  1  0  0  0  0
 59 62  1  0  0  0  0
 62 63  2  0  0  0  0
 46 64  1  0  0  0  0
 64 65  1  0  0  0  0
 45 66  1  0  0  0  0
 66 67  2  0  0  0  0
 67 68  1  0  0  0  0
 68 69  2  0  0  0  0
 69 70  1  0  0  0  0
 70 71  2  0  0  0  0
 71 72  1  0  0  0  0
 72 73  2  0  0  0  0
 73 74  1  0  0  0  0
 74 75  2  0  0  0  0
 69 76  1  0  0  0  0
 76 77  2  0  0  0  0
 77 78  1  0  0  0  0
 78 79  1  0  0  0  0
 79 80  2  0  0  0  0
 80 81  1  0  0  0  0
 81 82  2  0  0  0  0
 82 83  1  0  0  0  0
 83 84  1  0  0  0  0
 82 85  1  0  0  0  0
 85 86  2  0  0  0  0
 78 87  1  0  0  0  0
 87 88  2  0  0  0  0
 88 89  1  0  0  0  0
 89 90  2  0  0  0  0
 90 91  1  0  0  0  0
 91 92  1  0  0  0  0
 90 93  1  0  0  0  0
 93 94  2  0  0  0  0
 77 95  1  0  0  0  0
 95 96  1  0  0  0  0
 96 97  1  0  0  0  0
 97 98  2  0  0  0  0
 98 99  1  0  0  0  0
 99100  1  0  0  0  0
100101  2  0  0  0  0
101102  1  0  0  0  0
102103  2  0  0  0  0
103104  1  0  0  0  0
104105  1  0  0  0  0
103106  1  0  0  0  0
106107  2  0  0  0  0
 99108  1  0  0  0  0
108109  2  0  0  0  0
109110  1  0  0  0  0
110111  2  0  0  0  0
111112  1  0  0  0  0
112113  1  0  0  0  0
111114  1  0  0  0  0
114115  2  0  0  0  0
 98116  1  0  0  0  0
116117  1  0  0  0  0
 97118  1  0  0  0  0
118119  2  0  0  0  0
119120  1  0  0  0  0
120121  2  0  0  0  0
120122  1  0  0  0  0
122123  2  0  0  0  0
123124  1  0  0  0  0
124125  2  0  0  0  0
125126  1  0  0  0  0
126127  2  0  0  0  0
127128  1  0  0  0  0
128129  2  0  0  0  0
129130  1  0  0  0  0
130131  3  0  0  0  0
129132  1  0  0  0  0
132133  3  0  0  0  0
125134  1  0  0  0  0
134135  1  0  0  0  0
135136  1  0  0  0  0
136137  2  0  0  0  0
137138  1  0  0  0  0
138139  1  0  0  0  0
138140  1  0  0  0  0
 11  2  1  0  0  0  0
 23 17  1  0  0  0  0
 65 24  1  0  0  0  0
 75 66  1  0  0  0  0
117 76  1  0  0  0  0
128119  1  0  0  0  0
140134  1  0  0  0  0
 10  5  1  0  0  0  0
 22 18  1  0  0  0  0
 34 27  1  0  0  0  0
 42 35  1  0  0  0  0
 64 43  2  0  0  0  0
 75 70  1  0  0  0  0
 86 79  1  0  0  0  0
 94 87  1  0  0  0  0
116 95  2  0  0  0  0
127122  1  0  0  0  0
139135  1  0  0  0  0
 23  7  1  0  0  0  0
 55 48  1  0  0  0  0
 63 56  1  0  0  0  0
107100  1  0  0  0  0
115108  1  0  0  0  0
140124  1  0  0  0  0
  1141  1  0  0  0  0
  6142  1  0  0  0  0
  9143  1  0  0  0  0
 17144  1  0  0  0  0
 18145  1  0  0  0  0
 19146  1  0  0  0  0
 20147  1  0  0  0  0
 21148  1  0  0  0  0
 22149  1  0  0  0  0
 22150  1  0  0  0  0
 23151  1  0  0  0  0
 28152  1  0  0  0  0
 29153  1  0  0  0  0
 32154  1  0  0  0  0
 32155  1  0  0  0  0
 32156  1  0  0  0  0
 33157  1  0  0  0  0
 34158  1  0  0  0  0
 36159  1  0  0  0  0
 37160  1  0  0  0  0
 40161  1  0  0  0  0
 40162  1  0  0  0  0
 40163  1  0  0  0  0
 41164  1  0  0  0  0
 42165  1  0  0  0  0
 49166  1  0  0  0  0
 50167  1  0  0  0  0
 53168  1  0  0  0  0
 53169  1  0  0  0  0
 53170  1  0  0  0  0
 54171  1  0  0  0  0
 55172  1  0  0  0  0
 57173  1  0  0  0  0
 58174  1  0  0  0  0
 61175  1  0  0  0  0
 61176  1  0  0  0  0
 61177  1  0  0  0  0
 62178  1  0  0  0  0
 63179  1  0  0  0  0
 67180  1  0  0  0  0
 68181  1  0  0  0  0
 72182  1  0  0  0  0
 73183  1  0  0  0  0
 80184  1  0  0  0  0
 81185  1  0  0  0  0
 84186  1  0  0  0  0
 84187  1  0  0  0  0
 84188  1  0  0  0  0
 85189  1  0  0  0  0
 86190  1  0  0  0  0
 88191  1  0  0  0  0
 89192  1  0  0  0  0
 92193  1  0  0  0  0
 92194  1  0  0  0  0
 92195  1  0  0  0  0
 93196  1  0  0  0  0
 94197  1  0  0  0  0
101198  1  0  0  0  0
102199  1  0  0  0  0
105200  1  0  0  0  0
105201  1  0  0  0  0
105202  1  0  0  0  0
106203  1  0  0  0  0
107204  1  0  0  0  0
109205  1  0  0  0  0
110206  1  0  0  0  0
113207  1  0  0  0  0
113208  1  0  0  0  0
113209  1  0  0  0  0
114210  1  0  0  0  0
115211  1  0  0  0  0
118212  1  0  0  0  0
123213  1  0  0  0  0
126214  1  0  0  0  0
134215  1  0  0  0  0
135216  1  0  0  0  0
136217  1  0  0  0  0
137218  1  0  0  0  0
138219  1  0  0  0  0
139220  1  0  0  0  0
139221  1  0  0  0  0
140222  1  0  0  0  0
M  END
