
  xtb     02062217563D
 energy: -433.711200029910 gnorm: 0.000559709254 xtb: 6.4.1 (unknown)
262286  0     0  0            999 V2000
    1.1635   -6.7401   -3.7213 C   0  0  0  0  0  0  0  0  0  0  0  0
    0.9060   -7.9773   -3.2182 C   0  0  0  0  0  0  0  0  0  0  0  0
    1.2716   -8.3910   -1.8440 C   0  0  0  0  0  0  0  0  0  0  0  0
    1.6659   -7.6761   -0.9462 O   0  0  0  0  0  0  0  0  0  0  0  0
    1.2127   -9.8666   -1.8532 C   0  0  0  0  0  0  0  0  0  0  0  0
    1.5325  -10.7305   -0.8075 C   0  0  0  0  0  0  0  0  0  0  0  0
    1.4510  -12.0642   -1.1324 C   0  0  0  0  0  0  0  0  0  0  0  0
    1.1040  -12.5145   -2.4130 C   0  0  0  0  0  0  0  0  0  0  0  0
    0.7635  -11.6774   -3.4484 C   0  0  0  0  0  0  0  0  0  0  0  0
    0.8193  -10.3182   -3.1303 C   0  0  0  0  0  0  0  0  0  0  0  0
    0.5402   -9.1581   -3.9650 C   0  0  0  0  0  0  0  0  0  0  0  0
   -0.0849   -9.1526   -5.1840 C   0  0  0  0  0  0  0  0  0  0  0  0
   -0.4716   -7.9652   -5.8392 C   0  0  0  0  0  0  0  0  0  0  0  0
   -0.8453   -7.0321   -6.3947 N   0  0  0  0  0  0  0  0  0  0  0  0
   -0.4786  -10.3089   -5.8851 C   0  0  0  0  0  0  0  0  0  0  0  0
   -0.8116  -11.2161   -6.5052 N   0  0  0  0  0  0  0  0  0  0  0  0
    1.3116  -13.9646   -2.0487 C   0  0  0  0  0  0  0  0  0  0  0  0
    0.0490  -14.8210   -1.8268 C   0  0  0  0  0  0  0  0  0  0  0  0
    0.5402  -15.9984   -1.0166 C   0  0  0  0  0  0  0  0  0  0  0  0
    0.8175  -15.5602    0.2047 C   0  0  0  0  0  0  0  0  0  0  0  0
    0.5247  -14.0768    0.2383 C   0  0  0  0  0  0  0  0  0  0  0  0
   -0.6635  -14.0209   -0.7306 C   0  0  0  0  0  0  0  0  0  0  0  0
    1.6603  -13.4642   -0.6099 C   0  0  0  0  0  0  0  0  0  0  0  0
    1.3708   -5.5498   -2.9628 C   0  0  0  0  0  0  0  0  0  0  0  0
    0.5183   -4.8348   -2.1227 C   0  0  0  0  0  0  0  0  0  0  0  0
   -0.7791   -5.1393   -1.8022 N   0  0  0  0  0  0  0  0  0  0  0  0
   -1.6795   -4.1416   -1.3885 C   0  0  0  0  0  0  0  0  0  0  0  0
   -2.5412   -4.3574   -0.3126 C   0  0  0  0  0  0  0  0  0  0  0  0
   -3.3472   -3.3408    0.1449 C   0  0  0  0  0  0  0  0  0  0  0  0
   -3.3071   -2.0811   -0.4457 C   0  0  0  0  0  0  0  0  0  0  0  0
   -4.2489   -0.8042    0.3319 S   0  0  0  0  0  0  0  0  0  0  0  0
   -3.5752    0.7237   -0.3776 C   0  0  0  0  0  0  0  0  0  0  0  0
   -2.5423   -1.8942   -1.5876 C   0  0  0  0  0  0  0  0  0  0  0  0
   -1.7482   -2.9224   -2.0613 C   0  0  0  0  0  0  0  0  0  0  0  0
   -1.2184   -6.4872   -1.6834 C   0  0  0  0  0  0  0  0  0  0  0  0
   -1.9093   -7.0919   -2.7265 C   0  0  0  0  0  0  0  0  0  0  0  0
   -2.3236   -8.4021   -2.6033 C   0  0  0  0  0  0  0  0  0  0  0  0
   -2.0723   -9.1109   -1.4299 C   0  0  0  0  0  0  0  0  0  0  0  0
   -2.5837  -10.7980   -1.3876 S   0  0  0  0  0  0  0  0  0  0  0  0
   -2.5778  -11.1875    0.3889 C   0  0  0  0  0  0  0  0  0  0  0  0
   -1.4214   -8.4900   -0.3729 C   0  0  0  0  0  0  0  0  0  0  0  0
   -0.9981   -7.1812   -0.5022 C   0  0  0  0  0  0  0  0  0  0  0  0
    1.1451   -3.6250   -1.7133 C   0  0  0  0  0  0  0  0  0  0  0  0
    0.6546   -2.3095   -0.7132 S   0  0  0  0  0  0  0  0  0  0  0  0
    2.2159   -1.5288   -0.9214 C   0  0  0  0  0  0  0  0  0  0  0  0
    3.0548   -2.2464   -1.7422 C   0  0  0  0  0  0  0  0  0  0  0  0
    4.3729   -1.8989   -2.0322 N   0  0  0  0  0  0  0  0  0  0  0  0
    5.3801   -2.8070   -1.6922 C   0  0  0  0  0  0  0  0  0  0  0  0
    6.5979   -2.8242   -2.3740 C   0  0  0  0  0  0  0  0  0  0  0  0
    7.5876   -3.7079   -2.0065 C   0  0  0  0  0  0  0  0  0  0  0  0
    7.3849   -4.6123   -0.9647 C   0  0  0  0  0  0  0  0  0  0  0  0
    8.7400   -5.6739   -0.5637 S   0  0  0  0  0  0  0  0  0  0  0  0
    8.1213   -6.6667    0.8230 C   0  0  0  0  0  0  0  0  0  0  0  0
    6.1623   -4.6263   -0.3092 C   0  0  0  0  0  0  0  0  0  0  0  0
    5.1758   -3.7291   -0.6674 C   0  0  0  0  0  0  0  0  0  0  0  0
    4.6271   -0.6481   -2.5958 C   0  0  0  0  0  0  0  0  0  0  0  0
    5.7507    0.0955   -2.2434 C   0  0  0  0  0  0  0  0  0  0  0  0
    5.9976    1.3193   -2.8327 C   0  0  0  0  0  0  0  0  0  0  0  0
    5.1248    1.8216   -3.7878 C   0  0  0  0  0  0  0  0  0  0  0  0
    5.3904    3.3580   -4.6230 S   0  0  0  0  0  0  0  0  0  0  0  0
    7.1680    3.6578   -4.4021 C   0  0  0  0  0  0  0  0  0  0  0  0
    3.9808    1.1026   -4.1191 C   0  0  0  0  0  0  0  0  0  0  0  0
    3.7332   -0.1166   -3.5289 C   0  0  0  0  0  0  0  0  0  0  0  0
    2.4300   -3.4384   -2.1909 C   0  0  0  0  0  0  0  0  0  0  0  0
    2.9032   -4.7173   -3.2423 S   0  0  0  0  0  0  0  0  0  0  0  0
    2.3235   -0.2566   -0.2549 C   0  0  0  0  0  0  0  0  0  0  0  0
    2.0649   -0.0991    1.0935 C   0  0  0  0  0  0  0  0  0  0  0  0
    2.1543   -1.1781    1.9965 N   0  0  0  0  0  0  0  0  0  0  0  0
    0.9757   -1.8700    2.3395 C   0  0  0  0  0  0  0  0  0  0  0  0
    0.9102   -3.2645    2.2686 C   0  0  0  0  0  0  0  0  0  0  0  0
   -0.2487   -3.9267    2.5996 C   0  0  0  0  0  0  0  0  0  0  0  0
   -1.3815   -3.2206    2.9996 C   0  0  0  0  0  0  0  0  0  0  0  0
   -2.7933   -4.1798    3.4472 S   0  0  0  0  0  0  0  0  0  0  0  0
   -4.0195   -2.9338    3.9271 C   0  0  0  0  0  0  0  0  0  0  0  0
   -1.3380   -1.8358    3.0314 C   0  0  0  0  0  0  0  0  0  0  0  0
   -0.1705   -1.1723    2.7027 C   0  0  0  0  0  0  0  0  0  0  0  0
    3.4216   -1.7091    2.2473 C   0  0  0  0  0  0  0  0  0  0  0  0
    3.6096   -2.6193    3.2940 C   0  0  0  0  0  0  0  0  0  0  0  0
    4.8438   -3.1800    3.5300 C   0  0  0  0  0  0  0  0  0  0  0  0
    5.9449   -2.8320    2.7515 C   0  0  0  0  0  0  0  0  0  0  0  0
    7.4641   -3.6737    3.0861 S   0  0  0  0  0  0  0  0  0  0  0  0
    8.6716   -2.8514    2.0097 C   0  0  0  0  0  0  0  0  0  0  0  0
    5.7908   -1.8689    1.7696 C   0  0  0  0  0  0  0  0  0  0  0  0
    4.5485   -1.3142    1.5258 C   0  0  0  0  0  0  0  0  0  0  0  0
    1.8082    1.2491    1.4101 C   0  0  0  0  0  0  0  0  0  0  0  0
    1.1715    2.0542    2.8001 S   0  0  0  0  0  0  0  0  0  0  0  0
    0.9258    3.5215    1.8566 C   0  0  0  0  0  0  0  0  0  0  0  0
    1.5159    3.4342    0.5909 C   0  0  0  0  0  0  0  0  0  0  0  0
    1.6231    4.4910   -0.2906 N   0  0  0  0  0  0  0  0  0  0  0  0
    1.4810    4.2206   -1.6640 C   0  0  0  0  0  0  0  0  0  0  0  0
    2.3771    4.7324   -2.5950 C   0  0  0  0  0  0  0  0  0  0  0  0
    2.2466    4.4302   -3.9345 C   0  0  0  0  0  0  0  0  0  0  0  0
    1.2293    3.5873   -4.3609 C   0  0  0  0  0  0  0  0  0  0  0  0
    1.0092    3.0835   -6.0335 S   0  0  0  0  0  0  0  0  0  0  0  0
    2.2552    4.0386   -6.9422 C   0  0  0  0  0  0  0  0  0  0  0  0
    0.3234    3.0800   -3.4323 C   0  0  0  0  0  0  0  0  0  0  0  0
    0.4411    3.4003   -2.0987 C   0  0  0  0  0  0  0  0  0  0  0  0
    2.0393    5.7508    0.1486 C   0  0  0  0  0  0  0  0  0  0  0  0
    1.6750    6.8926   -0.5702 C   0  0  0  0  0  0  0  0  0  0  0  0
    2.0616    8.1401   -0.1422 C   0  0  0  0  0  0  0  0  0  0  0  0
    2.8206    8.2888    1.0178 C   0  0  0  0  0  0  0  0  0  0  0  0
    3.2470    9.9417    1.4692 S   0  0  0  0  0  0  0  0  0  0  0  0
    4.2710    9.7426    2.9543 C   0  0  0  0  0  0  0  0  0  0  0  0
    3.1858    7.1595    1.7367 C   0  0  0  0  0  0  0  0  0  0  0  0
    2.8021    5.9050    1.3037 C   0  0  0  0  0  0  0  0  0  0  0  0
    1.9310    2.1105    0.3254 C   0  0  0  0  0  0  0  0  0  0  0  0
    2.3990    1.2696   -1.1163 S   0  0  0  0  0  0  0  0  0  0  0  0
   -0.0868    4.4263    2.2374 C   0  0  0  0  0  0  0  0  0  0  0  0
   -0.9480    4.2725    3.3243 C   0  0  0  0  0  0  0  0  0  0  0  0
   -0.7637    3.3574    4.3603 N   0  0  0  0  0  0  0  0  0  0  0  0
    0.3167    3.4817    5.2328 C   0  0  0  0  0  0  0  0  0  0  0  0
    0.7686    2.3846    5.9712 C   0  0  0  0  0  0  0  0  0  0  0  0
    1.8450    2.5137    6.8177 C   0  0  0  0  0  0  0  0  0  0  0  0
    2.5107    3.7323    6.9417 C   0  0  0  0  0  0  0  0  0  0  0  0
    3.8804    3.7708    8.0580 S   0  0  0  0  0  0  0  0  0  0  0  0
    4.3489    5.5246    8.1136 C   0  0  0  0  0  0  0  0  0  0  0  0
    2.0824    4.8180    6.1924 C   0  0  0  0  0  0  0  0  0  0  0  0
    0.9938    4.6928    5.3505 C   0  0  0  0  0  0  0  0  0  0  0  0
   -1.8394    2.4795    4.5772 C   0  0  0  0  0  0  0  0  0  0  0  0
   -2.4960    1.9484    3.4681 C   0  0  0  0  0  0  0  0  0  0  0  0
   -3.6121    1.1529    3.6183 C   0  0  0  0  0  0  0  0  0  0  0  0
   -4.0916    0.8726    4.8906 C   0  0  0  0  0  0  0  0  0  0  0  0
   -5.5399   -0.1040    5.1713 S   0  0  0  0  0  0  0  0  0  0  0  0
   -6.4582    0.0906    3.6155 C   0  0  0  0  0  0  0  0  0  0  0  0
   -3.4175    1.3670    6.0038 C   0  0  0  0  0  0  0  0  0  0  0  0
   -2.3051    2.1676    5.8525 C   0  0  0  0  0  0  0  0  0  0  0  0
   -2.1136    5.0413    3.1663 C   0  0  0  0  0  0  0  0  0  0  0  0
   -3.5442    5.2272    4.1030 S   0  0  0  0  0  0  0  0  0  0  0  0
   -4.2631    6.2463    2.8469 C   0  0  0  0  0  0  0  0  0  0  0  0
   -3.3527    6.5096    1.8006 C   0  0  0  0  0  0  0  0  0  0  0  0
   -3.5362    7.3787    0.7497 N   0  0  0  0  0  0  0  0  0  0  0  0
   -4.3358    8.5258    0.8437 C   0  0  0  0  0  0  0  0  0  0  0  0
   -4.5040    9.2037    2.0489 C   0  0  0  0  0  0  0  0  0  0  0  0
   -5.3610   10.2803    2.1394 C   0  0  0  0  0  0  0  0  0  0  0  0
   -6.0540   10.7168    1.0164 C   0  0  0  0  0  0  0  0  0  0  0  0
   -7.2355   12.0217    1.0626 S   0  0  0  0  0  0  0  0  0  0  0  0
   -7.7325   12.0517    2.8100 C   0  0  0  0  0  0  0  0  0  0  0  0
   -5.8153   10.1041   -0.2123 C   0  0  0  0  0  0  0  0  0  0  0  0
   -4.9772    9.0156   -0.2979 C   0  0  0  0  0  0  0  0  0  0  0  0
   -2.7346    7.2457   -0.4104 C   0  0  0  0  0  0  0  0  0  0  0  0
   -2.6518    6.0332   -1.0936 C   0  0  0  0  0  0  0  0  0  0  0  0
   -1.8954    5.9352   -2.2402 C   0  0  0  0  0  0  0  0  0  0  0  0
   -1.2006    7.0405   -2.7266 C   0  0  0  0  0  0  0  0  0  0  0  0
   -0.2629    6.7906   -4.1974 S   0  0  0  0  0  0  0  0  0  0  0  0
    0.6880    8.3294   -4.3757 C   0  0  0  0  0  0  0  0  0  0  0  0
   -1.2809    8.2502   -2.0477 C   0  0  0  0  0  0  0  0  0  0  0  0
   -2.0406    8.3474   -0.8991 C   0  0  0  0  0  0  0  0  0  0  0  0
   -2.1541    5.7975    2.0005 C   0  0  0  0  0  0  0  0  0  0  0  0
   -0.6841    5.6228    1.0945 S   0  0  0  0  0  0  0  0  0  0  0  0
   -5.5836    6.6554    3.0750 C   0  0  0  0  0  0  0  0  0  0  0  0
   -6.5340    7.0633    2.1717 C   0  0  0  0  0  0  0  0  0  0  0  0
   -7.6366    7.9643    2.5961 C   0  0  0  0  0  0  0  0  0  0  0  0
   -7.8684    8.3669    3.7175 O   0  0  0  0  0  0  0  0  0  0  0  0
   -8.2949    8.3252    1.3420 C   0  0  0  0  0  0  0  0  0  0  0  0
   -9.5914    9.3318    0.8644 S   0  0  0  0  0  0  0  0  0  0  0  0
   -9.3350    8.8911   -0.7806 C   0  0  0  0  0  0  0  0  0  0  0  0
   -8.3104    8.0091   -0.9628 C   0  0  0  0  0  0  0  0  0  0  0  0
   -7.7009    7.6863    0.2629 C   0  0  0  0  0  0  0  0  0  0  0  0
   -6.6344    6.8333    0.7565 C   0  0  0  0  0  0  0  0  0  0  0  0
   -6.0216    5.8404    0.0227 C   0  0  0  0  0  0  0  0  0  0  0  0
   -6.1597    5.7655   -1.3749 C   0  0  0  0  0  0  0  0  0  0  0  0
   -6.2187    5.7162   -2.5211 N   0  0  0  0  0  0  0  0  0  0  0  0
   -5.2910    4.7758    0.5694 C   0  0  0  0  0  0  0  0  0  0  0  0
   -4.7346    3.8416    0.9471 N   0  0  0  0  0  0  0  0  0  0  0  0
    1.3253   -6.6383   -4.7905 H   0  0  0  0  0  0  0  0  0  0  0  0
    1.8282  -10.3467    0.1570 H   0  0  0  0  0  0  0  0  0  0  0  0
    0.4976  -12.0290   -4.4316 H   0  0  0  0  0  0  0  0  0  0  0  0
    2.0847  -14.4798   -2.6158 H   0  0  0  0  0  0  0  0  0  0  0  0
   -0.5137  -15.0452   -2.7285 H   0  0  0  0  0  0  0  0  0  0  0  0
    0.6813  -16.9855   -1.4159 H   0  0  0  0  0  0  0  0  0  0  0  0
    1.2386  -16.1070    1.0281 H   0  0  0  0  0  0  0  0  0  0  0  0
    0.3956  -13.6289    1.2207 H   0  0  0  0  0  0  0  0  0  0  0  0
   -0.9428  -13.0185   -1.0451 H   0  0  0  0  0  0  0  0  0  0  0  0
   -1.5369  -14.5413   -0.3410 H   0  0  0  0  0  0  0  0  0  0  0  0
    2.6493  -13.6766   -0.2069 H   0  0  0  0  0  0  0  0  0  0  0  0
   -2.5625   -5.3118    0.1883 H   0  0  0  0  0  0  0  0  0  0  0  0
   -4.0003   -3.5131    0.9847 H   0  0  0  0  0  0  0  0  0  0  0  0
   -3.8840    0.8223   -1.4146 H   0  0  0  0  0  0  0  0  0  0  0  0
   -2.4924    0.7068   -0.2877 H   0  0  0  0  0  0  0  0  0  0  0  0
   -3.9907    1.5430    0.2036 H   0  0  0  0  0  0  0  0  0  0  0  0
   -2.5495   -0.9552   -2.1179 H   0  0  0  0  0  0  0  0  0  0  0  0
   -1.1646   -2.7718   -2.9576 H   0  0  0  0  0  0  0  0  0  0  0  0
   -2.1002   -6.5419   -3.6358 H   0  0  0  0  0  0  0  0  0  0  0  0
   -2.8436   -8.8914   -3.4130 H   0  0  0  0  0  0  0  0  0  0  0  0
   -3.1414  -10.4306    0.9256 H   0  0  0  0  0  0  0  0  0  0  0  0
   -1.5590  -11.2600    0.7585 H   0  0  0  0  0  0  0  0  0  0  0  0
   -3.0698  -12.1506    0.4800 H   0  0  0  0  0  0  0  0  0  0  0  0
   -1.2223   -9.0157    0.5463 H   0  0  0  0  0  0  0  0  0  0  0  0
   -0.4629   -6.7044    0.3047 H   0  0  0  0  0  0  0  0  0  0  0  0
    6.7625   -2.1449   -3.1966 H   0  0  0  0  0  0  0  0  0  0  0  0
    8.5324   -3.7140   -2.5286 H   0  0  0  0  0  0  0  0  0  0  0  0
    8.9427   -7.3201    1.1007 H   0  0  0  0  0  0  0  0  0  0  0  0
    7.2702   -7.2597    0.5012 H   0  0  0  0  0  0  0  0  0  0  0  0
    7.8642   -6.0209    1.6583 H   0  0  0  0  0  0  0  0  0  0  0  0
    5.9648   -5.3160    0.4947 H   0  0  0  0  0  0  0  0  0  0  0  0
    4.2404   -3.7410   -0.1293 H   0  0  0  0  0  0  0  0  0  0  0  0
    6.4328   -0.2865   -1.4984 H   0  0  0  0  0  0  0  0  0  0  0  0
    6.8727    1.8741   -2.5328 H   0  0  0  0  0  0  0  0  0  0  0  0
    7.3749    3.9704   -3.3824 H   0  0  0  0  0  0  0  0  0  0  0  0
    7.7212    2.7595   -4.6590 H   0  0  0  0  0  0  0  0  0  0  0  0
    7.4212    4.4597   -5.0886 H   0  0  0  0  0  0  0  0  0  0  0  0
    3.2934    1.4986   -4.8495 H   0  0  0  0  0  0  0  0  0  0  0  0
    2.8518   -0.6766   -3.8024 H   0  0  0  0  0  0  0  0  0  0  0  0
    1.7711   -3.8277    1.9400 H   0  0  0  0  0  0  0  0  0  0  0  0
   -0.2912   -5.0043    2.5524 H   0  0  0  0  0  0  0  0  0  0  0  0
   -4.9163   -3.4842    4.1941 H   0  0  0  0  0  0  0  0  0  0  0  0
   -3.6644   -2.3741    4.7868 H   0  0  0  0  0  0  0  0  0  0  0  0
   -4.2236   -2.2768    3.0863 H   0  0  0  0  0  0  0  0  0  0  0  0
   -2.1957   -1.2504    3.3196 H   0  0  0  0  0  0  0  0  0  0  0  0
   -0.1591   -0.0956    2.7472 H   0  0  0  0  0  0  0  0  0  0  0  0
    2.7780   -2.8843    3.9283 H   0  0  0  0  0  0  0  0  0  0  0  0
    4.9685   -3.8962    4.3279 H   0  0  0  0  0  0  0  0  0  0  0  0
    8.4005   -2.9904    0.9668 H   0  0  0  0  0  0  0  0  0  0  0  0
    9.6214   -3.3378    2.2097 H   0  0  0  0  0  0  0  0  0  0  0  0
    8.7334   -1.7977    2.2664 H   0  0  0  0  0  0  0  0  0  0  0  0
    6.6258   -1.5434    1.1701 H   0  0  0  0  0  0  0  0  0  0  0  0
    4.4733   -0.5692    0.7491 H   0  0  0  0  0  0  0  0  0  0  0  0
    3.1885    5.3649   -2.2670 H   0  0  0  0  0  0  0  0  0  0  0  0
    2.9578    4.8417   -4.6295 H   0  0  0  0  0  0  0  0  0  0  0  0
    3.2531    3.7682   -6.6077 H   0  0  0  0  0  0  0  0  0  0  0  0
    2.0657    5.0994   -6.8090 H   0  0  0  0  0  0  0  0  0  0  0  0
    2.1269    3.7674   -7.9855 H   0  0  0  0  0  0  0  0  0  0  0  0
   -0.4735    2.4369   -3.7735 H   0  0  0  0  0  0  0  0  0  0  0  0
   -0.2704    3.0200   -1.3800 H   0  0  0  0  0  0  0  0  0  0  0  0
    1.0683    6.7817   -1.4540 H   0  0  0  0  0  0  0  0  0  0  0  0
    1.7712    9.0224   -0.6921 H   0  0  0  0  0  0  0  0  0  0  0  0
    3.6863    9.2946    3.7526 H   0  0  0  0  0  0  0  0  0  0  0  0
    5.1486    9.1462    2.7226 H   0  0  0  0  0  0  0  0  0  0  0  0
    4.5720   10.7464    3.2377 H   0  0  0  0  0  0  0  0  0  0  0  0
    3.7751    7.2366    2.6361 H   0  0  0  0  0  0  0  0  0  0  0  0
    3.1034    5.0379    1.8726 H   0  0  0  0  0  0  0  0  0  0  0  0
    0.2766    1.4304    5.8646 H   0  0  0  0  0  0  0  0  0  0  0  0
    2.1923    1.6666    7.3888 H   0  0  0  0  0  0  0  0  0  0  0  0
    3.4964    6.1250    8.4173 H   0  0  0  0  0  0  0  0  0  0  0  0
    5.1336    5.5933    8.8605 H   0  0  0  0  0  0  0  0  0  0  0  0
    4.7330    5.8418    7.1482 H   0  0  0  0  0  0  0  0  0  0  0  0
    2.5805    5.7722    6.2567 H   0  0  0  0  0  0  0  0  0  0  0  0
    0.6643    5.5490    4.7796 H   0  0  0  0  0  0  0  0  0  0  0  0
   -2.1335    2.1707    2.4754 H   0  0  0  0  0  0  0  0  0  0  0  0
   -4.0999    0.7600    2.7412 H   0  0  0  0  0  0  0  0  0  0  0  0
   -6.0105   -0.5023    2.8230 H   0  0  0  0  0  0  0  0  0  0  0  0
   -7.4621   -0.2681    3.8194 H   0  0  0  0  0  0  0  0  0  0  0  0
   -6.4842    1.1421    3.3465 H   0  0  0  0  0  0  0  0  0  0  0  0
   -3.7920    1.1378    6.9895 H   0  0  0  0  0  0  0  0  0  0  0  0
   -1.8128    2.5779    6.7210 H   0  0  0  0  0  0  0  0  0  0  0  0
   -3.9644    8.8834    2.9269 H   0  0  0  0  0  0  0  0  0  0  0  0
   -5.4819   10.7717    3.0908 H   0  0  0  0  0  0  0  0  0  0  0  0
   -7.9065   11.0376    3.1578 H   0  0  0  0  0  0  0  0  0  0  0  0
   -6.9758   12.5497    3.4093 H   0  0  0  0  0  0  0  0  0  0  0  0
   -8.6569   12.6196    2.8427 H   0  0  0  0  0  0  0  0  0  0  0  0
   -6.3244   10.4689   -1.0909 H   0  0  0  0  0  0  0  0  0  0  0  0
   -4.8326    8.5205   -1.2469 H   0  0  0  0  0  0  0  0  0  0  0  0
   -3.1809    5.1681   -0.7264 H   0  0  0  0  0  0  0  0  0  0  0  0
   -1.8351    5.0010   -2.7757 H   0  0  0  0  0  0  0  0  0  0  0  0
    1.2875    8.4984   -3.4860 H   0  0  0  0  0  0  0  0  0  0  0  0
    1.3370    8.1723   -5.2315 H   0  0  0  0  0  0  0  0  0  0  0  0
    0.0221    9.1645   -4.5718 H   0  0  0  0  0  0  0  0  0  0  0  0
   -0.7567    9.1240   -2.3987 H   0  0  0  0  0  0  0  0  0  0  0  0
   -2.0980    9.2896   -0.3742 H   0  0  0  0  0  0  0  0  0  0  0  0
   -5.8882    6.6987    4.1163 H   0  0  0  0  0  0  0  0  0  0  0  0
   -9.9703    9.3153   -1.5332 H   0  0  0  0  0  0  0  0  0  0  0  0
   -8.0113    7.6274   -1.9216 H   0  0  0  0  0  0  0  0  0  0  0  0
  1  2  2  0  0  0  0
  2  3  1  0  0  0  0
  3  4  2  0  0  0  0
  3  5  1  0  0  0  0
  5  6  2  0  0  0  0
  6  7  1  0  0  0  0
  7  8  2  0  0  0  0
  8  9  1  0  0  0  0
  9 10  2  0  0  0  0
 10 11  1  0  0  0  0
 11 12  2  0  0  0  0
 12 13  1  0  0  0  0
 13 14  3  0  0  0  0
 12 15  1  0  0  0  0
 15 16  3  0  0  0  0
  8 17  1  0  0  0  0
 17 18  1  0  0  0  0
 18 19  1  0  0  0  0
 19 20  2  0  0  0  0
 20 21  1  0  0  0  0
 21 22  1  0  0  0  0
 21 23  1  0  0  0  0
  1 24  1  0  0  0  0
 24 25  2  0  0  0  0
 25 26  1  0  0  0  0
 26 27  1  0  0  0  0
 27 28  2  0  0  0  0
 28 29  1  0  0  0  0
 29 30  2  0  0  0  0
 30 31  1  0  0  0  0
 31 32  1  0  0  0  0
 30 33  1  0  0  0  0
 33 34  2  0  0  0  0
 26 35  1  0  0  0  0
 35 36  2  0  0  0  0
 36 37  1  0  0  0  0
 37 38  2  0  0  0  0
 38 39  1  0  0  0  0
 39 40  1  0  0  0  0
 38 41  1  0  0  0  0
 41 42  2  0  0  0  0
 25 43  1  0  0  0  0
 43 44  1  0  0  0  0
 44 45  1  0  0  0  0
 45 46  2  0  0  0  0
 46 47  1  0  0  0  0
 47 48  1  0  0  0  0
 48 49  2  0  0  0  0
 49 50  1  0  0  0  0
 50 51  2  0  0  0  0
 51 52  1  0  0  0  0
 52 53  1  0  0  0  0
 51 54  1  0  0  0  0
 54 55  2  0  0  0  0
 47 56  1  0  0  0  0
 56 57  2  0  0  0  0
 57 58  1  0  0  0  0
 58 59  2  0  0  0  0
 59 60  1  0  0  0  0
 60 61  1  0  0  0  0
 59 62  1  0  0  0  0
 62 63  2  0  0  0  0
 46 64  1  0  0  0  0
 64 65  1  0  0  0  0
 45 66  1  0  0  0  0
 66 67  2  0  0  0  0
 67 68  1  0  0  0  0
 68 69  1  0  0  0  0
 69 70  2  0  0  0  0
 70 71  1  0  0  0  0
 71 72  2  0  0  0  0
 72 73  1  0  0  0  0
 73 74  1  0  0  0  0
 72 75  1  0  0  0  0
 75 76  2  0  0  0  0
 68 77  1  0  0  0  0
 77 78  2  0  0  0  0
 78 79  1  0  0  0  0
 79 80  2  0  0  0  0
 80 81  1  0  0  0  0
 81 82  1  0  0  0  0
 80 83  1  0  0  0  0
 83 84  2  0  0  0  0
 67 85  1  0  0  0  0
 85 86  1  0  0  0  0
 86 87  1  0  0  0  0
 87 88  2  0  0  0  0
 88 89  1  0  0  0  0
 89 90  1  0  0  0  0
 90 91  2  0  0  0  0
 91 92  1  0  0  0  0
 92 93  2  0  0  0  0
 93 94  1  0  0  0  0
 94 95  1  0  0  0  0
 93 96  1  0  0  0  0
 96 97  2  0  0  0  0
 89 98  1  0  0  0  0
 98 99  2  0  0  0  0
 99100  1  0  0  0  0
100101  2  0  0  0  0
101102  1  0  0  0  0
102103  1  0  0  0  0
101104  1  0  0  0  0
104105  2  0  0  0  0
 88106  1  0  0  0  0
106107  1  0  0  0  0
 87108  1  0  0  0  0
108109  2  0  0  0  0
109110  1  0  0  0  0
110111  1  0  0  0  0
111112  2  0  0  0  0
112113  1  0  0  0  0
113114  2  0  0  0  0
114115  1  0  0  0  0
115116  1  0  0  0  0
114117  1  0  0  0  0
117118  2  0  0  0  0
110119  1  0  0  0  0
119120  2  0  0  0  0
120121  1  0  0  0  0
121122  2  0  0  0  0
122123  1  0  0  0  0
123124  1  0  0  0  0
122125  1  0  0  0  0
125126  2  0  0  0  0
109127  1  0  0  0  0
127128  1  0  0  0  0
128129  1  0  0  0  0
129130  2  0  0  0  0
130131  1  0  0  0  0
131132  1  0  0  0  0
132133  2  0  0  0  0
133134  1  0  0  0  0
134135  2  0  0  0  0
135136  1  0  0  0  0
136137  1  0  0  0  0
135138  1  0  0  0  0
138139  2  0  0  0  0
131140  1  0  0  0  0
140141  2  0  0  0  0
141142  1  0  0  0  0
142143  2  0  0  0  0
143144  1  0  0  0  0
144145  1  0  0  0  0
143146  1  0  0  0  0
146147  2  0  0  0  0
130148  1  0  0  0  0
148149  1  0  0  0  0
129150  1  0  0  0  0
150151  2  0  0  0  0
151152  1  0  0  0  0
152153  2  0  0  0  0
152154  1  0  0  0  0
154155  1  0  0  0  0
155156  1  0  0  0  0
156157  2  0  0  0  0
157158  1  0  0  0  0
158159  1  0  0  0  0
159160  2  0  0  0  0
160161  1  0  0  0  0
161162  3  0  0  0  0
160163  1  0  0  0  0
163164  3  0  0  0  0
 11  2  1  0  0  0  0
 23 17  1  0  0  0  0
 65 24  1  0  0  0  0
107 66  1  0  0  0  0
149108  1  0  0  0  0
159151  1  0  0  0  0
 10  5  1  0  0  0  0
 22 18  1  0  0  0  0
 34 27  1  0  0  0  0
 42 35  1  0  0  0  0
 64 43  2  0  0  0  0
 76 69  1  0  0  0  0
 84 77  1  0  0  0  0
106 85  2  0  0  0  0
118111  1  0  0  0  0
126119  1  0  0  0  0
148127  2  0  0  0  0
158154  2  0  0  0  0
 23  7  1  0  0  0  0
 55 48  1  0  0  0  0
 63 56  1  0  0  0  0
 97 90  1  0  0  0  0
105 98  1  0  0  0  0
139132  1  0  0  0  0
147140  1  0  0  0  0
  1165  1  0  0  0  0
  6166  1  0  0  0  0
  9167  1  0  0  0  0
 17168  1  0  0  0  0
 18169  1  0  0  0  0
 19170  1  0  0  0  0
 20171  1  0  0  0  0
 21172  1  0  0  0  0
 22173  1  0  0  0  0
 22174  1  0  0  0  0
 23175  1  0  0  0  0
 28176  1  0  0  0  0
 29177  1  0  0  0  0
 32178  1  0  0  0  0
 32179  1  0  0  0  0
 32180  1  0  0  0  0
 33181  1  0  0  0  0
 34182  1  0  0  0  0
 36183  1  0  0  0  0
 37184  1  0  0  0  0
 40185  1  0  0  0  0
 40186  1  0  0  0  0
 40187  1  0  0  0  0
 41188  1  0  0  0  0
 42189  1  0  0  0  0
 49190  1  0  0  0  0
 50191  1  0  0  0  0
 53192  1  0  0  0  0
 53193  1  0  0  0  0
 53194  1  0  0  0  0
 54195  1  0  0  0  0
 55196  1  0  0  0  0
 57197  1  0  0  0  0
 58198  1  0  0  0  0
 61199  1  0  0  0  0
 61200  1  0  0  0  0
 61201  1  0  0  0  0
 62202  1  0  0  0  0
 63203  1  0  0  0  0
 70204  1  0  0  0  0
 71205  1  0  0  0  0
 74206  1  0  0  0  0
 74207  1  0  0  0  0
 74208  1  0  0  0  0
 75209  1  0  0  0  0
 76210  1  0  0  0  0
 78211  1  0  0  0  0
 79212  1  0  0  0  0
 82213  1  0  0  0  0
 82214  1  0  0  0  0
 82215  1  0  0  0  0
 83216  1  0  0  0  0
 84217  1  0  0  0  0
 91218  1  0  0  0  0
 92219  1  0  0  0  0
 95220  1  0  0  0  0
 95221  1  0  0  0  0
 95222  1  0  0  0  0
 96223  1  0  0  0  0
 97224  1  0  0  0  0
 99225  1  0  0  0  0
100226  1  0  0  0  0
103227  1  0  0  0  0
103228  1  0  0  0  0
103229  1  0  0  0  0
104230  1  0  0  0  0
105231  1  0  0  0  0
112232  1  0  0  0  0
113233  1  0  0  0  0
116234  1  0  0  0  0
116235  1  0  0  0  0
116236  1  0  0  0  0
117237  1  0  0  0  0
118238  1  0  0  0  0
120239  1  0  0  0  0
121240  1  0  0  0  0
124241  1  0  0  0  0
124242  1  0  0  0  0
124243  1  0  0  0  0
125244  1  0  0  0  0
126245  1  0  0  0  0
133246  1  0  0  0  0
134247  1  0  0  0  0
137248  1  0  0  0  0
137249  1  0  0  0  0
137250  1  0  0  0  0
138251  1  0  0  0  0
139252  1  0  0  0  0
141253  1  0  0  0  0
142254  1  0  0  0  0
145255  1  0  0  0  0
145256  1  0  0  0  0
145257  1  0  0  0  0
146258  1  0  0  0  0
147259  1  0  0  0  0
150260  1  0  0  0  0
156261  1  0  0  0  0
157262  1  0  0  0  0
M  END
