180

C          7.71980        2.58360        0.30930
C          8.12860        3.59610        1.10470
C          7.24420        4.72250        1.53950
O          6.06480        4.86500        1.30940
C          8.13120        5.68640        2.20930
C          7.75380        6.90130        2.78030
C          8.79260        7.60200        3.34220
C         10.11650        7.13850        3.32350
C         10.50440        5.94980        2.75500
C          9.45860        5.21070        2.18900
C          9.48420        3.90780        1.53620
C         10.57190        3.08620        1.42810
C         11.87110        3.41210        1.87430
N         12.95160        3.60870        2.20830
C         10.55310        1.77760        0.89970
N         10.63230        0.69420        0.52900
C         10.63200        8.34120        4.07310
C         10.94550        8.13370        5.57040
C         10.95710        9.53590        6.13510
C          9.70450        9.97340        6.15490
C          8.82500        8.87420        5.60400
C          9.59350        7.64510        6.10650
C          9.15690        8.85610        4.09630
C          6.32380        2.30740        0.03730
C          5.88420        2.06670       -1.28850
N          6.79960        2.10540       -2.28340
C          6.38520        1.94670       -3.50010
C          5.00140        1.77360       -3.79950
O          4.65720        1.68900       -5.07740
C          3.27050        1.51260       -5.36000
C          3.08610        1.52440       -6.86590
N          4.09730        1.70050       -2.85130
C          4.51760        1.82390       -1.57460
C          3.57070        1.72870       -0.51860
C          4.03510        1.96300        0.76630
C          5.37350        2.24750        1.04010
F          5.74610        2.34660        2.32600
F          3.19960        1.83850        1.81060
C          2.18490        1.36640       -0.74350
C          1.67270        0.26710       -1.41560
N          2.40880       -0.72540       -2.03360
C          1.88060       -1.40970       -3.13290
C          1.03050       -0.77610       -4.03730
C          0.50950       -1.46080       -5.11870
C          0.83240       -2.79490       -5.31890
S          0.23310       -3.76450       -6.66710
C         -1.12040       -2.76240       -7.34640
C          1.69560       -3.42930       -4.42670
C          2.21060       -2.74960       -3.34710
C          3.71660       -1.00310       -1.60290
C          4.74710       -1.18110       -2.52650
C          6.04800       -1.30470       -2.09690
C          6.35450       -1.26350       -0.73650
S          8.06340       -1.30370       -0.31860
C          8.08020       -1.07410        1.47930
C          5.32100       -1.18210        0.18780
C          4.01510       -1.05730       -0.24490
C          0.25590        0.23120       -1.30860
S         -0.95680       -0.91320       -1.77820
C         -2.19690        0.09370       -1.06940
C         -1.68780        1.20980       -0.41570
N         -2.41560        2.06180        0.39070
C         -2.03460        3.40430        0.50380
C         -1.52790        4.09010       -0.59630
C         -1.12340        5.40570       -0.48170
C         -1.22940        6.06090        0.73720
S         -0.74650        7.73530        1.00830
C          0.06840        8.21160       -0.54260
C         -1.76030        5.38400        1.83500
C         -2.15570        4.07130        1.72340
C         -3.52850        1.58150        1.09880
C         -3.49750        0.32110        1.69270
C         -4.63300       -0.21700        2.26330
C         -5.82130        0.50310        2.26000
S         -7.34950       -0.12110        2.88480
C         -7.08610       -1.91870        2.92580
C         -5.83410        1.79770        1.74480
C         -4.70200        2.33310        1.17050
C         -0.28150        1.27970       -0.57870
S          0.94040        2.33380        0.02790
C         -3.57950       -0.30410       -1.10750
C         -3.96990       -1.63030       -0.77830
N         -3.01070       -2.55880       -0.58490
C         -3.36020       -3.73820       -0.17730
C         -4.71690       -4.03170        0.14510
O         -4.98490       -5.21720        0.68270
C         -6.33900       -5.48430        1.03450
C         -6.40420       -6.88110        1.62480
N         -5.66920       -3.15200       -0.05040
C         -5.33240       -1.95500       -0.57460
C         -6.34630       -0.98680       -0.81880
C         -5.93550        0.28010       -1.20430
C         -4.59150        0.61320       -1.35110
F         -4.27580        1.86070       -1.74620
F         -6.85980        1.21660       -1.45780
C         -7.73580       -1.27340       -0.56460
C         -8.32110       -2.45530       -0.86400
C         -7.73390       -3.47290       -1.78170
O         -6.79460       -3.33710       -2.53430
C         -8.62080       -4.64730       -1.68650
C         -8.44170       -5.88150       -2.31140
C         -9.43140       -6.79480       -2.04270
C        -10.53100       -6.49940       -1.22390
C        -10.73010       -5.28330       -0.61700
C         -9.72800       -4.33870       -0.86910
C         -9.60520       -2.96010       -0.40390
C        -10.52460       -2.28340        0.35030
C        -11.73900       -2.83290        0.81400
N        -12.73630       -3.21780        1.23290
C        -10.41590       -0.93450        0.75660
N        -10.41760        0.15400        1.11970
C        -11.12480       -7.87630       -1.38870
C        -10.94300       -8.85070       -0.20550
C        -11.17840      -10.21250       -0.81800
C        -10.13760      -10.49240       -1.59190
C         -9.18080       -9.32440       -1.51550
C         -9.41560       -8.88460       -0.06470
C         -9.89890       -8.20560       -2.30010
H          8.42890        1.94820       -0.20550
H          6.72370        7.22120        2.76660
H         11.52750        5.61330        2.73970
H         11.38470        8.93540        3.55880
H         11.81740        7.51730        5.77100
H         11.85140       10.06760        6.40210
H          9.34340       10.94350        6.44170
H          7.76510        8.93250        5.83600
H          9.25750        6.70390        5.67530
H          9.58470        7.57100        7.19260
H          8.92370        9.79520        3.59810
H          7.11840        1.96030       -4.29300
H          2.94080        0.56040       -4.93110
H          2.70500        2.31840       -4.87860
H          3.66370        0.72320       -7.31860
H          2.03620        1.38260       -7.10410
H          3.42130        2.47130       -7.28030
H          0.78020        0.26480       -3.90020
H         -0.14070       -0.93620       -5.79990
H         -1.61860       -3.39690       -8.07280
H         -1.81040       -2.49560       -6.55160
H         -0.72570       -1.88000       -7.84200
H          1.94690       -4.46620       -4.58800
H          2.86750       -3.25330       -2.65430
H          4.52300       -1.19110       -3.58290
H          6.85170       -1.40810       -2.80950
H          9.13030       -0.98640        1.74040
H          7.64240       -1.93660        1.97350
H          7.55890       -0.15850        1.74400
H          5.51830       -1.20810        1.24720
H          3.21720       -0.98410        0.47930
H         -1.46680        3.59330       -1.55280
H         -0.73750        5.90780       -1.35390
H          0.89000        7.53220       -0.74950
H          0.45030        9.21400       -0.37580
H         -0.65150        8.22430       -1.35590
H         -1.84620        5.90140        2.77800
H         -2.55250        3.54900        2.58090
H         -2.58070       -0.25010        1.68800
H         -4.58010       -1.19860        2.70700
H         -8.06460       -2.34910        3.11860
H         -6.40730       -2.18500        3.73130
H         -6.71230       -2.25600        1.96230
H         -6.75250        2.36310        1.77110
H         -4.72890        3.32020        0.73490
H         -2.59010       -4.48440       -0.05260
H         -6.96530       -5.39970        0.13910
H         -6.67710       -4.73280        1.75810
H         -6.11240       -7.61780        0.88160
H         -5.72930       -6.95800        2.47280
H         -7.41620       -7.09090        1.95840
H         -8.29410       -0.48850       -0.07010
H         -7.58460       -6.06210       -2.94150
H        -11.58780       -5.06910       -0.00180
H        -12.12210       -7.91400       -1.82180
H        -11.52320       -8.60490        0.67960
H        -12.07360      -10.78810       -0.67380
H         -9.98970      -11.34850       -2.22340
H         -8.15560       -9.51130       -1.82350
H         -8.97340       -7.92110        0.18130
H         -9.08370       -9.63380        0.65210
H        -10.07830       -8.46390       -3.34190
