
  xtb     02162216223D
 energy: -280.216316995446 gnorm: 0.000983685231 xtb: 6.4.1 (unknown)
153171  0     0  0            999 V2000
   -2.1211    3.1510    5.9882 C   0  0  0  0  0  0  0  0  0  0  0  0
   -3.3293    3.7800    6.0704 C   0  0  0  0  0  0  0  0  0  0  0  0
   -4.5235    3.4405    5.2564 C   0  0  0  0  0  0  0  0  0  0  0  0
   -4.6599    2.5097    4.4901 O   0  0  0  0  0  0  0  0  0  0  0  0
   -5.5843    4.3672    5.6976 C   0  0  0  0  0  0  0  0  0  0  0  0
   -6.8728    4.4717    5.1798 C   0  0  0  0  0  0  0  0  0  0  0  0
   -7.6504    5.4222    5.7967 C   0  0  0  0  0  0  0  0  0  0  0  0
   -7.1821    6.2094    6.8571 C   0  0  0  0  0  0  0  0  0  0  0  0
   -5.9171    6.1101    7.3841 C   0  0  0  0  0  0  0  0  0  0  0  0
   -5.1096    5.1479    6.7702 C   0  0  0  0  0  0  0  0  0  0  0  0
   -3.7262    4.7703    7.0494 C   0  0  0  0  0  0  0  0  0  0  0  0
   -2.9436    5.3051    8.0411 C   0  0  0  0  0  0  0  0  0  0  0  0
   -3.3792    6.2647    8.9785 C   0  0  0  0  0  0  0  0  0  0  0  0
   -3.6574    7.0338    9.7851 N   0  0  0  0  0  0  0  0  0  0  0  0
   -1.5950    4.9842    8.2900 C   0  0  0  0  0  0  0  0  0  0  0  0
   -0.4955    4.8046    8.5718 N   0  0  0  0  0  0  0  0  0  0  0  0
   -8.4901    6.9476    6.9930 C   0  0  0  0  0  0  0  0  0  0  0  0
   -9.4264    6.5497    8.1604 C   0  0  0  0  0  0  0  0  0  0  0  0
   -9.1148    5.1105    8.4875 C   0  0  0  0  0  0  0  0  0  0  0  0
   -9.5585    4.3627    7.4861 C   0  0  0  0  0  0  0  0  0  0  0  0
  -10.1785    5.2828    6.4637 C   0  0  0  0  0  0  0  0  0  0  0  0
  -10.7436    6.3730    7.3882 C   0  0  0  0  0  0  0  0  0  0  0  0
   -9.0132    6.0690    5.8132 C   0  0  0  0  0  0  0  0  0  0  0  0
   -1.6572    2.3818    4.8879 C   0  0  0  0  0  0  0  0  0  0  0  0
   -1.9838    2.6378    3.5392 C   0  0  0  0  0  0  0  0  0  0  0  0
   -1.4219    1.8735    2.4458 C   0  0  0  0  0  0  0  0  0  0  0  0
   -1.8956    2.2776    1.2638 N   0  0  0  0  0  0  0  0  0  0  0  0
   -2.8951    3.5096    1.5013 S   0  0  0  0  0  4  0  0  0  0  0  0
   -2.7805    3.6093    3.0933 N   0  0  0  0  0  0  0  0  0  0  0  0
   -0.4930    0.8290    2.6414 C   0  0  0  0  0  0  0  0  0  0  0  0
   -0.2307    0.5184    3.9907 C   0  0  0  0  0  0  0  0  0  0  0  0
    0.5908   -0.4396    4.4222 N   0  0  0  0  0  0  0  0  0  0  0  0
    0.6954   -0.3566    6.0227 S   0  0  0  0  0  0  0  0  0  0  0  0
   -0.2817    0.8977    6.2577 N   0  0  0  0  0  0  0  0  0  0  0  0
   -0.7504    1.3166    5.0805 C   0  0  0  0  0  0  0  0  0  0  0  0
    0.1928    0.1961    1.5705 C   0  0  0  0  0  0  0  0  0  0  0  0
    0.6516    0.7937    0.3894 C   0  0  0  0  0  0  0  0  0  0  0  0
    0.7388    2.1443    0.1492 N   0  0  0  0  0  0  0  0  0  0  0  0
    0.7977    2.5646   -1.1879 C   0  0  0  0  0  0  0  0  0  0  0  0
   -0.0965    2.0323   -2.1143 C   0  0  0  0  0  0  0  0  0  0  0  0
    0.0720    2.2685   -3.4630 C   0  0  0  0  0  0  0  0  0  0  0  0
    1.1442    3.0363   -3.9003 C   0  0  0  0  0  0  0  0  0  0  0  0
    1.5436    3.2286   -5.6077 S   0  0  0  0  0  0  0  0  0  0  0  0
    0.8588    1.7108   -6.3377 C   0  0  0  0  0  0  0  0  0  0  0  0
    1.9637    3.6694   -2.9678 C   0  0  0  0  0  0  0  0  0  0  0  0
    1.7915    3.4417   -1.6206 C   0  0  0  0  0  0  0  0  0  0  0  0
    0.8909    3.0532    1.2031 C   0  0  0  0  0  0  0  0  0  0  0  0
    1.6312    2.7137    2.3338 C   0  0  0  0  0  0  0  0  0  0  0  0
    1.6306    3.5254    3.4483 C   0  0  0  0  0  0  0  0  0  0  0  0
    0.8942    4.7054    3.4504 C   0  0  0  0  0  0  0  0  0  0  0  0
    0.7014    5.7368    4.8617 S   0  0  0  0  0  0  0  0  0  0  0  0
    1.5362    4.8172    6.1823 C   0  0  0  0  0  0  0  0  0  0  0  0
    0.2528    5.1052    2.2774 C   0  0  0  0  0  0  0  0  0  0  0  0
    0.2569    4.2951    1.1636 C   0  0  0  0  0  0  0  0  0  0  0  0
    1.1897   -0.1782   -0.4814 C   0  0  0  0  0  0  0  0  0  0  0  0
    1.9273   -0.0819   -2.0417 S   0  0  0  0  0  0  0  0  0  0  0  0
    2.1906   -1.8205   -2.0448 C   0  0  0  0  0  0  0  0  0  0  0  0
    1.8754   -2.4058   -0.7982 C   0  0  0  0  0  0  0  0  0  0  0  0
    2.2127   -3.6591   -0.3570 N   0  0  0  0  0  0  0  0  0  0  0  0
    3.3107   -4.3660   -0.8423 C   0  0  0  0  0  0  0  0  0  0  0  0
    4.4268   -3.7065   -1.3604 C   0  0  0  0  0  0  0  0  0  0  0  0
    5.4242   -4.4074   -2.0023 C   0  0  0  0  0  0  0  0  0  0  0  0
    5.3475   -5.7936   -2.1105 C   0  0  0  0  0  0  0  0  0  0  0  0
    6.4866   -6.7545   -3.0394 S   0  0  0  0  0  0  0  0  0  0  0  0
    7.1660   -5.5509   -4.2141 C   0  0  0  0  0  0  0  0  0  0  0  0
    4.3110   -6.4657   -1.4602 C   0  0  0  0  0  0  0  0  0  0  0  0
    3.3077   -5.7651   -0.8335 C   0  0  0  0  0  0  0  0  0  0  0  0
    1.4094   -4.2412    0.6443 C   0  0  0  0  0  0  0  0  0  0  0  0
    1.9890   -4.7842    1.7903 C   0  0  0  0  0  0  0  0  0  0  0  0
    1.1925   -5.3250    2.7728 C   0  0  0  0  0  0  0  0  0  0  0  0
   -0.1960   -5.3386    2.6322 C   0  0  0  0  0  0  0  0  0  0  0  0
   -1.1064   -6.0453    3.9623 S   0  0  0  0  0  0  0  0  0  0  0  0
   -2.8413   -5.7674    3.5067 C   0  0  0  0  0  0  0  0  0  0  0  0
   -0.7728   -4.8166    1.4811 C   0  0  0  0  0  0  0  0  0  0  0  0
    0.0269   -4.2712    0.4963 C   0  0  0  0  0  0  0  0  0  0  0  0
    1.2444   -1.4590    0.0462 C   0  0  0  0  0  0  0  0  0  0  0  0
    0.6096   -1.5048    1.6654 S   0  0  0  0  0  0  0  0  0  0  0  0
    2.6254   -2.3708   -3.2716 C   0  0  0  0  0  0  0  0  0  0  0  0
    2.5262   -3.7232   -3.6748 C   0  0  0  0  0  0  0  0  0  0  0  0
    3.0783   -4.1959   -4.9278 C   0  0  0  0  0  0  0  0  0  0  0  0
    2.8505   -5.4956   -5.1081 N   0  0  0  0  0  0  0  0  0  0  0  0
    2.0076   -6.0627   -3.8626 S   0  0  0  0  0  4  0  0  0  0  0  0
    1.8938   -4.6973   -3.0192 N   0  0  0  0  0  0  0  0  0  0  0  0
    3.6871   -3.3472   -5.8813 C   0  0  0  0  0  0  0  0  0  0  0  0
    3.7407   -1.9874   -5.5038 C   0  0  0  0  0  0  0  0  0  0  0  0
    4.3270   -0.9997   -6.1800 N   0  0  0  0  0  0  0  0  0  0  0  0
    4.1439    0.3780   -5.3843 S   0  0  0  0  0  0  0  0  0  0  0  0
    3.3563   -0.2054   -4.1058 N   0  0  0  0  0  0  0  0  0  0  0  0
    3.1945   -1.5201   -4.2538 C   0  0  0  0  0  0  0  0  0  0  0  0
    4.2114   -3.8555   -7.0911 C   0  0  0  0  0  0  0  0  0  0  0  0
    4.2662   -3.1782   -8.2810 C   0  0  0  0  0  0  0  0  0  0  0  0
    3.3684   -2.0594   -8.6629 C   0  0  0  0  0  0  0  0  0  0  0  0
    2.5248   -1.5063   -7.9850 O   0  0  0  0  0  0  0  0  0  0  0  0
    3.6031   -1.8514  -10.1021 C   0  0  0  0  0  0  0  0  0  0  0  0
    3.0097   -0.9485  -10.9600 C   0  0  0  0  0  0  0  0  0  0  0  0
    3.3691   -0.9507  -12.2993 C   0  0  0  0  0  0  0  0  0  0  0  0
    4.3110   -1.8634  -12.7761 C   0  0  0  0  0  0  0  0  0  0  0  0
    4.7158   -1.9486  -14.0623 O   0  0  0  0  0  0  0  0  0  0  0  0
    4.1704   -1.0682  -15.0169 C   0  0  0  0  0  0  0  0  0  0  0  0
    4.9125   -2.7853  -11.9045 C   0  0  0  0  0  0  0  0  0  0  0  0
    4.5578   -2.7732  -10.5739 C   0  0  0  0  0  0  0  0  0  0  0  0
    5.0134   -3.5822   -9.4457 C   0  0  0  0  0  0  0  0  0  0  0  0
    6.0551   -4.4763   -9.4603 C   0  0  0  0  0  0  0  0  0  0  0  0
    6.5777   -5.0954   -8.3083 C   0  0  0  0  0  0  0  0  0  0  0  0
    7.0897   -5.5961   -7.4090 N   0  0  0  0  0  0  0  0  0  0  0  0
    6.7733   -4.8395  -10.6167 C   0  0  0  0  0  0  0  0  0  0  0  0
    7.3891   -5.1838  -11.5228 N   0  0  0  0  0  0  0  0  0  0  0  0
   -1.4395    3.2012    6.8285 H   0  0  0  0  0  0  0  0  0  0  0  0
   -7.1919    3.8473    4.3599 H   0  0  0  0  0  0  0  0  0  0  0  0
   -5.5747    6.7212    8.2023 H   0  0  0  0  0  0  0  0  0  0  0  0
   -8.4461    8.0249    6.8453 H   0  0  0  0  0  0  0  0  0  0  0  0
   -9.4247    7.2433    8.9969 H   0  0  0  0  0  0  0  0  0  0  0  0
   -8.5690    4.7994    9.3589 H   0  0  0  0  0  0  0  0  0  0  0  0
   -9.4570    3.3014    7.3533 H   0  0  0  0  0  0  0  0  0  0  0  0
  -10.8634    4.8225    5.7562 H   0  0  0  0  0  0  0  0  0  0  0  0
  -11.0594    7.2707    6.8582 H   0  0  0  0  0  0  0  0  0  0  0  0
  -11.5560    6.0125    8.0175 H   0  0  0  0  0  0  0  0  0  0  0  0
   -9.3145    6.5734    4.8969 H   0  0  0  0  0  0  0  0  0  0  0  0
   -0.9086    1.4130   -1.7642 H   0  0  0  0  0  0  0  0  0  0  0  0
   -0.6210    1.8354   -4.1662 H   0  0  0  0  0  0  0  0  0  0  0  0
   -0.2064    1.8234   -6.5186 H   0  0  0  0  0  0  0  0  0  0  0  0
    1.0569    0.8749   -5.6745 H   0  0  0  0  0  0  0  0  0  0  0  0
    1.3767    1.5624   -7.2801 H   0  0  0  0  0  0  0  0  0  0  0  0
    2.7624    4.3051   -3.3167 H   0  0  0  0  0  0  0  0  0  0  0  0
    2.4555    3.8947   -0.8997 H   0  0  0  0  0  0  0  0  0  0  0  0
    2.1950    1.7925    2.3488 H   0  0  0  0  0  0  0  0  0  0  0  0
    2.2026    3.2248    4.3109 H   0  0  0  0  0  0  0  0  0  0  0  0
    1.3124    5.3507    7.1010 H   0  0  0  0  0  0  0  0  0  0  0  0
    1.1284    3.8129    6.2465 H   0  0  0  0  0  0  0  0  0  0  0  0
    2.6083    4.8046    6.0077 H   0  0  0  0  0  0  0  0  0  0  0  0
   -0.2760    6.0457    2.2663 H   0  0  0  0  0  0  0  0  0  0  0  0
   -0.2703    4.5919    0.2691 H   0  0  0  0  0  0  0  0  0  0  0  0
    4.5040   -2.6329   -1.2794 H   0  0  0  0  0  0  0  0  0  0  0  0
    6.2603   -3.8683   -2.4185 H   0  0  0  0  0  0  0  0  0  0  0  0
    6.3609   -4.9353   -4.6037 H   0  0  0  0  0  0  0  0  0  0  0  0
    7.5998   -6.1269   -5.0251 H   0  0  0  0  0  0  0  0  0  0  0  0
    7.9317   -4.9453   -3.7377 H   0  0  0  0  0  0  0  0  0  0  0  0
    4.2855   -7.5437   -1.4935 H   0  0  0  0  0  0  0  0  0  0  0  0
    2.4762   -6.2940   -0.3951 H   0  0  0  0  0  0  0  0  0  0  0  0
    3.0621   -4.7660    1.9059 H   0  0  0  0  0  0  0  0  0  0  0  0
    1.6319   -5.7360    3.6683 H   0  0  0  0  0  0  0  0  0  0  0  0
   -3.4251   -6.1345    4.3451 H   0  0  0  0  0  0  0  0  0  0  0  0
   -3.0888   -6.3323    2.6126 H   0  0  0  0  0  0  0  0  0  0  0  0
   -3.0208   -4.7053    3.3690 H   0  0  0  0  0  0  0  0  0  0  0  0
   -1.8404   -4.8310    1.3361 H   0  0  0  0  0  0  0  0  0  0  0  0
   -0.4175   -3.8713   -0.4027 H   0  0  0  0  0  0  0  0  0  0  0  0
    4.5390   -4.8881   -7.0573 H   0  0  0  0  0  0  0  0  0  0  0  0
    2.2777   -0.2484  -10.5873 H   0  0  0  0  0  0  0  0  0  0  0  0
    2.9090   -0.2388  -12.9660 H   0  0  0  0  0  0  0  0  0  0  0  0
    3.0871   -1.1949  -15.1074 H   0  0  0  0  0  0  0  0  0  0  0  0
    4.3984   -0.0250  -14.7774 H   0  0  0  0  0  0  0  0  0  0  0  0
    4.6435   -1.3320  -15.9611 H   0  0  0  0  0  0  0  0  0  0  0  0
    5.6291   -3.4776  -12.3139 H   0  0  0  0  0  0  0  0  0  0  0  0
  1  2  2  0  0  0  0
  2  3  1  0  0  0  0
  3  4  2  0  0  0  0
  3  5  1  0  0  0  0
  5  6  2  0  0  0  0
  6  7  1  0  0  0  0
  7  8  2  0  0  0  0
  8  9  1  0  0  0  0
  9 10  2  0  0  0  0
 10 11  1  0  0  0  0
 11 12  2  0  0  0  0
 12 13  1  0  0  0  0
 13 14  3  0  0  0  0
 12 15  1  0  0  0  0
 15 16  3  0  0  0  0
  8 17  1  0  0  0  0
 17 18  1  0  0  0  0
 18 19  1  0  0  0  0
 19 20  2  0  0  0  0
 20 21  1  0  0  0  0
 21 22  1  0  0  0  0
 21 23  1  0  0  0  0
  1 24  1  0  0  0  0
 24 25  2  0  0  0  0
 25 26  1  0  0  0  0
 26 27  1  0  0  0  0
 27 28  2  0  0  0  0
 28 29  2  0  0  0  0
 26 30  2  0  0  0  0
 30 31  1  0  0  0  0
 31 32  2  0  0  0  0
 32 33  1  0  0  0  0
 33 34  1  0  0  0  0
 34 35  2  0  0  0  0
 30 36  1  0  0  0  0
 36 37  2  0  0  0  0
 37 38  1  0  0  0  0
 38 39  1  0  0  0  0
 39 40  2  0  0  0  0
 40 41  1  0  0  0  0
 41 42  2  0  0  0  0
 42 43  1  0  0  0  0
 43 44  1  0  0  0  0
 42 45  1  0  0  0  0
 45 46  2  0  0  0  0
 38 47  1  0  0  0  0
 47 48  2  0  0  0  0
 48 49  1  0  0  0  0
 49 50  2  0  0  0  0
 50 51  1  0  0  0  0
 51 52  1  0  0  0  0
 50 53  1  0  0  0  0
 53 54  2  0  0  0  0
 37 55  1  0  0  0  0
 55 56  1  0  0  0  0
 56 57  1  0  0  0  0
 57 58  2  0  0  0  0
 58 59  1  0  0  0  0
 59 60  1  0  0  0  0
 60 61  2  0  0  0  0
 61 62  1  0  0  0  0
 62 63  2  0  0  0  0
 63 64  1  0  0  0  0
 64 65  1  0  0  0  0
 63 66  1  0  0  0  0
 66 67  2  0  0  0  0
 59 68  1  0  0  0  0
 68 69  2  0  0  0  0
 69 70  1  0  0  0  0
 70 71  2  0  0  0  0
 71 72  1  0  0  0  0
 72 73  1  0  0  0  0
 71 74  1  0  0  0  0
 74 75  2  0  0  0  0
 58 76  1  0  0  0  0
 76 77  1  0  0  0  0
 57 78  1  0  0  0  0
 78 79  2  0  0  0  0
 79 80  1  0  0  0  0
 80 81  1  0  0  0  0
 81 82  2  0  0  0  0
 82 83  2  0  0  0  0
 80 84  2  0  0  0  0
 84 85  1  0  0  0  0
 85 86  2  0  0  0  0
 86 87  1  0  0  0  0
 87 88  1  0  0  0  0
 88 89  2  0  0  0  0
 84 90  1  0  0  0  0
 90 91  2  0  0  0  0
 91 92  1  0  0  0  0
 92 93  2  0  0  0  0
 92 94  1  0  0  0  0
 94 95  2  0  0  0  0
 95 96  1  0  0  0  0
 96 97  2  0  0  0  0
 97 98  1  0  0  0  0
 98 99  1  0  0  0  0
 97100  1  0  0  0  0
100101  2  0  0  0  0
101102  1  0  0  0  0
102103  2  0  0  0  0
103104  1  0  0  0  0
104105  3  0  0  0  0
103106  1  0  0  0  0
106107  3  0  0  0  0
 11  2  1  0  0  0  0
 23 17  1  0  0  0  0
 35 24  1  0  0  0  0
 77 36  1  0  0  0  0
 89 78  1  0  0  0  0
102 91  1  0  0  0  0
 10  5  1  0  0  0  0
 22 18  1  0  0  0  0
 29 25  1  0  0  0  0
 35 31  1  0  0  0  0
 46 39  1  0  0  0  0
 54 47  1  0  0  0  0
 76 55  2  0  0  0  0
 83 79  1  0  0  0  0
 89 85  1  0  0  0  0
101 94  1  0  0  0  0
 23  7  1  0  0  0  0
 67 60  1  0  0  0  0
 75 68  1  0  0  0  0
  1108  1  0  0  0  0
  6109  1  0  0  0  0
  9110  1  0  0  0  0
 17111  1  0  0  0  0
 18112  1  0  0  0  0
 19113  1  0  0  0  0
 20114  1  0  0  0  0
 21115  1  0  0  0  0
 22116  1  0  0  0  0
 22117  1  0  0  0  0
 23118  1  0  0  0  0
 40119  1  0  0  0  0
 41120  1  0  0  0  0
 44121  1  0  0  0  0
 44122  1  0  0  0  0
 44123  1  0  0  0  0
 45124  1  0  0  0  0
 46125  1  0  0  0  0
 48126  1  0  0  0  0
 49127  1  0  0  0  0
 52128  1  0  0  0  0
 52129  1  0  0  0  0
 52130  1  0  0  0  0
 53131  1  0  0  0  0
 54132  1  0  0  0  0
 61133  1  0  0  0  0
 62134  1  0  0  0  0
 65135  1  0  0  0  0
 65136  1  0  0  0  0
 65137  1  0  0  0  0
 66138  1  0  0  0  0
 67139  1  0  0  0  0
 69140  1  0  0  0  0
 70141  1  0  0  0  0
 73142  1  0  0  0  0
 73143  1  0  0  0  0
 73144  1  0  0  0  0
 74145  1  0  0  0  0
 75146  1  0  0  0  0
 90147  1  0  0  0  0
 95148  1  0  0  0  0
 96149  1  0  0  0  0
 99150  1  0  0  0  0
 99151  1  0  0  0  0
 99152  1  0  0  0  0
100153  1  0  0  0  0
M  END
