
  xtb     02092203003D
 energy: -388.446339612481 gnorm: 0.000273586276 xtb: 6.4.1 (unknown)
225246  0     0  0            999 V2000
    1.7171    5.2292    4.5030 C   0  0  0  0  0  0  0  0  0  0  0  0
    0.8059    6.2506    4.6493 C   0  0  0  0  0  0  0  0  0  0  0  0
   -0.3780    6.4314    3.7938 C   0  0  0  0  0  0  0  0  0  0  0  0
   -0.7232    5.7317    2.8585 O   0  0  0  0  0  0  0  0  0  0  0  0
   -0.9728    7.7205    4.2029 C   0  0  0  0  0  0  0  0  0  0  0  0
   -2.1258    8.3132    3.6980 C   0  0  0  0  0  0  0  0  0  0  0  0
   -2.4480    9.5095    4.2943 C   0  0  0  0  0  0  0  0  0  0  0  0
   -1.6674   10.0898    5.3013 C   0  0  0  0  0  0  0  0  0  0  0  0
   -0.5204    9.5209    5.8017 C   0  0  0  0  0  0  0  0  0  0  0  0
   -0.1881    8.2940    5.2226 C   0  0  0  0  0  0  0  0  0  0  0  0
    0.9161    7.3867    5.5207 C   0  0  0  0  0  0  0  0  0  0  0  0
    1.8036    7.5070    6.5635 C   0  0  0  0  0  0  0  0  0  0  0  0
    1.8350    8.5832    7.4683 C   0  0  0  0  0  0  0  0  0  0  0  0
    1.9064    9.4136    8.2600 N   0  0  0  0  0  0  0  0  0  0  0  0
    2.7433    6.5190    6.9172 C   0  0  0  0  0  0  0  0  0  0  0  0
    3.5013    5.7420    7.2952 N   0  0  0  0  0  0  0  0  0  0  0  0
   -2.5786   11.2855    5.4312 C   0  0  0  0  0  0  0  0  0  0  0  0
   -3.5229   11.3023    6.6513 C   0  0  0  0  0  0  0  0  0  0  0  0
   -4.5991   12.2904    6.2644 C   0  0  0  0  0  0  0  0  0  0  0  0
   -5.3452   11.7262    5.3233 C   0  0  0  0  0  0  0  0  0  0  0  0
   -4.7836   10.3482    5.0565 C   0  0  0  0  0  0  0  0  0  0  0  0
   -4.2896    9.9875    6.4635 C   0  0  0  0  0  0  0  0  0  0  0  0
   -3.4575   10.6300    4.3181 C   0  0  0  0  0  0  0  0  0  0  0  0
    1.4636    3.9653    3.9632 C   0  0  0  0  0  0  0  0  0  0  0  0
    0.2842    3.2048    3.8397 C   0  0  0  0  0  0  0  0  0  0  0  0
   -0.9593    3.4877    4.3331 N   0  0  0  0  0  0  0  0  0  0  0  0
   -1.2203    4.3411    5.4057 C   0  0  0  0  0  0  0  0  0  0  0  0
   -0.3603    4.4440    6.4974 C   0  0  0  0  0  0  0  0  0  0  0  0
   -0.6087    5.3488    7.5120 C   0  0  0  0  0  0  0  0  0  0  0  0
   -1.7267    6.1722    7.4568 C   0  0  0  0  0  0  0  0  0  0  0  0
   -2.1002    7.4345    8.6253 S   0  0  0  0  0  0  0  0  0  0  0  0
   -0.7701    7.3257    9.8528 C   0  0  0  0  0  0  0  0  0  0  0  0
   -2.6263    6.0236    6.4009 C   0  0  0  0  0  0  0  0  0  0  0  0
   -2.3791    5.1246    5.3913 C   0  0  0  0  0  0  0  0  0  0  0  0
   -2.0652    2.9136    3.6608 C   0  0  0  0  0  0  0  0  0  0  0  0
   -2.1923    3.0648    2.2845 C   0  0  0  0  0  0  0  0  0  0  0  0
   -3.2422    2.4746    1.6108 C   0  0  0  0  0  0  0  0  0  0  0  0
   -4.1830    1.7316    2.3122 C   0  0  0  0  0  0  0  0  0  0  0  0
   -5.5421    0.9139    1.5473 S   0  0  0  0  0  0  0  0  0  0  0  0
   -5.5365    1.5578   -0.1475 C   0  0  0  0  0  0  0  0  0  0  0  0
   -4.0705    1.6030    3.6960 C   0  0  0  0  0  0  0  0  0  0  0  0
   -3.0206    2.1892    4.3682 C   0  0  0  0  0  0  0  0  0  0  0  0
    0.5559    1.9926    3.1559 C   0  0  0  0  0  0  0  0  0  0  0  0
   -0.4231    0.6713    2.6157 S   0  0  0  0  0  0  0  0  0  0  0  0
    0.9725   -0.1096    1.8825 C   0  0  0  0  0  0  0  0  0  0  0  0
    2.1327    0.6298    2.0472 C   0  0  0  0  0  0  0  0  0  0  0  0
    3.3548    0.3445    1.4510 N   0  0  0  0  0  0  0  0  0  0  0  0
    3.3757   -0.0508    0.1061 C   0  0  0  0  0  0  0  0  0  0  0  0
    2.3826    0.3805   -0.7766 C   0  0  0  0  0  0  0  0  0  0  0  0
    2.3667   -0.0552   -2.0822 C   0  0  0  0  0  0  0  0  0  0  0  0
    3.3610   -0.9078   -2.5534 C   0  0  0  0  0  0  0  0  0  0  0  0
    3.2664   -1.4188   -4.2440 S   0  0  0  0  0  0  0  0  0  0  0  0
    4.0018   -3.0805   -4.2087 C   0  0  0  0  0  0  0  0  0  0  0  0
    4.3872   -1.2894   -1.6996 C   0  0  0  0  0  0  0  0  0  0  0  0
    4.3843   -0.8791   -0.3783 C   0  0  0  0  0  0  0  0  0  0  0  0
    4.5219    0.7254    2.1253 C   0  0  0  0  0  0  0  0  0  0  0  0
    4.5550    0.6789    3.5178 C   0  0  0  0  0  0  0  0  0  0  0  0
    5.6702    1.0937    4.2170 C   0  0  0  0  0  0  0  0  0  0  0  0
    6.7823    1.5653    3.5356 C   0  0  0  0  0  0  0  0  0  0  0  0
    8.2508    2.1277    4.3400 S   0  0  0  0  0  0  0  0  0  0  0  0
    7.6711    2.5387    6.0128 C   0  0  0  0  0  0  0  0  0  0  0  0
    6.7625    1.5991    2.1432 C   0  0  0  0  0  0  0  0  0  0  0  0
    5.6471    1.1934    1.4449 C   0  0  0  0  0  0  0  0  0  0  0  0
    1.8827    1.8015    2.8037 C   0  0  0  0  0  0  0  0  0  0  0  0
    2.8775    3.1022    3.3363 S   0  0  0  0  0  0  0  0  0  0  0  0
    0.7274   -1.2599    1.0633 C   0  0  0  0  0  0  0  0  0  0  0  0
    1.4001   -2.4684    0.9339 C   0  0  0  0  0  0  0  0  0  0  0  0
    2.4105   -2.9345    1.7451 N   0  0  0  0  0  0  0  0  0  0  0  0
    2.6127   -2.4935    3.0614 C   0  0  0  0  0  0  0  0  0  0  0  0
    1.5674   -2.0874    3.8904 C   0  0  0  0  0  0  0  0  0  0  0  0
    1.8258   -1.6818    5.1817 C   0  0  0  0  0  0  0  0  0  0  0  0
    3.1237   -1.7020    5.6892 C   0  0  0  0  0  0  0  0  0  0  0  0
    3.3344   -1.1242    7.3439 S   0  0  0  0  0  0  0  0  0  0  0  0
    5.0752   -1.4835    7.7109 C   0  0  0  0  0  0  0  0  0  0  0  0
    4.1620   -2.1449    4.8801 C   0  0  0  0  0  0  0  0  0  0  0  0
    3.9063   -2.5219    3.5775 C   0  0  0  0  0  0  0  0  0  0  0  0
    3.1395   -4.0853    1.3572 C   0  0  0  0  0  0  0  0  0  0  0  0
    3.1775   -5.2004    2.1942 C   0  0  0  0  0  0  0  0  0  0  0  0
    3.8511   -6.3356    1.8040 C   0  0  0  0  0  0  0  0  0  0  0  0
    4.5041   -6.3840    0.5723 C   0  0  0  0  0  0  0  0  0  0  0  0
    5.2904   -7.9002    0.1369 S   0  0  0  0  0  0  0  0  0  0  0  0
    5.5225   -7.7426   -1.6579 C   0  0  0  0  0  0  0  0  0  0  0  0
    4.5085   -5.2609   -0.2410 C   0  0  0  0  0  0  0  0  0  0  0  0
    3.8254   -4.1240    0.1497 C   0  0  0  0  0  0  0  0  0  0  0  0
    0.8625   -3.2132   -0.1527 C   0  0  0  0  0  0  0  0  0  0  0  0
    1.3253   -4.6639   -0.9697 S   0  0  0  0  0  0  0  0  0  0  0  0
    0.0733   -4.4365   -2.1704 C   0  0  0  0  0  0  0  0  0  0  0  0
   -0.6772   -3.2896   -1.9378 C   0  0  0  0  0  0  0  0  0  0  0  0
   -1.6557   -2.7719   -2.7825 N   0  0  0  0  0  0  0  0  0  0  0  0
   -2.8978   -2.4391   -2.2423 C   0  0  0  0  0  0  0  0  0  0  0  0
   -3.3560   -3.0759   -1.0901 C   0  0  0  0  0  0  0  0  0  0  0  0
   -4.6103   -2.8055   -0.5801 C   0  0  0  0  0  0  0  0  0  0  0  0
   -5.4418   -1.8975   -1.2206 C   0  0  0  0  0  0  0  0  0  0  0  0
   -7.1074   -1.5697   -0.7333 S   0  0  0  0  0  0  0  0  0  0  0  0
   -7.2258   -2.2890    0.9265 C   0  0  0  0  0  0  0  0  0  0  0  0
   -4.9707   -1.2225   -2.3456 C   0  0  0  0  0  0  0  0  0  0  0  0
   -3.7116   -1.4757   -2.8419 C   0  0  0  0  0  0  0  0  0  0  0  0
   -1.3939   -2.7108   -4.1541 C   0  0  0  0  0  0  0  0  0  0  0  0
   -0.0954   -2.4369   -4.5899 C   0  0  0  0  0  0  0  0  0  0  0  0
    0.2115   -2.4200   -5.9293 C   0  0  0  0  0  0  0  0  0  0  0  0
   -0.7722   -2.6914   -6.8780 C   0  0  0  0  0  0  0  0  0  0  0  0
   -0.2571   -2.6795   -8.5676 S   0  0  0  0  0  0  0  0  0  0  0  0
   -1.6918   -3.3272   -9.4743 C   0  0  0  0  0  0  0  0  0  0  0  0
   -2.0741   -2.9268   -6.4601 C   0  0  0  0  0  0  0  0  0  0  0  0
   -2.3815   -2.9317   -5.1133 C   0  0  0  0  0  0  0  0  0  0  0  0
   -0.2189   -2.6162   -0.7837 C   0  0  0  0  0  0  0  0  0  0  0  0
   -0.6375   -1.1161   -0.0494 S   0  0  0  0  0  0  0  0  0  0  0  0
    0.0187   -5.2644   -3.3395 C   0  0  0  0  0  0  0  0  0  0  0  0
    1.1632   -5.7568   -3.9609 C   0  0  0  0  0  0  0  0  0  0  0  0
    2.3512   -5.7271   -3.3238 F   0  0  0  0  0  0  0  0  0  0  0  0
    1.1484   -6.1898   -5.2814 C   0  0  0  0  0  0  0  0  0  0  0  0
    2.2911   -6.6509   -5.8082 F   0  0  0  0  0  0  0  0  0  0  0  0
   -0.0212   -6.1905   -6.0361 C   0  0  0  0  0  0  0  0  0  0  0  0
   -1.2375   -6.0219   -5.3153 C   0  0  0  0  0  0  0  0  0  0  0  0
   -2.4087   -6.2810   -5.9295 N   0  0  0  0  0  0  0  0  0  0  0  0
   -3.5115   -6.1622   -5.2330 C   0  0  0  0  0  0  0  0  0  0  0  0
   -4.6871   -6.4795   -5.7605 O   0  0  0  0  0  0  0  0  0  0  0  0
   -4.6972   -6.9609   -7.1058 C   0  0  0  0  0  0  0  0  0  0  0  0
   -4.5919   -5.8268   -8.1127 C   0  0  0  0  0  0  0  0  0  0  0  0
   -3.4959   -5.7240   -3.8646 C   0  0  0  0  0  0  0  0  0  0  0  0
   -2.3693   -5.4211   -3.2884 N   0  0  0  0  0  0  0  0  0  0  0  0
   -1.2181   -5.5553   -3.9832 C   0  0  0  0  0  0  0  0  0  0  0  0
   -4.7653   -5.6245   -3.0951 C   0  0  0  0  0  0  0  0  0  0  0  0
   -0.0792   -6.3045   -7.4608 C   0  0  0  0  0  0  0  0  0  0  0  0
    0.7972   -5.7273   -8.3279 C   0  0  0  0  0  0  0  0  0  0  0  0
    1.8687   -4.7650   -7.9539 C   0  0  0  0  0  0  0  0  0  0  0  0
    2.1519   -4.3488   -6.8500 O   0  0  0  0  0  0  0  0  0  0  0  0
    2.4948   -4.3521   -9.2231 C   0  0  0  0  0  0  0  0  0  0  0  0
    3.5299   -3.4842   -9.4113 C   0  0  0  0  0  0  0  0  0  0  0  0
    3.9784   -3.2271  -10.7259 C   0  0  0  0  0  0  0  0  0  0  0  0
    5.0438   -2.3419  -10.9783 C   0  0  0  0  0  0  0  0  0  0  0  0
    5.4579   -2.1114  -12.2604 C   0  0  0  0  0  0  0  0  0  0  0  0
    6.4721   -1.2678  -12.4993 F   0  0  0  0  0  0  0  0  0  0  0  0
    4.8269   -2.7553  -13.3429 C   0  0  0  0  0  0  0  0  0  0  0  0
    5.2544   -2.5112  -14.5897 F   0  0  0  0  0  0  0  0  0  0  0  0
    3.7897   -3.6194  -13.1295 C   0  0  0  0  0  0  0  0  0  0  0  0
    3.3379   -3.8776  -11.8198 C   0  0  0  0  0  0  0  0  0  0  0  0
    2.2593   -4.7627  -11.5916 C   0  0  0  0  0  0  0  0  0  0  0  0
    1.8387   -4.9949  -10.3082 C   0  0  0  0  0  0  0  0  0  0  0  0
    0.7487   -5.8073   -9.7774 C   0  0  0  0  0  0  0  0  0  0  0  0
   -0.1774   -6.4786  -10.5343 C   0  0  0  0  0  0  0  0  0  0  0  0
   -1.3013   -7.1734  -10.0422 C   0  0  0  0  0  0  0  0  0  0  0  0
   -2.2633   -7.7244   -9.7392 N   0  0  0  0  0  0  0  0  0  0  0  0
   -0.1699   -6.5116  -11.9447 C   0  0  0  0  0  0  0  0  0  0  0  0
   -0.2305   -6.5729  -13.0896 N   0  0  0  0  0  0  0  0  0  0  0  0
    2.7448    5.4081    4.7965 H   0  0  0  0  0  0  0  0  0  0  0  0
   -2.6955    7.8402    2.9132 H   0  0  0  0  0  0  0  0  0  0  0  0
    0.0778    9.9811    6.5705 H   0  0  0  0  0  0  0  0  0  0  0  0
   -2.1229   12.2532    5.2296 H   0  0  0  0  0  0  0  0  0  0  0  0
   -3.0300   11.4603    7.6062 H   0  0  0  0  0  0  0  0  0  0  0  0
   -4.6716   13.2860    6.6613 H   0  0  0  0  0  0  0  0  0  0  0  0
   -6.1641   12.1566    4.7767 H   0  0  0  0  0  0  0  0  0  0  0  0
   -5.4411    9.6405    4.5580 H   0  0  0  0  0  0  0  0  0  0  0  0
   -5.1076    9.8828    7.1740 H   0  0  0  0  0  0  0  0  0  0  0  0
   -3.6567    9.1036    6.5067 H   0  0  0  0  0  0  0  0  0  0  0  0
   -3.5984   11.1656    3.3807 H   0  0  0  0  0  0  0  0  0  0  0  0
    0.5162    3.8162    6.5560 H   0  0  0  0  0  0  0  0  0  0  0  0
    0.0896    5.4097    8.3316 H   0  0  0  0  0  0  0  0  0  0  0  0
   -0.7594    6.3370   10.3018 H   0  0  0  0  0  0  0  0  0  0  0  0
    0.1848    7.5682    9.3962 H   0  0  0  0  0  0  0  0  0  0  0  0
   -1.0108    8.0702   10.6053 H   0  0  0  0  0  0  0  0  0  0  0  0
   -3.5109    6.6409    6.3739 H   0  0  0  0  0  0  0  0  0  0  0  0
   -3.0655    5.0412    4.5629 H   0  0  0  0  0  0  0  0  0  0  0  0
   -1.4676    3.6629    1.7546 H   0  0  0  0  0  0  0  0  0  0  0  0
   -3.3109    2.5973    0.5426 H   0  0  0  0  0  0  0  0  0  0  0  0
   -5.5592    2.6431   -0.1244 H   0  0  0  0  0  0  0  0  0  0  0  0
   -6.4432    1.1754   -0.6061 H   0  0  0  0  0  0  0  0  0  0  0  0
   -4.6687    1.1848   -0.6845 H   0  0  0  0  0  0  0  0  0  0  0  0
   -4.8129    1.0327    4.2327 H   0  0  0  0  0  0  0  0  0  0  0  0
   -2.9302    2.0862    5.4393 H   0  0  0  0  0  0  0  0  0  0  0  0
    1.6194    1.0631   -0.4354 H   0  0  0  0  0  0  0  0  0  0  0  0
    1.5873    0.2690   -2.7549 H   0  0  0  0  0  0  0  0  0  0  0  0
    3.6071   -3.5957   -5.0801 H   0  0  0  0  0  0  0  0  0  0  0  0
    5.0848   -3.0181   -4.2695 H   0  0  0  0  0  0  0  0  0  0  0  0
    3.6892   -3.5911   -3.3038 H   0  0  0  0  0  0  0  0  0  0  0  0
    5.1905   -1.9156   -2.0573 H   0  0  0  0  0  0  0  0  0  0  0  0
    5.1695   -1.2076    0.2866 H   0  0  0  0  0  0  0  0  0  0  0  0
    3.6950    0.3193    4.0593 H   0  0  0  0  0  0  0  0  0  0  0  0
    5.6523    1.0529    5.2941 H   0  0  0  0  0  0  0  0  0  0  0  0
    6.7611    3.1270    5.9471 H   0  0  0  0  0  0  0  0  0  0  0  0
    7.5155    1.6348    6.5951 H   0  0  0  0  0  0  0  0  0  0  0  0
    8.4635    3.1286    6.4628 H   0  0  0  0  0  0  0  0  0  0  0  0
    7.6274    1.9704    1.6154 H   0  0  0  0  0  0  0  0  0  0  0  0
    5.6358    1.2655    0.3681 H   0  0  0  0  0  0  0  0  0  0  0  0
    0.5490   -2.1148    3.5362 H   0  0  0  0  0  0  0  0  0  0  0  0
    1.0177   -1.3574    5.8197 H   0  0  0  0  0  0  0  0  0  0  0  0
    5.2236   -1.1829    8.7435 H   0  0  0  0  0  0  0  0  0  0  0  0
    5.2628   -2.5479    7.6045 H   0  0  0  0  0  0  0  0  0  0  0  0
    5.7247   -0.9039    7.0615 H   0  0  0  0  0  0  0  0  0  0  0  0
    5.1768   -2.1823    5.2401 H   0  0  0  0  0  0  0  0  0  0  0  0
    4.7218   -2.8478    2.9496 H   0  0  0  0  0  0  0  0  0  0  0  0
    2.6606   -5.1744    3.1421 H   0  0  0  0  0  0  0  0  0  0  0  0
    3.8645   -7.2079    2.4389 H   0  0  0  0  0  0  0  0  0  0  0  0
    5.7719   -8.7383   -2.0112 H   0  0  0  0  0  0  0  0  0  0  0  0
    4.5973   -7.4049   -2.1150 H   0  0  0  0  0  0  0  0  0  0  0  0
    6.3414   -7.0628   -1.8750 H   0  0  0  0  0  0  0  0  0  0  0  0
    5.0274   -5.2584   -1.1853 H   0  0  0  0  0  0  0  0  0  0  0  0
    3.8189   -3.2555   -0.4875 H   0  0  0  0  0  0  0  0  0  0  0  0
   -2.7349   -3.8166   -0.6101 H   0  0  0  0  0  0  0  0  0  0  0  0
   -4.9373   -3.3285    0.3041 H   0  0  0  0  0  0  0  0  0  0  0  0
   -6.4316   -1.8882    1.5487 H   0  0  0  0  0  0  0  0  0  0  0  0
   -8.1901   -1.9739    1.3123 H   0  0  0  0  0  0  0  0  0  0  0  0
   -7.1881   -3.3732    0.8704 H   0  0  0  0  0  0  0  0  0  0  0  0
   -5.6088   -0.4978   -2.8285 H   0  0  0  0  0  0  0  0  0  0  0  0
   -3.3529   -0.9298   -3.7014 H   0  0  0  0  0  0  0  0  0  0  0  0
    0.6768   -2.2249   -3.8674 H   0  0  0  0  0  0  0  0  0  0  0  0
    1.2159   -2.1937   -6.2482 H   0  0  0  0  0  0  0  0  0  0  0  0
   -2.5260   -2.6360   -9.4019 H   0  0  0  0  0  0  0  0  0  0  0  0
   -1.3749   -3.4058  -10.5100 H   0  0  0  0  0  0  0  0  0  0  0  0
   -1.9581   -4.3084   -9.0909 H   0  0  0  0  0  0  0  0  0  0  0  0
   -2.8635   -3.1109   -7.1711 H   0  0  0  0  0  0  0  0  0  0  0  0
   -3.3968   -3.1311   -4.8050 H   0  0  0  0  0  0  0  0  0  0  0  0
   -3.8676   -7.6594   -7.2464 H   0  0  0  0  0  0  0  0  0  0  0  0
   -5.6495   -7.4851   -7.2049 H   0  0  0  0  0  0  0  0  0  0  0  0
   -4.5794   -6.2383   -9.1172 H   0  0  0  0  0  0  0  0  0  0  0  0
   -5.4309   -5.1425   -8.0106 H   0  0  0  0  0  0  0  0  0  0  0  0
   -3.6655   -5.2846   -7.9444 H   0  0  0  0  0  0  0  0  0  0  0  0
   -5.2872   -6.5794   -3.1183 H   0  0  0  0  0  0  0  0  0  0  0  0
   -5.4195   -4.8828   -3.5516 H   0  0  0  0  0  0  0  0  0  0  0  0
   -4.5509   -5.3361   -2.0711 H   0  0  0  0  0  0  0  0  0  0  0  0
   -0.9686   -6.7928   -7.8348 H   0  0  0  0  0  0  0  0  0  0  0  0
    3.9995   -2.9990   -8.5694 H   0  0  0  0  0  0  0  0  0  0  0  0
    5.5362   -1.8403  -10.1600 H   0  0  0  0  0  0  0  0  0  0  0  0
    3.3170   -4.1027  -13.9703 H   0  0  0  0  0  0  0  0  0  0  0  0
    1.7928   -5.2326  -12.4423 H   0  0  0  0  0  0  0  0  0  0  0  0
  1  2  2  0  0  0  0
  2  3  1  0  0  0  0
  3  4  2  0  0  0  0
  3  5  1  0  0  0  0
  5  6  2  0  0  0  0
  6  7  1  0  0  0  0
  7  8  2  0  0  0  0
  8  9  1  0  0  0  0
  9 10  2  0  0  0  0
 10 11  1  0  0  0  0
 11 12  2  0  0  0  0
 12 13  1  0  0  0  0
 13 14  3  0  0  0  0
 12 15  1  0  0  0  0
 15 16  3  0  0  0  0
  8 17  1  0  0  0  0
 17 18  1  0  0  0  0
 18 19  1  0  0  0  0
 19 20  2  0  0  0  0
 20 21  1  0  0  0  0
 21 22  1  0  0  0  0
 21 23  1  0  0  0  0
  1 24  1  0  0  0  0
 24 25  2  0  0  0  0
 25 26  1  0  0  0  0
 26 27  1  0  0  0  0
 27 28  2  0  0  0  0
 28 29  1  0  0  0  0
 29 30  2  0  0  0  0
 30 31  1  0  0  0  0
 31 32  1  0  0  0  0
 30 33  1  0  0  0  0
 33 34  2  0  0  0  0
 26 35  1  0  0  0  0
 35 36  2  0  0  0  0
 36 37  1  0  0  0  0
 37 38  2  0  0  0  0
 38 39  1  0  0  0  0
 39 40  1  0  0  0  0
 38 41  1  0  0  0  0
 41 42  2  0  0  0  0
 25 43  1  0  0  0  0
 43 44  1  0  0  0  0
 44 45  1  0  0  0  0
 45 46  2  0  0  0  0
 46 47  1  0  0  0  0
 47 48  1  0  0  0  0
 48 49  2  0  0  0  0
 49 50  1  0  0  0  0
 50 51  2  0  0  0  0
 51 52  1  0  0  0  0
 52 53  1  0  0  0  0
 51 54  1  0  0  0  0
 54 55  2  0  0  0  0
 47 56  1  0  0  0  0
 56 57  2  0  0  0  0
 57 58  1  0  0  0  0
 58 59  2  0  0  0  0
 59 60  1  0  0  0  0
 60 61  1  0  0  0  0
 59 62  1  0  0  0  0
 62 63  2  0  0  0  0
 46 64  1  0  0  0  0
 64 65  1  0  0  0  0
 45 66  1  0  0  0  0
 66 67  2  0  0  0  0
 67 68  1  0  0  0  0
 68 69  1  0  0  0  0
 69 70  2  0  0  0  0
 70 71  1  0  0  0  0
 71 72  2  0  0  0  0
 72 73  1  0  0  0  0
 73 74  1  0  0  0  0
 72 75  1  0  0  0  0
 75 76  2  0  0  0  0
 68 77  1  0  0  0  0
 77 78  2  0  0  0  0
 78 79  1  0  0  0  0
 79 80  2  0  0  0  0
 80 81  1  0  0  0  0
 81 82  1  0  0  0  0
 80 83  1  0  0  0  0
 83 84  2  0  0  0  0
 67 85  1  0  0  0  0
 85 86  1  0  0  0  0
 86 87  1  0  0  0  0
 87 88  2  0  0  0  0
 88 89  1  0  0  0  0
 89 90  1  0  0  0  0
 90 91  2  0  0  0  0
 91 92  1  0  0  0  0
 92 93  2  0  0  0  0
 93 94  1  0  0  0  0
 94 95  1  0  0  0  0
 93 96  1  0  0  0  0
 96 97  2  0  0  0  0
 89 98  1  0  0  0  0
 98 99  2  0  0  0  0
 99100  1  0  0  0  0
100101  2  0  0  0  0
101102  1  0  0  0  0
102103  1  0  0  0  0
101104  1  0  0  0  0
104105  2  0  0  0  0
 88106  1  0  0  0  0
106107  1  0  0  0  0
 87108  1  0  0  0  0
108109  2  0  0  0  0
109110  1  0  0  0  0
109111  1  0  0  0  0
111112  1  0  0  0  0
111113  2  0  0  0  0
113114  1  0  0  0  0
114115  2  0  0  0  0
115116  1  0  0  0  0
116117  1  0  0  0  0
117118  1  0  0  0  0
118119  1  0  0  0  0
116120  2  0  0  0  0
120121  1  0  0  0  0
121122  2  0  0  0  0
120123  1  0  0  0  0
113124  1  0  0  0  0
124125  2  0  0  0  0
125126  1  0  0  0  0
126127  2  0  0  0  0
126128  1  0  0  0  0
128129  2  0  0  0  0
129130  1  0  0  0  0
130131  2  0  0  0  0
131132  1  0  0  0  0
132133  1  0  0  0  0
132134  2  0  0  0  0
134135  1  0  0  0  0
134136  1  0  0  0  0
136137  2  0  0  0  0
137138  1  0  0  0  0
138139  2  0  0  0  0
139140  1  0  0  0  0
140141  2  0  0  0  0
141142  1  0  0  0  0
142143  3  0  0  0  0
141144  1  0  0  0  0
144145  3  0  0  0  0
 11  2  1  0  0  0  0
 23 17  1  0  0  0  0
 65 24  1  0  0  0  0
107 66  1  0  0  0  0
122108  1  0  0  0  0
140125  1  0  0  0  0
 10  5  1  0  0  0  0
 22 18  1  0  0  0  0
 34 27  1  0  0  0  0
 42 35  1  0  0  0  0
 64 43  2  0  0  0  0
 76 69  1  0  0  0  0
 84 77  1  0  0  0  0
106 85  2  0  0  0  0
122114  1  0  0  0  0
139128  1  0  0  0  0
 23  7  1  0  0  0  0
 55 48  1  0  0  0  0
 63 56  1  0  0  0  0
 97 90  1  0  0  0  0
105 98  1  0  0  0  0
137130  1  0  0  0  0
  1146  1  0  0  0  0
  6147  1  0  0  0  0
  9148  1  0  0  0  0
 17149  1  0  0  0  0
 18150  1  0  0  0  0
 19151  1  0  0  0  0
 20152  1  0  0  0  0
 21153  1  0  0  0  0
 22154  1  0  0  0  0
 22155  1  0  0  0  0
 23156  1  0  0  0  0
 28157  1  0  0  0  0
 29158  1  0  0  0  0
 32159  1  0  0  0  0
 32160  1  0  0  0  0
 32161  1  0  0  0  0
 33162  1  0  0  0  0
 34163  1  0  0  0  0
 36164  1  0  0  0  0
 37165  1  0  0  0  0
 40166  1  0  0  0  0
 40167  1  0  0  0  0
 40168  1  0  0  0  0
 41169  1  0  0  0  0
 42170  1  0  0  0  0
 49171  1  0  0  0  0
 50172  1  0  0  0  0
 53173  1  0  0  0  0
 53174  1  0  0  0  0
 53175  1  0  0  0  0
 54176  1  0  0  0  0
 55177  1  0  0  0  0
 57178  1  0  0  0  0
 58179  1  0  0  0  0
 61180  1  0  0  0  0
 61181  1  0  0  0  0
 61182  1  0  0  0  0
 62183  1  0  0  0  0
 63184  1  0  0  0  0
 70185  1  0  0  0  0
 71186  1  0  0  0  0
 74187  1  0  0  0  0
 74188  1  0  0  0  0
 74189  1  0  0  0  0
 75190  1  0  0  0  0
 76191  1  0  0  0  0
 78192  1  0  0  0  0
 79193  1  0  0  0  0
 82194  1  0  0  0  0
 82195  1  0  0  0  0
 82196  1  0  0  0  0
 83197  1  0  0  0  0
 84198  1  0  0  0  0
 91199  1  0  0  0  0
 92200  1  0  0  0  0
 95201  1  0  0  0  0
 95202  1  0  0  0  0
 95203  1  0  0  0  0
 96204  1  0  0  0  0
 97205  1  0  0  0  0
 99206  1  0  0  0  0
100207  1  0  0  0  0
103208  1  0  0  0  0
103209  1  0  0  0  0
103210  1  0  0  0  0
104211  1  0  0  0  0
105212  1  0  0  0  0
118213  1  0  0  0  0
118214  1  0  0  0  0
119215  1  0  0  0  0
119216  1  0  0  0  0
119217  1  0  0  0  0
123218  1  0  0  0  0
123219  1  0  0  0  0
123220  1  0  0  0  0
124221  1  0  0  0  0
129222  1  0  0  0  0
131223  1  0  0  0  0
136224  1  0  0  0  0
138225  1  0  0  0  0
M  END
