
  xtb     02052220323D
 energy: -309.465078032424 gnorm: 0.000763325503 xtb: 6.4.1 (unknown)
184204  0     0  0            999 V2000
   -2.7667   -3.1155   -7.8544 C   0  0  0  0  0  0  0  0  0  0  0  0
   -1.8330   -3.7584   -8.6006 C   0  0  0  0  0  0  0  0  0  0  0  0
   -0.4371   -4.0244   -8.1600 C   0  0  0  0  0  0  0  0  0  0  0  0
    0.0541   -3.8153   -7.0704 O   0  0  0  0  0  0  0  0  0  0  0  0
    0.2740   -4.4980   -9.3605 C   0  0  0  0  0  0  0  0  0  0  0  0
    1.6193   -4.8544   -9.4415 C   0  0  0  0  0  0  0  0  0  0  0  0
    2.0182   -5.2543  -10.6935 C   0  0  0  0  0  0  0  0  0  0  0  0
    1.1452   -5.2924  -11.7900 C   0  0  0  0  0  0  0  0  0  0  0  0
   -0.1820   -4.9421  -11.7256 C   0  0  0  0  0  0  0  0  0  0  0  0
   -0.6105   -4.5340  -10.4577 C   0  0  0  0  0  0  0  0  0  0  0  0
   -1.9303   -4.1037  -10.0091 C   0  0  0  0  0  0  0  0  0  0  0  0
   -3.0752   -4.1021  -10.7600 C   0  0  0  0  0  0  0  0  0  0  0  0
   -3.1392   -4.4646  -12.1219 C   0  0  0  0  0  0  0  0  0  0  0  0
   -3.2618   -4.7425  -13.2289 N   0  0  0  0  0  0  0  0  0  0  0  0
   -4.3581   -3.7696  -10.2736 C   0  0  0  0  0  0  0  0  0  0  0  0
   -5.4351   -3.5361   -9.9520 N   0  0  0  0  0  0  0  0  0  0  0  0
    2.2197   -5.7783  -12.7304 C   0  0  0  0  0  0  0  0  0  0  0  0
    2.8267   -4.7290  -13.6856 C   0  0  0  0  0  0  0  0  0  0  0  0
    4.1356   -5.3492  -14.1187 C   0  0  0  0  0  0  0  0  0  0  0  0
    4.9617   -5.3144  -13.0809 C   0  0  0  0  0  0  0  0  0  0  0  0
    4.2250   -4.6702  -11.9286 C   0  0  0  0  0  0  0  0  0  0  0  0
    3.3479   -3.6753  -12.6997 C   0  0  0  0  0  0  0  0  0  0  0  0
    3.1921   -5.7375  -11.5080 C   0  0  0  0  0  0  0  0  0  0  0  0
   -2.6831   -2.8771   -6.4401 C   0  0  0  0  0  0  0  0  0  0  0  0
   -2.2786   -3.8538   -5.5102 C   0  0  0  0  0  0  0  0  0  0  0  0
   -2.0111   -5.2311   -5.7332 C   0  0  0  0  0  0  0  0  0  0  0  0
   -1.6658   -5.9077   -4.6128 C   0  0  0  0  0  0  0  0  0  0  0  0
   -1.3453   -7.3552   -4.4768 C   0  0  0  0  0  0  0  0  0  0  0  0
   -2.4356   -8.0932   -3.6977 C   0  0  0  0  0  0  0  0  0  0  0  0
   -1.6520   -4.8845   -3.2024 S   0  0  0  0  0  0  0  0  0  0  0  0
   -2.1461   -3.5108   -4.1468 C   0  0  0  0  0  0  0  0  0  0  0  0
   -2.4198   -2.2411   -3.6481 C   0  0  0  0  0  0  0  0  0  0  0  0
   -2.9055   -1.2871   -4.5573 C   0  0  0  0  0  0  0  0  0  0  0  0
   -3.0410   -1.6318   -5.9199 C   0  0  0  0  0  0  0  0  0  0  0  0
   -3.5676   -0.2755   -6.8676 S   0  0  0  0  0  0  0  0  0  0  0  0
   -3.6244    0.7420   -5.4454 C   0  0  0  0  0  0  0  0  0  0  0  0
   -4.0807    2.1530   -5.5707 C   0  0  0  0  0  0  0  0  0  0  0  0
   -5.5719    2.2208   -5.9050 C   0  0  0  0  0  0  0  0  0  0  0  0
   -3.2452    0.0799   -4.3307 C   0  0  0  0  0  0  0  0  0  0  0  0
   -2.0964   -1.8949   -2.2632 C   0  0  0  0  0  0  0  0  0  0  0  0
   -0.8119   -2.1796   -1.7596 C   0  0  0  0  0  0  0  0  0  0  0  0
    0.2345   -2.7666   -2.3549 N   0  0  0  0  0  0  0  0  0  0  0  0
    1.1752   -2.7351   -1.4608 N   0  0  0  0  0  0  0  0  0  0  0  0
    2.4761   -3.2720   -1.7408 C   0  0  0  0  0  0  0  0  0  0  0  0
    2.3557   -4.6973   -2.2626 C   0  0  0  0  0  0  0  0  0  0  0  0
    0.8895   -2.1761   -0.3208 N   0  0  0  0  0  0  0  0  0  0  0  0
   -0.3880   -1.7887   -0.4563 C   0  0  0  0  0  0  0  0  0  0  0  0
   -1.2249   -1.0271    0.3769 C   0  0  0  0  0  0  0  0  0  0  0  0
   -2.4925   -0.7965   -0.1171 C   0  0  0  0  0  0  0  0  0  0  0  0
   -2.9260   -1.2340   -1.3843 C   0  0  0  0  0  0  0  0  0  0  0  0
   -4.2004   -0.9671   -1.7252 F   0  0  0  0  0  0  0  0  0  0  0  0
   -3.3650   -0.0857    0.6221 F   0  0  0  0  0  0  0  0  0  0  0  0
   -0.7736   -0.3651    1.5960 C   0  0  0  0  0  0  0  0  0  0  0  0
   -0.6003    0.9990    1.6878 C   0  0  0  0  0  0  0  0  0  0  0  0
   -0.6995    1.8431    0.5867 N   0  0  0  0  0  0  0  0  0  0  0  0
   -1.3750    3.0582    0.6852 C   0  0  0  0  0  0  0  0  0  0  0  0
   -1.0295    4.1318   -0.1308 C   0  0  0  0  0  0  0  0  0  0  0  0
   -1.6860    5.3417   -0.0178 C   0  0  0  0  0  0  0  0  0  0  0  0
   -2.6897    5.5039    0.9265 C   0  0  0  0  0  0  0  0  0  0  0  0
   -3.5927    7.0056    1.1621 S   0  0  0  0  0  0  0  0  0  0  0  0
   -2.6263    8.2364    0.2398 C   0  0  0  0  0  0  0  0  0  0  0  0
   -3.0446    4.4297    1.7383 C   0  0  0  0  0  0  0  0  0  0  0  0
   -2.4023    3.2188    1.6161 C   0  0  0  0  0  0  0  0  0  0  0  0
   -0.0633    1.4209   -0.5924 C   0  0  0  0  0  0  0  0  0  0  0  0
   -0.7133    1.4435   -1.8237 C   0  0  0  0  0  0  0  0  0  0  0  0
   -0.1122    0.9046   -2.9455 C   0  0  0  0  0  0  0  0  0  0  0  0
    1.1564    0.3458   -2.8567 C   0  0  0  0  0  0  0  0  0  0  0  0
    1.9786   -0.4270   -4.2217 S   0  0  0  0  0  0  0  0  0  0  0  0
    0.6059   -1.0524   -5.2274 C   0  0  0  0  0  0  0  0  0  0  0  0
    1.8397    0.3917   -1.6446 C   0  0  0  0  0  0  0  0  0  0  0  0
    1.2354    0.9158   -0.5245 C   0  0  0  0  0  0  0  0  0  0  0  0
   -0.2392    1.3857    3.0010 C   0  0  0  0  0  0  0  0  0  0  0  0
    0.1681    2.8944    3.7301 S   0  0  0  0  0  0  0  0  0  0  0  0
    0.4561    2.0734    5.2680 C   0  0  0  0  0  0  0  0  0  0  0  0
    0.3156    0.6677    5.1593 C   0  0  0  0  0  0  0  0  0  0  0  0
    0.5810   -0.2479    6.1454 N   0  0  0  0  0  0  0  0  0  0  0  0
   -0.1461   -1.4540    6.1488 C   0  0  0  0  0  0  0  0  0  0  0  0
    0.5019   -2.6734    6.3421 C   0  0  0  0  0  0  0  0  0  0  0  0
   -0.2189   -3.8452    6.3355 C   0  0  0  0  0  0  0  0  0  0  0  0
   -1.5992   -3.8281    6.1341 C   0  0  0  0  0  0  0  0  0  0  0  0
   -2.4085   -5.3934    6.1353 S   0  0  0  0  0  0  0  0  0  0  0  0
   -4.1345   -4.9962    5.7363 C   0  0  0  0  0  0  0  0  0  0  0  0
   -2.2483   -2.6138    5.9547 C   0  0  0  0  0  0  0  0  0  0  0  0
   -1.5249   -1.4374    5.9647 C   0  0  0  0  0  0  0  0  0  0  0  0
    1.5940   -0.0738    7.1036 C   0  0  0  0  0  0  0  0  0  0  0  0
    2.7811    0.5825    6.7817 C   0  0  0  0  0  0  0  0  0  0  0  0
    3.7373    0.8145    7.7485 C   0  0  0  0  0  0  0  0  0  0  0  0
    3.5358    0.3689    9.0503 C   0  0  0  0  0  0  0  0  0  0  0  0
    4.6815    0.6512   10.3627 S   0  0  0  0  0  0  0  0  0  0  0  0
    5.5900    2.1223    9.8043 C   0  0  0  0  0  0  0  0  0  0  0  0
    2.3859   -0.3531    9.3555 C   0  0  0  0  0  0  0  0  0  0  0  0
    1.4188   -0.5646    8.3975 C   0  0  0  0  0  0  0  0  0  0  0  0
   -0.1099    0.3070    3.8669 C   0  0  0  0  0  0  0  0  0  0  0  0
   -0.4235   -1.2100    3.0761 S   0  0  0  0  0  0  0  0  0  0  0  0
    0.7288    2.7190    6.4751 C   0  0  0  0  0  0  0  0  0  0  0  0
    1.0765    4.0224    6.7368 C   0  0  0  0  0  0  0  0  0  0  0  0
    1.2807    5.0838    5.7474 C   0  0  0  0  0  0  0  0  0  0  0  0
    1.0210    5.0513    4.5567 O   0  0  0  0  0  0  0  0  0  0  0  0
    1.8879    6.2133    6.4760 C   0  0  0  0  0  0  0  0  0  0  0  0
    2.2761    7.4422    5.9495 C   0  0  0  0  0  0  0  0  0  0  0  0
    2.8223    8.3002    6.8743 C   0  0  0  0  0  0  0  0  0  0  0  0
    2.9725    7.9595    8.2244 C   0  0  0  0  0  0  0  0  0  0  0  0
    2.5905    6.7508    8.7575 C   0  0  0  0  0  0  0  0  0  0  0  0
    2.0320    5.8637    7.8339 C   0  0  0  0  0  0  0  0  0  0  0  0
    1.4910    4.5186    8.0279 C   0  0  0  0  0  0  0  0  0  0  0  0
    1.4084    3.8602    9.2322 C   0  0  0  0  0  0  0  0  0  0  0  0
    1.9886    4.3198   10.4306 C   0  0  0  0  0  0  0  0  0  0  0  0
    2.4794    4.6121   11.4274 N   0  0  0  0  0  0  0  0  0  0  0  0
    0.7238    2.6499    9.4517 C   0  0  0  0  0  0  0  0  0  0  0  0
    0.1532    1.6888    9.7224 N   0  0  0  0  0  0  0  0  0  0  0  0
    3.5811    9.2935    8.5769 C   0  0  0  0  0  0  0  0  0  0  0  0
    2.6832   10.3289    9.2977 C   0  0  0  0  0  0  0  0  0  0  0  0
    1.2622   10.0136    8.9015 C   0  0  0  0  0  0  0  0  0  0  0  0
    1.1168   10.3373    7.6235 C   0  0  0  0  0  0  0  0  0  0  0  0
    2.4372   10.8775    7.1325 C   0  0  0  0  0  0  0  0  0  0  0  0
    2.9442   11.5589    8.4137 C   0  0  0  0  0  0  0  0  0  0  0  0
    3.4113    9.6748    7.0724 C   0  0  0  0  0  0  0  0  0  0  0  0
   -3.6273   -2.6764   -8.3464 H   0  0  0  0  0  0  0  0  0  0  0  0
    2.2556   -4.8119   -8.5713 H   0  0  0  0  0  0  0  0  0  0  0  0
   -0.8399   -4.9748  -12.5778 H   0  0  0  0  0  0  0  0  0  0  0  0
    2.0294   -6.7344  -13.2140 H   0  0  0  0  0  0  0  0  0  0  0  0
    2.1598   -4.3920  -14.4742 H   0  0  0  0  0  0  0  0  0  0  0  0
    4.3017   -5.7847  -15.0864 H   0  0  0  0  0  0  0  0  0  0  0  0
    5.9556   -5.7152  -13.0084 H   0  0  0  0  0  0  0  0  0  0  0  0
    4.8323   -4.2789  -11.1168 H   0  0  0  0  0  0  0  0  0  0  0  0
    3.9371   -2.9052  -13.1945 H   0  0  0  0  0  0  0  0  0  0  0  0
    2.5713   -3.2080  -12.0968 H   0  0  0  0  0  0  0  0  0  0  0  0
    3.6511   -6.6668  -11.1758 H   0  0  0  0  0  0  0  0  0  0  0  0
   -2.0897   -5.6990   -6.6984 H   0  0  0  0  0  0  0  0  0  0  0  0
   -0.3925   -7.4693   -3.9535 H   0  0  0  0  0  0  0  0  0  0  0  0
   -1.2431   -7.7890   -5.4735 H   0  0  0  0  0  0  0  0  0  0  0  0
   -2.1861   -9.1472   -3.6084 H   0  0  0  0  0  0  0  0  0  0  0  0
   -3.3917   -8.0038   -4.2082 H   0  0  0  0  0  0  0  0  0  0  0  0
   -2.5354   -7.6721   -2.7001 H   0  0  0  0  0  0  0  0  0  0  0  0
   -3.8890    2.6704   -4.6283 H   0  0  0  0  0  0  0  0  0  0  0  0
   -3.5131    2.6530   -6.3604 H   0  0  0  0  0  0  0  0  0  0  0  0
   -5.7702    1.7199   -6.8500 H   0  0  0  0  0  0  0  0  0  0  0  0
   -6.1551    1.7355   -5.1259 H   0  0  0  0  0  0  0  0  0  0  0  0
   -5.8916    3.2564   -5.9861 H   0  0  0  0  0  0  0  0  0  0  0  0
   -3.2098    0.5490   -3.3656 H   0  0  0  0  0  0  0  0  0  0  0  0
    3.0450   -3.2209   -0.8114 H   0  0  0  0  0  0  0  0  0  0  0  0
    2.9481   -2.6376   -2.4984 H   0  0  0  0  0  0  0  0  0  0  0  0
    1.8963   -5.3405   -1.5158 H   0  0  0  0  0  0  0  0  0  0  0  0
    3.3408   -5.0858   -2.5034 H   0  0  0  0  0  0  0  0  0  0  0  0
    1.7413   -4.7057   -3.1588 H   0  0  0  0  0  0  0  0  0  0  0  0
   -0.2354    4.0198   -0.8544 H   0  0  0  0  0  0  0  0  0  0  0  0
   -1.3964    6.1515   -0.6683 H   0  0  0  0  0  0  0  0  0  0  0  0
   -1.5913    8.2055    0.5667 H   0  0  0  0  0  0  0  0  0  0  0  0
   -2.7090    8.0590   -0.8288 H   0  0  0  0  0  0  0  0  0  0  0  0
   -3.0653    9.1982    0.4859 H   0  0  0  0  0  0  0  0  0  0  0  0
   -3.8356    4.5562    2.4613 H   0  0  0  0  0  0  0  0  0  0  0  0
   -2.7006    2.3864    2.2346 H   0  0  0  0  0  0  0  0  0  0  0  0
   -1.7025    1.8730   -1.8907 H   0  0  0  0  0  0  0  0  0  0  0  0
   -0.6437    0.9104   -3.8844 H   0  0  0  0  0  0  0  0  0  0  0  0
    1.0321   -1.7697   -5.9215 H   0  0  0  0  0  0  0  0  0  0  0  0
   -0.0977   -1.5599   -4.5769 H   0  0  0  0  0  0  0  0  0  0  0  0
    0.1326   -0.2426   -5.7758 H   0  0  0  0  0  0  0  0  0  0  0  0
    2.8430   -0.0019   -1.5880 H   0  0  0  0  0  0  0  0  0  0  0  0
    1.7573    0.9174    0.4201 H   0  0  0  0  0  0  0  0  0  0  0  0
    1.5710   -2.6928    6.4901 H   0  0  0  0  0  0  0  0  0  0  0  0
    0.2777   -4.7925    6.4784 H   0  0  0  0  0  0  0  0  0  0  0  0
   -4.1846   -4.4915    4.7761 H   0  0  0  0  0  0  0  0  0  0  0  0
   -4.5714   -4.3924    6.5263 H   0  0  0  0  0  0  0  0  0  0  0  0
   -4.6474   -5.9513    5.6785 H   0  0  0  0  0  0  0  0  0  0  0  0
   -3.3155   -2.5653    5.8137 H   0  0  0  0  0  0  0  0  0  0  0  0
   -2.0348   -0.4941    5.8361 H   0  0  0  0  0  0  0  0  0  0  0  0
    2.9462    0.9299    5.7724 H   0  0  0  0  0  0  0  0  0  0  0  0
    4.6417    1.3353    7.4759 H   0  0  0  0  0  0  0  0  0  0  0  0
    4.8849    2.8762    9.4668 H   0  0  0  0  0  0  0  0  0  0  0  0
    6.2962    1.8626    9.0208 H   0  0  0  0  0  0  0  0  0  0  0  0
    6.1259    2.4841   10.6760 H   0  0  0  0  0  0  0  0  0  0  0  0
    2.2410   -0.7125   10.3616 H   0  0  0  0  0  0  0  0  0  0  0  0
    0.5097   -1.0839    8.6555 H   0  0  0  0  0  0  0  0  0  0  0  0
    0.6972    2.0634    7.3353 H   0  0  0  0  0  0  0  0  0  0  0  0
    2.1413    7.6633    4.9022 H   0  0  0  0  0  0  0  0  0  0  0  0
    2.7099    6.5069    9.7999 H   0  0  0  0  0  0  0  0  0  0  0  0
    4.5899    9.2646    8.9845 H   0  0  0  0  0  0  0  0  0  0  0  0
    2.8739   10.4276   10.3630 H   0  0  0  0  0  0  0  0  0  0  0  0
    0.5477    9.5482    9.5549 H   0  0  0  0  0  0  0  0  0  0  0  0
    0.2567   10.1957    6.9957 H   0  0  0  0  0  0  0  0  0  0  0  0
    2.4037   11.4772    6.2266 H   0  0  0  0  0  0  0  0  0  0  0  0
    2.3413   12.4193    8.7002 H   0  0  0  0  0  0  0  0  0  0  0  0
    3.9943   11.8447    8.3670 H   0  0  0  0  0  0  0  0  0  0  0  0
    4.3094    9.8972    6.4989 H   0  0  0  0  0  0  0  0  0  0  0  0
  1  2  2  0  0  0  0
  2  3  1  0  0  0  0
  3  4  2  0  0  0  0
  3  5  1  0  0  0  0
  5  6  2  0  0  0  0
  6  7  1  0  0  0  0
  7  8  2  0  0  0  0
  8  9  1  0  0  0  0
  9 10  2  0  0  0  0
 10 11  1  0  0  0  0
 11 12  2  0  0  0  0
 12 13  1  0  0  0  0
 13 14  3  0  0  0  0
 12 15  1  0  0  0  0
 15 16  3  0  0  0  0
  8 17  1  0  0  0  0
 17 18  1  0  0  0  0
 18 19  1  0  0  0  0
 19 20  2  0  0  0  0
 20 21  1  0  0  0  0
 21 22  1  0  0  0  0
 21 23  1  0  0  0  0
  1 24  1  0  0  0  0
 24 25  2  0  0  0  0
 25 26  1  0  0  0  0
 26 27  2  0  0  0  0
 27 28  1  0  0  0  0
 28 29  1  0  0  0  0
 27 30  1  0  0  0  0
 30 31  1  0  0  0  0
 31 32  2  0  0  0  0
 32 33  1  0  0  0  0
 33 34  2  0  0  0  0
 34 35  1  0  0  0  0
 35 36  1  0  0  0  0
 36 37  1  0  0  0  0
 37 38  1  0  0  0  0
 36 39  2  0  0  0  0
 32 40  1  0  0  0  0
 40 41  1  0  0  0  0
 41 42  2  0  0  0  0
 42 43  1  0  0  0  0
 43 44  1  0  0  0  0
 44 45  1  0  0  0  0
 43 46  1  0  0  0  0
 46 47  2  0  0  0  0
 47 48  1  0  0  0  0
 48 49  2  0  0  0  0
 49 50  1  0  0  0  0
 50 51  1  0  0  0  0
 49 52  1  0  0  0  0
 48 53  1  0  0  0  0
 53 54  2  0  0  0  0
 54 55  1  0  0  0  0
 55 56  1  0  0  0  0
 56 57  2  0  0  0  0
 57 58  1  0  0  0  0
 58 59  2  0  0  0  0
 59 60  1  0  0  0  0
 60 61  1  0  0  0  0
 59 62  1  0  0  0  0
 62 63  2  0  0  0  0
 55 64  1  0  0  0  0
 64 65  2  0  0  0  0
 65 66  1  0  0  0  0
 66 67  2  0  0  0  0
 67 68  1  0  0  0  0
 68 69  1  0  0  0  0
 67 70  1  0  0  0  0
 70 71  2  0  0  0  0
 54 72  1  0  0  0  0
 72 73  1  0  0  0  0
 73 74  1  0  0  0  0
 74 75  2  0  0  0  0
 75 76  1  0  0  0  0
 76 77  1  0  0  0  0
 77 78  2  0  0  0  0
 78 79  1  0  0  0  0
 79 80  2  0  0  0  0
 80 81  1  0  0  0  0
 81 82  1  0  0  0  0
 80 83  1  0  0  0  0
 83 84  2  0  0  0  0
 76 85  1  0  0  0  0
 85 86  2  0  0  0  0
 86 87  1  0  0  0  0
 87 88  2  0  0  0  0
 88 89  1  0  0  0  0
 89 90  1  0  0  0  0
 88 91  1  0  0  0  0
 91 92  2  0  0  0  0
 75 93  1  0  0  0  0
 93 94  1  0  0  0  0
 74 95  1  0  0  0  0
 95 96  2  0  0  0  0
 96 97  1  0  0  0  0
 97 98  2  0  0  0  0
 97 99  1  0  0  0  0
 99100  2  0  0  0  0
100101  1  0  0  0  0
101102  2  0  0  0  0
102103  1  0  0  0  0
103104  2  0  0  0  0
104105  1  0  0  0  0
105106  2  0  0  0  0
106107  1  0  0  0  0
107108  3  0  0  0  0
106109  1  0  0  0  0
109110  3  0  0  0  0
102111  1  0  0  0  0
111112  1  0  0  0  0
112113  1  0  0  0  0
113114  2  0  0  0  0
114115  1  0  0  0  0
115116  1  0  0  0  0
115117  1  0  0  0  0
 11  2  1  0  0  0  0
 23 17  1  0  0  0  0
 34 24  1  0  0  0  0
 50 40  2  0  0  0  0
 94 53  1  0  0  0  0
105 96  1  0  0  0  0
117111  1  0  0  0  0
 10  5  1  0  0  0  0
 22 18  1  0  0  0  0
 31 25  1  0  0  0  0
 39 33  1  0  0  0  0
 47 41  1  0  0  0  0
 63 56  1  0  0  0  0
 71 64  1  0  0  0  0
 93 72  2  0  0  0  0
104 99  1  0  0  0  0
116112  1  0  0  0  0
 23  7  1  0  0  0  0
 84 77  1  0  0  0  0
 92 85  1  0  0  0  0
117101  1  0  0  0  0
  1118  1  0  0  0  0
  6119  1  0  0  0  0
  9120  1  0  0  0  0
 17121  1  0  0  0  0
 18122  1  0  0  0  0
 19123  1  0  0  0  0
 20124  1  0  0  0  0
 21125  1  0  0  0  0
 22126  1  0  0  0  0
 22127  1  0  0  0  0
 23128  1  0  0  0  0
 26129  1  0  0  0  0
 28130  1  0  0  0  0
 28131  1  0  0  0  0
 29132  1  0  0  0  0
 29133  1  0  0  0  0
 29134  1  0  0  0  0
 37135  1  0  0  0  0
 37136  1  0  0  0  0
 38137  1  0  0  0  0
 38138  1  0  0  0  0
 38139  1  0  0  0  0
 39140  1  0  0  0  0
 44141  1  0  0  0  0
 44142  1  0  0  0  0
 45143  1  0  0  0  0
 45144  1  0  0  0  0
 45145  1  0  0  0  0
 57146  1  0  0  0  0
 58147  1  0  0  0  0
 61148  1  0  0  0  0
 61149  1  0  0  0  0
 61150  1  0  0  0  0
 62151  1  0  0  0  0
 63152  1  0  0  0  0
 65153  1  0  0  0  0
 66154  1  0  0  0  0
 69155  1  0  0  0  0
 69156  1  0  0  0  0
 69157  1  0  0  0  0
 70158  1  0  0  0  0
 71159  1  0  0  0  0
 78160  1  0  0  0  0
 79161  1  0  0  0  0
 82162  1  0  0  0  0
 82163  1  0  0  0  0
 82164  1  0  0  0  0
 83165  1  0  0  0  0
 84166  1  0  0  0  0
 86167  1  0  0  0  0
 87168  1  0  0  0  0
 90169  1  0  0  0  0
 90170  1  0  0  0  0
 90171  1  0  0  0  0
 91172  1  0  0  0  0
 92173  1  0  0  0  0
 95174  1  0  0  0  0
100175  1  0  0  0  0
103176  1  0  0  0  0
111177  1  0  0  0  0
112178  1  0  0  0  0
113179  1  0  0  0  0
114180  1  0  0  0  0
115181  1  0  0  0  0
116182  1  0  0  0  0
116183  1  0  0  0  0
117184  1  0  0  0  0
M  END
