193

C          3.97100        1.57590        6.71710
C          5.25760        2.00500        6.94700
C          6.21860        2.33050        5.87850
O          6.04530        2.23050        4.67800
C          7.38530        2.92820        6.55960
C          8.55810        3.38660        5.96860
C          9.49560        3.84330        6.86530
C          9.27720        3.85490        8.24830
C          8.11530        3.42410        8.84390
C          7.15490        2.94930        7.94940
C          5.84120        2.36880        8.20800
C          5.32210        2.05640        9.44110
C          5.93760        2.35130       10.67130
N          6.37830        2.54300       11.71530
C          4.14240        1.30980        9.62690
N          3.22690        0.65450        9.85870
C         10.64730        4.41050        8.54140
C         11.72290        3.42360        9.05840
C         11.35150        2.06010        8.52890
C         11.56850        2.06350        7.22020
C         12.08200        3.43010        6.84070
C         12.87740        3.78030        8.10810
C         10.88950        4.40590        6.99900
C          3.53190        0.88560        5.58040
C          4.21290        0.04700        4.67730
N          5.50340       -0.39450        4.76690
C          6.17310       -0.75320        3.57640
C          6.11720        0.07930        2.46360
C          6.73600       -0.28550        1.28480
C          7.42240       -1.49090        1.20640
S          8.22190       -2.07270       -0.25190
C          7.66570       -0.91900       -1.53860
C          7.51170       -2.30680        2.33420
C          6.89330       -1.94390        3.50990
C          6.20790       -0.48200        5.97200
C          7.56280       -0.14130        6.01010
C          8.25100       -0.15720        7.20160
C          7.61100       -0.52210        8.38560
S          8.56890       -0.41350        9.85740
C          7.45320       -0.98270       11.16850
C          6.28090       -0.92580        8.34200
C          5.58900       -0.90190        7.14780
C          3.33340       -0.39000        3.65360
S          3.52880       -1.38750        2.24980
C          1.85260       -1.18160        1.85220
C          1.16980       -0.38090        2.74430
N         -0.17490        0.01000        2.54640
C         -0.46040        0.87260        1.48570
C         -1.76430        1.27650        1.19360
C         -2.04690        2.02180        0.06490
C         -1.02950        2.41670       -0.79170
S         -1.28630        3.28180       -2.31250
C         -3.05330        3.02760       -2.63920
C          0.28600        2.15760       -0.42090
C          0.56620        1.41470        0.70420
C         -1.14880       -0.79490        3.16720
C         -2.24110       -1.31790        2.47220
C         -3.16550       -2.11160        3.11380
C         -3.01270       -2.43670        4.45910
S         -4.23910       -3.50060        5.15840
C         -3.88400       -3.45710        6.93720
C         -1.91440       -1.94760        5.14980
C         -1.00070       -1.13300        4.50950
C          2.02320        0.05350        3.78200
S          1.81060        1.01860        5.19320
C          1.25840       -1.61460        0.59440
C          0.13350       -2.45800        0.54070
N         -0.37870       -3.29340        1.45530
N         -1.41160       -3.82040        0.86540
C         -2.19960       -4.84350        1.49020
C         -1.63920       -6.22180        1.15320
N         -1.66420       -3.41910       -0.34900
C         -0.68890       -2.54220       -0.62310
C         -0.43450       -1.75360       -1.77020
C          0.77750       -1.08280       -1.74380
C          1.60480       -1.03390       -0.60980
F          2.72430       -0.29470       -0.69450
F          1.17830       -0.37650       -2.81400
C         -1.41420       -1.59580       -2.81110
C         -2.50300       -2.39080       -3.03180
C         -3.35020       -1.91300       -4.05890
C         -4.55970       -2.47730       -4.50710
C         -5.04540       -3.75890       -3.98240
C         -6.35000       -3.88780       -3.50950
C         -6.80460       -5.09640       -3.02770
C         -5.96670       -6.20790       -3.01310
S         -6.63060       -7.70370       -2.34440
C         -5.71370       -9.02080       -3.22060
C         -5.96890       -8.99460       -4.71470
C         -4.66310       -6.08690       -3.47700
C         -4.21170       -4.87400       -3.95790
C         -5.25360       -1.76800       -5.47380
C         -4.79260       -0.52890       -5.99790
C         -3.59460        0.05140       -5.52820
C         -3.18960        1.37670       -5.99500
C         -1.88600        1.65030       -6.40860
C         -1.55810        2.89110       -6.90920
C         -2.51960        3.89660       -6.99430
S         -2.01530        5.43200       -7.69550
C         -3.57800        6.21580       -8.23190
C         -4.28680        5.42860       -9.31790
C         -3.80200        3.65460       -6.51650
C         -4.13080        2.40640       -6.03300
C         -2.88350       -0.68150       -4.59260
S         -1.38010       -0.19800       -3.86020
C         -5.62020       -0.03880       -7.02230
C         -6.71510       -0.82890       -7.28240
S         -6.73410       -2.26060       -6.24530
C         -7.76390       -0.69960       -8.21530
C         -8.08440        0.30950       -9.08600
C         -7.47170        1.64920       -9.22830
O         -6.49000        2.11630       -8.68640
C         -8.32590        2.37870      -10.18910
C         -8.18370        3.68030      -10.62330
C         -9.12180        4.15950      -11.52900
Cl        -8.99360        5.77780      -12.10720
C        -10.16420        3.35480      -11.97570
C        -10.29420        2.04640      -11.53590
C         -9.36460        1.54670      -10.63410
C         -9.21600        0.23890      -10.00180
C         -9.98930       -0.85580      -10.28800
C        -11.06810       -0.84110      -11.19860
N        -11.95950       -0.90320      -11.91930
C         -9.83380       -2.15930       -9.76840
N         -9.78400       -3.25370       -9.42280
H          3.20570        1.81050        7.44790
H          8.68960        3.35650        4.89810
H          7.95610        3.44730        9.90920
H         10.67800        5.36640        9.06070
H         11.91470        3.48520       10.12610
H         10.92740        1.27920        9.13330
H         11.37290        1.28320        6.50740
H         12.60120        3.50140        5.88820
H         13.74990        3.14360        8.24690
H         13.17380        4.82710        8.15920
H         11.06650        5.36170        6.50920
H          5.60560        1.02580        2.53980
H          6.67750        0.38040        0.43990
H          8.09560        0.06450       -1.37240
H          6.58060       -0.88010       -1.55240
H          8.03430       -1.32610       -2.47510
H          8.06170       -3.23290        2.26950
H          6.95390       -2.58300        4.37840
H          8.06000        0.15910        5.10060
H          9.28730        0.13930        7.23870
H          7.14580       -2.00620       10.97550
H          8.03640       -0.93730       12.08290
H          6.59880       -0.31750       11.25090
H          5.76460       -1.24700        9.23230
H          4.55270       -1.20480        7.13360
H         -2.57320        1.02180        1.85980
H         -3.07280        2.29070       -0.13070
H         -3.29050        1.97060       -2.56070
H         -3.21480        3.36630       -3.65810
H         -3.65480        3.61760       -1.95340
H          1.09100        2.53280       -1.03360
H          1.59790        1.25940        0.97620
H         -2.36350       -1.11640        1.41850
H         -4.01560       -2.49960        2.57270
H         -2.93810       -3.94900        7.14440
H         -3.87870       -2.42810        7.28370
H         -4.69360       -4.00350        7.41080
H         -1.75610       -2.18690        6.18870
H         -0.16280       -0.75180        5.07000
H         -2.17350       -4.66750        2.56630
H         -3.22050       -4.74710        1.11720
H         -2.24350       -6.98750        1.63020
H         -1.65530       -6.38140        0.07780
H         -0.61560       -6.30930        1.50880
H         -2.69450       -3.27490       -2.45300
H         -7.00670       -3.03090       -3.50820
H         -7.81380       -5.19490       -2.65850
H         -4.65470       -8.93170       -2.98040
H         -6.09500       -9.93880       -2.77370
H         -5.62370       -8.05940       -5.15140
H         -5.44280       -9.81770       -5.19430
H         -7.03260       -9.09550       -4.91680
H         -3.99040       -6.93050       -3.46550
H         -3.20400       -4.79490       -4.33900
H         -1.13800        0.87300       -6.37930
H         -0.55650        3.09320       -7.25550
H         -3.25560        7.18820       -8.60490
H         -4.20790        6.37350       -7.35680
H         -5.16080        5.98390       -9.65480
H         -3.62340        5.27840      -10.16670
H         -4.60950        4.45430       -8.95590
H         -4.55280        4.42840       -6.51480
H         -5.12810        2.23330       -5.65650
H         -5.41000        0.85650       -7.57570
H         -8.43170       -1.55300       -8.21520
H         -7.37010        4.29270      -10.26810
H        -10.88010        3.75670      -12.67540
H        -11.11280        1.44680      -11.89770
