
  xtb     02052221553D
 energy: -318.175193594651 gnorm: 0.000583244890 xtb: 6.4.1 (unknown)
190208  0     0  0            999 V2000
    4.2778   -0.9432    7.4776 C   0  0  0  0  0  0  0  0  0  0  0  0
    5.5499   -1.4404    7.5261 C   0  0  0  0  0  0  0  0  0  0  0  0
    6.2014   -2.2933    6.5222 C   0  0  0  0  0  0  0  0  0  0  0  0
    5.8317   -2.5128    5.3825 O   0  0  0  0  0  0  0  0  0  0  0  0
    7.4106   -2.8329    7.1667 C   0  0  0  0  0  0  0  0  0  0  0  0
    8.3074   -3.7538    6.6282 C   0  0  0  0  0  0  0  0  0  0  0  0
    9.3354   -4.0919    7.4745 C   0  0  0  0  0  0  0  0  0  0  0  0
    9.4641   -3.5552    8.7628 C   0  0  0  0  0  0  0  0  0  0  0  0
    8.5936   -2.6377    9.3020 C   0  0  0  0  0  0  0  0  0  0  0  0
    7.5402   -2.2771    8.4562 C   0  0  0  0  0  0  0  0  0  0  0  0
    6.4477   -1.3286    8.6619 C   0  0  0  0  0  0  0  0  0  0  0  0
    6.3522   -0.4219    9.6828 C   0  0  0  0  0  0  0  0  0  0  0  0
    5.4043    0.6243    9.7562 C   0  0  0  0  0  0  0  0  0  0  0  0
    4.7245    1.5422    9.8691 N   0  0  0  0  0  0  0  0  0  0  0  0
    7.2537   -0.3520   10.7651 C   0  0  0  0  0  0  0  0  0  0  0  0
    7.9500   -0.2499   11.6726 N   0  0  0  0  0  0  0  0  0  0  0  0
   10.7125   -4.3500    9.0557 C   0  0  0  0  0  0  0  0  0  0  0  0
   10.5457   -5.5916    9.9574 C   0  0  0  0  0  0  0  0  0  0  0  0
   11.7844   -6.4113    9.6762 C   0  0  0  0  0  0  0  0  0  0  0  0
   11.6651   -6.9170    8.4552 C   0  0  0  0  0  0  0  0  0  0  0  0
   10.3437   -6.4476    7.8906 C   0  0  0  0  0  0  0  0  0  0  0  0
    9.5071   -6.4068    9.1760 C   0  0  0  0  0  0  0  0  0  0  0  0
   10.5710   -4.9456    7.6182 C   0  0  0  0  0  0  0  0  0  0  0  0
    3.3238   -0.9974    6.4462 C   0  0  0  0  0  0  0  0  0  0  0  0
    2.0341   -0.4562    6.5937 C   0  0  0  0  0  0  0  0  0  0  0  0
    1.4487    0.0754    7.8340 C   0  0  0  0  0  0  0  0  0  0  0  0
    1.8692   -0.1034    8.9515 O   0  0  0  0  0  0  0  0  0  0  0  0
    0.3433    0.7771    7.5500 O   0  0  0  0  0  0  0  0  0  0  0  0
   -0.3815    1.3179    8.6532 C   0  0  0  0  0  0  0  0  0  0  0  0
   -1.3331    0.2877    9.2442 C   0  0  0  0  0  0  0  0  0  0  0  0
    1.3265   -0.4952    5.3916 C   0  0  0  0  0  0  0  0  0  0  0  0
    2.0371   -1.0877    4.3511 C   0  0  0  0  0  0  0  0  0  0  0  0
    3.5952   -1.6144    4.8178 S   0  0  0  0  0  0  0  0  0  0  0  0
    1.3529   -1.0951    3.1195 C   0  0  0  0  0  0  0  0  0  0  0  0
    1.9528   -1.8275    2.0025 C   0  0  0  0  0  0  0  0  0  0  0  0
    3.0441   -2.3440    2.0982 O   0  0  0  0  0  0  0  0  0  0  0  0
    1.1681   -1.9175    0.9249 O   0  0  0  0  0  0  0  0  0  0  0  0
    1.6310   -2.7372   -0.1523 C   0  0  0  0  0  0  0  0  0  0  0  0
    0.4846   -3.5996   -0.6522 C   0  0  0  0  0  0  0  0  0  0  0  0
    0.1281   -0.4496    3.2160 C   0  0  0  0  0  0  0  0  0  0  0  0
   -0.2206    0.0582    4.8673 S   0  0  0  0  0  0  0  0  0  0  0  0
   -0.7491   -0.0473    2.1732 C   0  0  0  0  0  0  0  0  0  0  0  0
   -0.4243    0.5282    0.9446 C   0  0  0  0  0  0  0  0  0  0  0  0
    0.8360    0.9172    0.5554 N   0  0  0  0  0  0  0  0  0  0  0  0
    1.1636    1.0514   -0.8021 C   0  0  0  0  0  0  0  0  0  0  0  0
    1.9896    2.0951   -1.2108 C   0  0  0  0  0  0  0  0  0  0  0  0
    2.3191    2.2567   -2.5416 C   0  0  0  0  0  0  0  0  0  0  0  0
    1.8248    1.3743   -3.4940 C   0  0  0  0  0  0  0  0  0  0  0  0
    2.1544    1.4921   -5.2203 S   0  0  0  0  0  0  0  0  0  0  0  0
    3.2738    2.9199   -5.3520 C   0  0  0  0  0  0  0  0  0  0  0  0
    1.0106    0.3183   -3.0883 C   0  0  0  0  0  0  0  0  0  0  0  0
    0.6842    0.1564   -1.7599 C   0  0  0  0  0  0  0  0  0  0  0  0
    1.8095    1.2362    1.5199 C   0  0  0  0  0  0  0  0  0  0  0  0
    3.1085    0.7536    1.3966 C   0  0  0  0  0  0  0  0  0  0  0  0
    4.0387    0.9619    2.3977 C   0  0  0  0  0  0  0  0  0  0  0  0
    3.6814    1.6615    3.5422 C   0  0  0  0  0  0  0  0  0  0  0  0
    4.7399    1.9058    4.9311 S   0  0  0  0  0  0  0  0  0  0  0  0
    6.2021    0.9019    4.5496 C   0  0  0  0  0  0  0  0  0  0  0  0
    2.4039    2.2161    3.6330 C   0  0  0  0  0  0  0  0  0  0  0  0
    1.4811    2.0117    2.6335 C   0  0  0  0  0  0  0  0  0  0  0  0
   -1.5979    0.7781    0.1882 C   0  0  0  0  0  0  0  0  0  0  0  0
   -1.8993    1.4442   -1.3787 S   0  0  0  0  0  0  0  0  0  0  0  0
   -3.6259    1.2071   -1.1674 C   0  0  0  0  0  0  0  0  0  0  0  0
   -3.9447    0.7444    0.1006 C   0  0  0  0  0  0  0  0  0  0  0  0
   -5.2340    0.6239    0.5981 N   0  0  0  0  0  0  0  0  0  0  0  0
   -6.1816    1.6093    0.3013 C   0  0  0  0  0  0  0  0  0  0  0  0
   -5.7973    2.9398    0.1608 C   0  0  0  0  0  0  0  0  0  0  0  0
   -6.7121    3.9121   -0.1906 C   0  0  0  0  0  0  0  0  0  0  0  0
   -8.0418    3.5714   -0.3955 C   0  0  0  0  0  0  0  0  0  0  0  0
   -9.3010    4.7175   -0.8658 S   0  0  0  0  0  0  0  0  0  0  0  0
   -8.4197    6.2969   -1.0247 C   0  0  0  0  0  0  0  0  0  0  0  0
   -8.4403    2.2470   -0.2239 C   0  0  0  0  0  0  0  0  0  0  0  0
   -7.5250    1.2771    0.1164 C   0  0  0  0  0  0  0  0  0  0  0  0
   -5.5379   -0.4523    1.4410 C   0  0  0  0  0  0  0  0  0  0  0  0
   -6.3767   -0.2863    2.5387 C   0  0  0  0  0  0  0  0  0  0  0  0
   -6.6592   -1.3481    3.3753 C   0  0  0  0  0  0  0  0  0  0  0  0
   -6.0972   -2.5943    3.1324 C   0  0  0  0  0  0  0  0  0  0  0  0
   -6.3784   -4.0221    4.1319 S   0  0  0  0  0  0  0  0  0  0  0  0
   -7.3847   -3.4025    5.5101 C   0  0  0  0  0  0  0  0  0  0  0  0
   -5.2597   -2.7648    2.0316 C   0  0  0  0  0  0  0  0  0  0  0  0
   -4.9856   -1.7098    1.1917 C   0  0  0  0  0  0  0  0  0  0  0  0
   -2.7771    0.4772    0.8530 C   0  0  0  0  0  0  0  0  0  0  0  0
   -2.4867   -0.1391    2.4407 S   0  0  0  0  0  0  0  0  0  0  0  0
   -4.4465    1.2581   -2.3483 C   0  0  0  0  0  0  0  0  0  0  0  0
   -4.0008    1.9851   -3.4654 C   0  0  0  0  0  0  0  0  0  0  0  0
   -2.9447    2.8623   -3.3567 O   0  0  0  0  0  0  0  0  0  0  0  0
   -3.1942    4.0372   -2.6016 C   0  0  0  0  0  0  0  0  0  0  0  0
   -4.2467    4.9350   -3.2391 C   0  0  0  0  0  0  0  0  0  0  0  0
   -4.5237    1.7439   -4.7379 C   0  0  0  0  0  0  0  0  0  0  0  0
   -3.9669    2.4765   -5.7485 O   0  0  0  0  0  0  0  0  0  0  0  0
   -4.7625    2.9685   -6.8150 C   0  0  0  0  0  0  0  0  0  0  0  0
   -6.0663    3.6241   -6.3782 C   0  0  0  0  0  0  0  0  0  0  0  0
   -5.5227    0.7627   -4.8913 C   0  0  0  0  0  0  0  0  0  0  0  0
   -6.1136    0.2263   -3.7417 C   0  0  0  0  0  0  0  0  0  0  0  0
   -5.5746    0.4419   -2.4988 C   0  0  0  0  0  0  0  0  0  0  0  0
   -5.8768    0.1844   -6.1671 C   0  0  0  0  0  0  0  0  0  0  0  0
   -4.9959   -0.1917   -7.1197 C   0  0  0  0  0  0  0  0  0  0  0  0
   -5.4476   -0.5052   -8.5051 C   0  0  0  0  0  0  0  0  0  0  0  0
   -6.5831   -0.7257   -8.8612 O   0  0  0  0  0  0  0  0  0  0  0  0
   -4.2351   -0.4090   -9.3386 C   0  0  0  0  0  0  0  0  0  0  0  0
   -4.1584   -0.4956  -10.7286 C   0  0  0  0  0  0  0  0  0  0  0  0
   -2.8896   -0.3368  -11.2305 C   0  0  0  0  0  0  0  0  0  0  0  0
   -1.7751   -0.0867  -10.4163 C   0  0  0  0  0  0  0  0  0  0  0  0
   -1.8326    0.0018   -9.0467 C   0  0  0  0  0  0  0  0  0  0  0  0
   -3.1120   -0.1824   -8.5137 C   0  0  0  0  0  0  0  0  0  0  0  0
   -3.5392   -0.2205   -7.1195 C   0  0  0  0  0  0  0  0  0  0  0  0
   -2.7232   -0.4982   -6.0607 C   0  0  0  0  0  0  0  0  0  0  0  0
   -3.1475   -0.8340   -4.7570 C   0  0  0  0  0  0  0  0  0  0  0  0
   -3.3759   -1.2250   -3.7018 N   0  0  0  0  0  0  0  0  0  0  0  0
   -1.3246   -0.6631   -6.1620 C   0  0  0  0  0  0  0  0  0  0  0  0
   -0.1905   -0.8397   -6.1662 N   0  0  0  0  0  0  0  0  0  0  0  0
   -0.8307   -0.0277  -11.5904 C   0  0  0  0  0  0  0  0  0  0  0  0
    0.0556   -1.2705  -11.8190 C   0  0  0  0  0  0  0  0  0  0  0  0
    0.4985   -1.1390  -13.2583 C   0  0  0  0  0  0  0  0  0  0  0  0
   -0.5544   -1.3822  -14.0283 C   0  0  0  0  0  0  0  0  0  0  0  0
   -1.7269   -1.6823  -13.1223 C   0  0  0  0  0  0  0  0  0  0  0  0
   -0.9955   -2.3782  -11.9671 C   0  0  0  0  0  0  0  0  0  0  0  0
   -2.0707   -0.3133  -12.4972 C   0  0  0  0  0  0  0  0  0  0  0  0
    3.9096   -0.4474    8.3689 H   0  0  0  0  0  0  0  0  0  0  0  0
    8.1702   -4.1420    5.6311 H   0  0  0  0  0  0  0  0  0  0  0  0
    8.7058   -2.2322   10.2936 H   0  0  0  0  0  0  0  0  0  0  0  0
   11.6004   -3.7676    9.2941 H   0  0  0  0  0  0  0  0  0  0  0  0
   10.3303   -5.3717   10.9994 H   0  0  0  0  0  0  0  0  0  0  0  0
   12.6173   -6.4904   10.3500 H   0  0  0  0  0  0  0  0  0  0  0  0
   12.3784   -7.5029    7.9055 H   0  0  0  0  0  0  0  0  0  0  0  0
    9.9439   -7.0080    7.0498 H   0  0  0  0  0  0  0  0  0  0  0  0
    9.3575   -7.3979    9.6011 H   0  0  0  0  0  0  0  0  0  0  0  0
    8.5454   -5.9097    9.0638 H   0  0  0  0  0  0  0  0  0  0  0  0
   11.3646   -4.7587    6.8970 H   0  0  0  0  0  0  0  0  0  0  0  0
   -0.9274    2.1692    8.2417 H   0  0  0  0  0  0  0  0  0  0  0  0
    0.3312    1.6578    9.4117 H   0  0  0  0  0  0  0  0  0  0  0  0
   -2.0021   -0.0890    8.4738 H   0  0  0  0  0  0  0  0  0  0  0  0
   -1.9201    0.7447   10.0356 H   0  0  0  0  0  0  0  0  0  0  0  0
   -0.7682   -0.5429    9.6603 H   0  0  0  0  0  0  0  0  0  0  0  0
    1.9966   -2.0750   -0.9451 H   0  0  0  0  0  0  0  0  0  0  0  0
    2.4623   -3.3512    0.2098 H   0  0  0  0  0  0  0  0  0  0  0  0
    0.8218   -4.1980   -1.4935 H   0  0  0  0  0  0  0  0  0  0  0  0
    0.1372   -4.2604    0.1380 H   0  0  0  0  0  0  0  0  0  0  0  0
   -0.3478   -2.9787   -0.9738 H   0  0  0  0  0  0  0  0  0  0  0  0
    2.3696    2.7917   -0.4777 H   0  0  0  0  0  0  0  0  0  0  0  0
    2.9539    3.0820   -2.8203 H   0  0  0  0  0  0  0  0  0  0  0  0
    4.1773    2.7408   -4.7770 H   0  0  0  0  0  0  0  0  0  0  0  0
    2.7685    3.8234   -5.0233 H   0  0  0  0  0  0  0  0  0  0  0  0
    3.5200    3.0001   -6.4061 H   0  0  0  0  0  0  0  0  0  0  0  0
    0.6394   -0.3708   -3.8314 H   0  0  0  0  0  0  0  0  0  0  0  0
    0.0580   -0.6667   -1.4558 H   0  0  0  0  0  0  0  0  0  0  0  0
    3.3889    0.1916    0.5184 H   0  0  0  0  0  0  0  0  0  0  0  0
    5.0247    0.5440    2.2839 H   0  0  0  0  0  0  0  0  0  0  0  0
    5.9106   -0.1305    4.3771 H   0  0  0  0  0  0  0  0  0  0  0  0
    6.7257    1.3168    3.6931 H   0  0  0  0  0  0  0  0  0  0  0  0
    6.8337    0.9674    5.4308 H   0  0  0  0  0  0  0  0  0  0  0  0
    2.1449    2.7955    4.5060 H   0  0  0  0  0  0  0  0  0  0  0  0
    0.4906    2.4338    2.7178 H   0  0  0  0  0  0  0  0  0  0  0  0
   -4.7691    3.2182    0.3392 H   0  0  0  0  0  0  0  0  0  0  0  0
   -6.3738    4.9309   -0.2907 H   0  0  0  0  0  0  0  0  0  0  0  0
   -7.6468    6.2172   -1.7838 H   0  0  0  0  0  0  0  0  0  0  0  0
   -8.0042    6.5909   -0.0653 H   0  0  0  0  0  0  0  0  0  0  0  0
   -9.1690    7.0178   -1.3366 H   0  0  0  0  0  0  0  0  0  0  0  0
   -9.4773    1.9887   -0.3741 H   0  0  0  0  0  0  0  0  0  0  0  0
   -7.8440    0.2523    0.2349 H   0  0  0  0  0  0  0  0  0  0  0  0
   -6.8060    0.6838    2.7412 H   0  0  0  0  0  0  0  0  0  0  0  0
   -7.3123   -1.1847    4.2171 H   0  0  0  0  0  0  0  0  0  0  0  0
   -8.3442   -3.0483    5.1445 H   0  0  0  0  0  0  0  0  0  0  0  0
   -6.8473   -2.6196    6.0371 H   0  0  0  0  0  0  0  0  0  0  0  0
   -7.5342   -4.2537    6.1670 H   0  0  0  0  0  0  0  0  0  0  0  0
   -4.8335   -3.7379    1.8422 H   0  0  0  0  0  0  0  0  0  0  0  0
   -4.3472   -1.8520    0.3324 H   0  0  0  0  0  0  0  0  0  0  0  0
   -3.5015    3.7821   -1.5791 H   0  0  0  0  0  0  0  0  0  0  0  0
   -2.2264    4.5423   -2.5630 H   0  0  0  0  0  0  0  0  0  0  0  0
   -4.3176    5.8673   -2.6846 H   0  0  0  0  0  0  0  0  0  0  0  0
   -3.9706    5.1540   -4.2674 H   0  0  0  0  0  0  0  0  0  0  0  0
   -5.2170    4.4401   -3.2259 H   0  0  0  0  0  0  0  0  0  0  0  0
   -4.9764    2.1822   -7.5494 H   0  0  0  0  0  0  0  0  0  0  0  0
   -4.1113    3.7072   -7.2917 H   0  0  0  0  0  0  0  0  0  0  0  0
   -6.5720    4.0234   -7.2529 H   0  0  0  0  0  0  0  0  0  0  0  0
   -6.7230    2.9027   -5.8972 H   0  0  0  0  0  0  0  0  0  0  0  0
   -5.8721    4.4362   -5.6825 H   0  0  0  0  0  0  0  0  0  0  0  0
   -6.9288   -0.4714   -3.8590 H   0  0  0  0  0  0  0  0  0  0  0  0
   -5.9624   -0.1022   -1.6557 H   0  0  0  0  0  0  0  0  0  0  0  0
   -6.9265    0.0098   -6.3787 H   0  0  0  0  0  0  0  0  0  0  0  0
   -5.0411   -0.6752  -11.3220 H   0  0  0  0  0  0  0  0  0  0  0  0
   -0.9749    0.2093   -8.4279 H   0  0  0  0  0  0  0  0  0  0  0  0
   -0.2930    0.9093  -11.7219 H   0  0  0  0  0  0  0  0  0  0  0  0
    0.8351   -1.4151  -11.0762 H   0  0  0  0  0  0  0  0  0  0  0  0
    1.4855   -0.8387  -13.5574 H   0  0  0  0  0  0  0  0  0  0  0  0
   -0.6228   -1.3256  -15.0989 H   0  0  0  0  0  0  0  0  0  0  0  0
   -2.5694   -2.2035  -13.5691 H   0  0  0  0  0  0  0  0  0  0  0  0
   -1.6074   -2.5307  -11.0801 H   0  0  0  0  0  0  0  0  0  0  0  0
   -0.5542   -3.3256  -12.2716 H   0  0  0  0  0  0  0  0  0  0  0  0
   -2.3595    0.4313  -13.2369 H   0  0  0  0  0  0  0  0  0  0  0  0
  1  2  2  0  0  0  0
  2  3  1  0  0  0  0
  3  4  2  0  0  0  0
  3  5  1  0  0  0  0
  5  6  2  0  0  0  0
  6  7  1  0  0  0  0
  7  8  2  0  0  0  0
  8  9  1  0  0  0  0
  9 10  2  0  0  0  0
 10 11  1  0  0  0  0
 11 12  2  0  0  0  0
 12 13  1  0  0  0  0
 13 14  3  0  0  0  0
 12 15  1  0  0  0  0
 15 16  3  0  0  0  0
  8 17  1  0  0  0  0
 17 18  1  0  0  0  0
 18 19  1  0  0  0  0
 19 20  2  0  0  0  0
 20 21  1  0  0  0  0
 21 22  1  0  0  0  0
 21 23  1  0  0  0  0
  1 24  1  0  0  0  0
 24 25  2  0  0  0  0
 25 26  1  0  0  0  0
 26 27  2  0  0  0  0
 26 28  1  0  0  0  0
 28 29  1  0  0  0  0
 29 30  1  0  0  0  0
 25 31  1  0  0  0  0
 31 32  2  0  0  0  0
 32 33  1  0  0  0  0
 32 34  1  0  0  0  0
 34 35  1  0  0  0  0
 35 36  2  0  0  0  0
 35 37  1  0  0  0  0
 37 38  1  0  0  0  0
 38 39  1  0  0  0  0
 34 40  2  0  0  0  0
 40 41  1  0  0  0  0
 40 42  1  0  0  0  0
 42 43  2  0  0  0  0
 43 44  1  0  0  0  0
 44 45  1  0  0  0  0
 45 46  2  0  0  0  0
 46 47  1  0  0  0  0
 47 48  2  0  0  0  0
 48 49  1  0  0  0  0
 49 50  1  0  0  0  0
 48 51  1  0  0  0  0
 51 52  2  0  0  0  0
 44 53  1  0  0  0  0
 53 54  2  0  0  0  0
 54 55  1  0  0  0  0
 55 56  2  0  0  0  0
 56 57  1  0  0  0  0
 57 58  1  0  0  0  0
 56 59  1  0  0  0  0
 59 60  2  0  0  0  0
 43 61  1  0  0  0  0
 61 62  1  0  0  0  0
 62 63  1  0  0  0  0
 63 64  2  0  0  0  0
 64 65  1  0  0  0  0
 65 66  1  0  0  0  0
 66 67  2  0  0  0  0
 67 68  1  0  0  0  0
 68 69  2  0  0  0  0
 69 70  1  0  0  0  0
 70 71  1  0  0  0  0
 69 72  1  0  0  0  0
 72 73  2  0  0  0  0
 65 74  1  0  0  0  0
 74 75  2  0  0  0  0
 75 76  1  0  0  0  0
 76 77  2  0  0  0  0
 77 78  1  0  0  0  0
 78 79  1  0  0  0  0
 77 80  1  0  0  0  0
 80 81  2  0  0  0  0
 64 82  1  0  0  0  0
 82 83  1  0  0  0  0
 63 84  1  0  0  0  0
 84 85  2  0  0  0  0
 85 86  1  0  0  0  0
 86 87  1  0  0  0  0
 87 88  1  0  0  0  0
 85 89  1  0  0  0  0
 89 90  1  0  0  0  0
 90 91  1  0  0  0  0
 91 92  1  0  0  0  0
 89 93  2  0  0  0  0
 93 94  1  0  0  0  0
 94 95  2  0  0  0  0
 93 96  1  0  0  0  0
 96 97  2  0  0  0  0
 97 98  1  0  0  0  0
 98 99  2  0  0  0  0
 98100  1  0  0  0  0
100101  2  0  0  0  0
101102  1  0  0  0  0
102103  2  0  0  0  0
103104  1  0  0  0  0
104105  2  0  0  0  0
105106  1  0  0  0  0
106107  2  0  0  0  0
107108  1  0  0  0  0
108109  3  0  0  0  0
107110  1  0  0  0  0
110111  3  0  0  0  0
103112  1  0  0  0  0
112113  1  0  0  0  0
113114  1  0  0  0  0
114115  2  0  0  0  0
115116  1  0  0  0  0
116117  1  0  0  0  0
116118  1  0  0  0  0
 11  2  1  0  0  0  0
 23 17  1  0  0  0  0
 33 24  1  0  0  0  0
 83 42  1  0  0  0  0
 95 84  1  0  0  0  0
106 97  1  0  0  0  0
118112  1  0  0  0  0
 10  5  1  0  0  0  0
 22 18  1  0  0  0  0
 41 31  1  0  0  0  0
 52 45  1  0  0  0  0
 60 53  1  0  0  0  0
 82 61  2  0  0  0  0
105100  1  0  0  0  0
117113  1  0  0  0  0
 23  7  1  0  0  0  0
 73 66  1  0  0  0  0
 81 74  1  0  0  0  0
118102  1  0  0  0  0
  1119  1  0  0  0  0
  6120  1  0  0  0  0
  9121  1  0  0  0  0
 17122  1  0  0  0  0
 18123  1  0  0  0  0
 19124  1  0  0  0  0
 20125  1  0  0  0  0
 21126  1  0  0  0  0
 22127  1  0  0  0  0
 22128  1  0  0  0  0
 23129  1  0  0  0  0
 29130  1  0  0  0  0
 29131  1  0  0  0  0
 30132  1  0  0  0  0
 30133  1  0  0  0  0
 30134  1  0  0  0  0
 38135  1  0  0  0  0
 38136  1  0  0  0  0
 39137  1  0  0  0  0
 39138  1  0  0  0  0
 39139  1  0  0  0  0
 46140  1  0  0  0  0
 47141  1  0  0  0  0
 50142  1  0  0  0  0
 50143  1  0  0  0  0
 50144  1  0  0  0  0
 51145  1  0  0  0  0
 52146  1  0  0  0  0
 54147  1  0  0  0  0
 55148  1  0  0  0  0
 58149  1  0  0  0  0
 58150  1  0  0  0  0
 58151  1  0  0  0  0
 59152  1  0  0  0  0
 60153  1  0  0  0  0
 67154  1  0  0  0  0
 68155  1  0  0  0  0
 71156  1  0  0  0  0
 71157  1  0  0  0  0
 71158  1  0  0  0  0
 72159  1  0  0  0  0
 73160  1  0  0  0  0
 75161  1  0  0  0  0
 76162  1  0  0  0  0
 79163  1  0  0  0  0
 79164  1  0  0  0  0
 79165  1  0  0  0  0
 80166  1  0  0  0  0
 81167  1  0  0  0  0
 87168  1  0  0  0  0
 87169  1  0  0  0  0
 88170  1  0  0  0  0
 88171  1  0  0  0  0
 88172  1  0  0  0  0
 91173  1  0  0  0  0
 91174  1  0  0  0  0
 92175  1  0  0  0  0
 92176  1  0  0  0  0
 92177  1  0  0  0  0
 94178  1  0  0  0  0
 95179  1  0  0  0  0
 96180  1  0  0  0  0
101181  1  0  0  0  0
104182  1  0  0  0  0
112183  1  0  0  0  0
113184  1  0  0  0  0
114185  1  0  0  0  0
115186  1  0  0  0  0
116187  1  0  0  0  0
117188  1  0  0  0  0
117189  1  0  0  0  0
118190  1  0  0  0  0
M  END
