190

C         -3.44390        6.20000        3.27470
C         -2.23450        6.78360        3.49420
C         -0.90640        6.25040        3.13970
O         -0.65010        5.39950        2.30970
C          0.05440        6.98430        3.98030
C          1.42070        6.73970        4.10720
C          2.05920        7.57740        4.98950
C          1.39280        8.59240        5.69070
C          0.04870        8.85190        5.57000
C         -0.62210        8.00510        4.68260
C         -2.03100        7.97110        4.30780
C         -2.97320        8.92300        4.58620
C         -4.28450        8.93330        4.05860
N         -5.34250        9.04770        3.62790
C         -2.73140       10.07080        5.36990
N         -2.59630       11.01820        6.00390
C          2.64460        9.02990        6.40860
C          2.78570        8.58160        7.87880
C          4.26390        8.72500        8.16030
C          4.89570        7.76450        7.49780
C          3.85500        6.95550        6.75750
C          2.68880        7.05590        7.74930
C          3.38790        7.89870        5.62800
C         -3.76160        5.01540        2.57700
S         -2.66250        4.09840        1.58840
C         -3.90070        2.96550        1.18700
C         -5.13230        3.31000        1.73260
C         -6.40950        2.67460        1.37220
O         -6.49040        1.71170        0.62700
C         -7.57790        3.35670        1.93380
C         -8.87880        3.03500        1.63720
C         -9.39860        1.94600        0.77070
C         -9.46710        0.62610        1.54480
S         -9.97960        4.06810        2.48540
C         -8.69420        4.93260        3.25630
C         -8.99550        6.07450        4.15790
C         -8.78160        7.41350        3.44410
C         -7.47370        4.45000        2.85450
C         -6.18980        4.97150        3.31760
O         -6.07700        5.73730        4.26220
C         -5.04530        4.46030        2.54840
C         -3.50230        1.76340        0.47860
C         -2.56480        1.86690       -0.56550
O         -2.20300        3.11620       -1.02120
C         -3.22420        3.88550       -1.64240
C         -2.68820        5.29260       -1.84090
C         -1.94960        0.71900       -1.06750
O         -1.01520        0.64560       -2.04400
C         -0.79420        1.67740       -2.99380
C          0.31320        2.63900       -2.58320
C         -2.28650       -0.53160       -0.49540
C         -3.31230       -0.62450        0.43460
C         -3.91090        0.51160        0.92960
C         -1.48840       -1.68870       -0.85370
C         -0.10680       -1.73390       -0.84190
N          0.71970       -0.73100       -0.36160
C          1.97920       -0.57710       -0.95510
C          3.11420       -0.37750       -0.17530
C          4.36780       -0.34170       -0.75460
C          4.50530       -0.49720       -2.12760
S          6.05480       -0.55830       -2.97070
C          7.28470       -0.42040       -1.63930
C          3.36580       -0.63310       -2.91880
C          2.11710       -0.67940       -2.34060
C          0.33040        0.04240        0.73570
C          0.67740        1.39110        0.81840
C          0.21200        2.17150        1.85510
C         -0.59230        1.61480        2.84340
S         -1.18220        2.67670        4.13400
C         -2.78900        1.92360        4.54020
C         -0.88670        0.25970        2.80690
C         -0.43250       -0.51590        1.76090
C          0.35890       -2.98910       -1.29880
S          1.92470       -3.61430       -1.64410
C          1.21890       -5.14410       -2.17080
C         -0.17560       -5.15310       -2.04910
N         -0.97980       -6.20470       -2.39910
C         -2.22130       -6.38920       -1.77580
C         -3.31360       -6.85040       -2.51150
C         -4.52890       -7.04460       -1.89690
C         -4.68620       -6.78290       -0.53590
S         -6.29230       -7.06710        0.13540
C         -6.14960       -6.52240        1.86140
C         -3.59830       -6.33810        0.20230
C         -2.37630       -6.14900       -0.41330
C         -0.57780       -7.12550       -3.39180
C         -0.66410       -8.49120       -3.14870
C         -0.22030       -9.39850       -4.09150
C          0.31640       -8.94670       -5.28980
S          0.94330      -10.01580       -6.54440
C          1.19480      -11.58700       -5.66790
C          0.35770       -7.57800       -5.55190
C         -0.09100       -6.67300       -4.61670
C         -0.64570       -3.90410       -1.57570
S         -2.21240       -3.21610       -1.29670
C          2.07500       -6.19040       -2.56720
C          3.34470       -6.05820       -3.04930
C          4.30370       -7.18670       -2.96980
O          4.04320       -8.34190       -2.70750
C          5.63150       -6.59140       -3.22850
C          6.87830       -7.20240       -3.10940
C          7.93820       -6.36620       -3.36920
C          7.77770       -5.01920       -3.72000
C          6.55600       -4.40230       -3.84870
C          5.46760       -5.23990       -3.59550
C          4.03890       -4.94010       -3.64410
C          3.48820       -3.92730       -4.38800
C          4.24110       -3.02440       -5.16560
N          4.78370       -2.27700       -5.84810
C          2.10760       -3.75280       -4.59640
N          0.99680       -3.58400       -4.83970
C          9.26450       -4.78090       -3.80970
C          9.91490       -4.03340       -2.62730
C         11.38360       -4.36950       -2.74770
C         11.53460       -5.64370       -2.40940
C         10.17030       -6.18970       -2.05490
C          9.53370       -4.93380       -1.44520
C          9.44470       -6.28150       -3.41450
H         -4.30400        6.65560        3.75280
H          1.89700        5.94910        3.54900
H         -0.45350        9.63290        6.11640
H          2.94860       10.06220        6.24720
H          2.10580        9.07090        8.57070
H          4.68850        9.51730        8.74830
H          5.95370        7.59450        7.42190
H          4.14910        5.96230        6.42910
H          1.73840        6.70190        7.35430
H          2.90350        6.54930        8.68880
H          4.18950        8.17630        4.94620
H         -8.72480        1.81690       -0.07840
H        -10.39350        2.21110        0.40800
H         -9.88520       -0.15170        0.91210
H        -10.09080        0.73250        2.43010
H         -8.46780        0.32570        1.84800
H         -8.32810        6.02970        5.02050
H        -10.02990        6.00070        4.49960
H         -7.73210        7.54720        3.19760
H         -9.37150        7.46080        2.53100
H         -9.08260        8.22750        4.09710
H         -3.49170        3.43390       -2.61050
H         -4.13030        3.90060       -1.02300
H         -1.80910        5.26870       -2.47880
H         -2.40520        5.71770       -0.88150
H         -3.44880        5.91620       -2.30180
H         -1.72050        2.21300       -3.21210
H         -0.49130        1.13840       -3.89880
H          0.03310        3.17560       -1.68100
H          0.48240        3.35260       -3.38550
H          1.23340        2.08590       -2.40840
H         -3.59100       -1.59770        0.80930
H         -4.65780        0.43960        1.70290
H          3.01420       -0.27470        0.89540
H          5.22870       -0.20940       -0.11940
H          8.25090       -0.46630       -2.13200
H          7.18010        0.53290       -1.12960
H          7.18160       -1.25250       -0.94870
H          3.47580       -0.71050       -3.98950
H          1.23730       -0.80310       -2.95360
H          1.29340        1.82870        0.04920
H          0.43760        3.22540        1.89370
H         -3.26810        1.59260        3.62360
H         -2.65730        1.09510        5.23020
H         -3.38010        2.70230        5.01330
H         -1.46850       -0.20010        3.59040
H         -0.66830       -1.56940        1.73980
H         -3.20010       -7.04620       -3.56680
H         -5.37740       -7.39490       -2.46400
H         -5.85090       -5.47890        1.89600
H         -7.14230       -6.63620        2.28580
H         -5.44720       -7.15490        2.39680
H         -3.68160       -6.14530        1.25950
H         -1.52920       -5.82580        0.17360
H         -1.06690       -8.84250       -2.20980
H         -0.29020      -10.45200       -3.87500
H          1.75790      -12.21640       -6.34980
H          1.77160      -11.40730       -4.76570
H          0.24010      -12.05420       -5.44340
H          0.74660       -7.23480       -6.49810
H         -0.05020       -5.61360       -4.81970
H          1.74430       -7.20640       -2.38280
H          6.96430       -8.24200       -2.83430
H          6.43890       -3.36090       -4.10180
H          9.63310       -4.44930       -4.77840
H          9.65730       -2.97980       -2.55960
H         12.12840       -3.68550       -3.11040
H         12.43050       -6.23600       -2.43250
H         10.14680       -7.10060       -1.46270
H          8.46110       -5.01680       -1.27920
H         10.02420       -4.63160       -0.52100
H          9.94020       -6.94930       -4.11690
