
  xtb     02152218283D
 energy: -304.945996046153 gnorm: 0.000710631634 xtb: 6.4.1 (unknown)
172188  0     0  0            999 V2000
   -1.3764   -0.5697   -5.5291 C   0  0  0  0  0  0  0  0  0  0  0  0
   -2.6120   -0.4061   -6.1131 C   0  0  0  0  0  0  0  0  0  0  0  0
   -3.8883   -0.1857   -5.4295 C   0  0  0  0  0  0  0  0  0  0  0  0
   -4.1280   -0.2835   -4.2359 O   0  0  0  0  0  0  0  0  0  0  0  0
   -4.8580    0.1879   -6.4764 C   0  0  0  0  0  0  0  0  0  0  0  0
   -6.1982    0.5245   -6.3061 C   0  0  0  0  0  0  0  0  0  0  0  0
   -6.8540    0.8255   -7.4759 C   0  0  0  0  0  0  0  0  0  0  0  0
   -6.2255    0.7919   -8.7267 C   0  0  0  0  0  0  0  0  0  0  0  0
   -4.9029    0.4621   -8.9091 C   0  0  0  0  0  0  0  0  0  0  0  0
   -4.2167    0.1591   -7.7311 C   0  0  0  0  0  0  0  0  0  0  0  0
   -2.8257   -0.2429   -7.5315 C   0  0  0  0  0  0  0  0  0  0  0  0
   -1.9040   -0.4244   -8.5346 C   0  0  0  0  0  0  0  0  0  0  0  0
   -0.6146   -0.9656   -8.3802 C   0  0  0  0  0  0  0  0  0  0  0  0
    0.4398   -1.4259   -8.3738 N   0  0  0  0  0  0  0  0  0  0  0  0
   -2.1154   -0.1121   -9.8920 C   0  0  0  0  0  0  0  0  0  0  0  0
   -2.1756    0.1477  -11.0098 N   0  0  0  0  0  0  0  0  0  0  0  0
   -7.4767    1.2137   -9.4559 C   0  0  0  0  0  0  0  0  0  0  0  0
   -7.5728    2.6845   -9.9308 C   0  0  0  0  0  0  0  0  0  0  0  0
   -6.6995    3.4921   -9.0029 C   0  0  0  0  0  0  0  0  0  0  0  0
   -7.2927    3.5267   -7.8172 C   0  0  0  0  0  0  0  0  0  0  0  0
   -8.5778    2.7433   -7.9219 C   0  0  0  0  0  0  0  0  0  0  0  0
   -8.9612    3.0457   -9.3792 C   0  0  0  0  0  0  0  0  0  0  0  0
   -8.1765    1.2537   -8.0607 C   0  0  0  0  0  0  0  0  0  0  0  0
   -1.0029   -0.6259   -4.1872 C   0  0  0  0  0  0  0  0  0  0  0  0
    0.3446   -0.6033   -3.7413 C   0  0  0  0  0  0  0  0  0  0  0  0
    1.4311   -0.2877   -4.5113 N   0  0  0  0  0  0  0  0  0  0  0  0
    1.3521    0.5791   -5.6186 C   0  0  0  0  0  0  0  0  0  0  0  0
    0.5225    1.7020   -5.5967 C   0  0  0  0  0  0  0  0  0  0  0  0
    0.3791    2.4733   -6.7265 C   0  0  0  0  0  0  0  0  0  0  0  0
    1.0785    2.1570   -7.8917 C   0  0  0  0  0  0  0  0  0  0  0  0
    0.7501    3.1421   -9.3174 S   0  0  0  0  0  0  0  0  0  0  0  0
    1.2867    2.0745  -10.6840 C   0  0  0  0  0  0  0  0  0  0  0  0
    1.9816    1.1033   -7.8813 C   0  0  0  0  0  0  0  0  0  0  0  0
    2.1102    0.3142   -6.7545 C   0  0  0  0  0  0  0  0  0  0  0  0
    2.7073   -0.7093   -4.0945 C   0  0  0  0  0  0  0  0  0  0  0  0
    3.7669    0.1959   -4.0518 C   0  0  0  0  0  0  0  0  0  0  0  0
    4.9965   -0.2056   -3.5833 C   0  0  0  0  0  0  0  0  0  0  0  0
    5.1955   -1.5169   -3.1512 C   0  0  0  0  0  0  0  0  0  0  0  0
    6.7928   -1.8972   -2.5050 S   0  0  0  0  0  0  0  0  0  0  0  0
    6.5778   -3.5425   -1.7698 C   0  0  0  0  0  0  0  0  0  0  0  0
    4.1566   -2.4328   -3.2420 C   0  0  0  0  0  0  0  0  0  0  0  0
    2.9218   -2.0293   -3.7112 C   0  0  0  0  0  0  0  0  0  0  0  0
    0.4255   -0.8885   -2.3654 C   0  0  0  0  0  0  0  0  0  0  0  0
    1.7315   -0.9413   -1.2114 S   0  0  0  0  0  0  0  0  0  0  0  0
    0.5873   -1.2807    0.0689 C   0  0  0  0  0  0  0  0  0  0  0  0
   -0.7396   -1.1877   -0.3508 C   0  0  0  0  0  0  0  0  0  0  0  0
   -1.8432   -1.1161    0.4679 N   0  0  0  0  0  0  0  0  0  0  0  0
   -1.7865   -0.5004    1.7239 C   0  0  0  0  0  0  0  0  0  0  0  0
   -2.5689   -0.9805    2.7715 C   0  0  0  0  0  0  0  0  0  0  0  0
   -2.4305   -0.4697    4.0467 C   0  0  0  0  0  0  0  0  0  0  0  0
   -1.5017    0.5321    4.2996 C   0  0  0  0  0  0  0  0  0  0  0  0
   -1.1777    1.1921    5.9011 S   0  0  0  0  0  0  0  0  0  0  0  0
   -2.0171    0.0319    7.0127 C   0  0  0  0  0  0  0  0  0  0  0  0
   -0.7687    1.0662    3.2406 C   0  0  0  0  0  0  0  0  0  0  0  0
   -0.9159    0.5648    1.9682 C   0  0  0  0  0  0  0  0  0  0  0  0
   -3.0627   -1.5776   -0.0571 C   0  0  0  0  0  0  0  0  0  0  0  0
   -3.1110   -2.8239   -0.6786 C   0  0  0  0  0  0  0  0  0  0  0  0
   -4.2636   -3.2363   -1.3109 C   0  0  0  0  0  0  0  0  0  0  0  0
   -5.3750   -2.4035   -1.3359 C   0  0  0  0  0  0  0  0  0  0  0  0
   -6.7957   -2.9143   -2.2594 S   0  0  0  0  0  0  0  0  0  0  0  0
   -7.1985   -1.3499   -3.0990 C   0  0  0  0  0  0  0  0  0  0  0  0
   -5.3516   -1.1911   -0.6584 C   0  0  0  0  0  0  0  0  0  0  0  0
   -4.2016   -0.7794   -0.0184 C   0  0  0  0  0  0  0  0  0  0  0  0
   -0.8147   -1.0275   -1.7566 C   0  0  0  0  0  0  0  0  0  0  0  0
   -2.1367   -0.8326   -2.8513 S   0  0  0  0  0  0  0  0  0  0  0  0
    1.0686   -1.5033    1.3941 C   0  0  0  0  0  0  0  0  0  0  0  0
    0.3833   -2.2172    2.3684 C   0  0  0  0  0  0  0  0  0  0  0  0
   -0.6596   -2.9962    2.0253 F   0  0  0  0  0  0  0  0  0  0  0  0
    0.7496   -2.1559    3.7163 C   0  0  0  0  0  0  0  0  0  0  0  0
   -0.0479   -2.7585    4.6110 F   0  0  0  0  0  0  0  0  0  0  0  0
    1.8385   -1.4243    4.1469 C   0  0  0  0  0  0  0  0  0  0  0  0
    2.6778   -0.8509    3.1555 C   0  0  0  0  0  0  0  0  0  0  0  0
    3.8402   -0.2710    3.4949 N   0  0  0  0  0  0  0  0  0  0  0  0
    4.6144    0.2180    2.5560 C   0  0  0  0  0  0  0  0  0  0  0  0
    5.9090    0.8166    3.0177 C   0  0  0  0  0  0  0  0  0  0  0  0
    7.0178   -0.2390    3.0099 C   0  0  0  0  0  0  0  0  0  0  0  0
    4.2563    0.1182    1.1827 C   0  0  0  0  0  0  0  0  0  0  0  0
    3.1168   -0.4380    0.8465 N   0  0  0  0  0  0  0  0  0  0  0  0
    2.3071   -0.9237    1.7918 C   0  0  0  0  0  0  0  0  0  0  0  0
    5.0888    0.6329    0.0497 C   0  0  0  0  0  0  0  0  0  0  0  0
    4.6229    2.0352   -0.3480 C   0  0  0  0  0  0  0  0  0  0  0  0
    2.1226   -1.2067    5.5627 C   0  0  0  0  0  0  0  0  0  0  0  0
    2.2638    0.1186    6.0437 C   0  0  0  0  0  0  0  0  0  0  0  0
    2.0871    1.1525    5.1885 N   0  0  0  0  0  0  0  0  0  0  0  0
    2.2318    2.3553    5.6441 C   0  0  0  0  0  0  0  0  0  0  0  0
    2.5671    2.6022    7.0094 C   0  0  0  0  0  0  0  0  0  0  0  0
    2.7255    3.8559    7.4020 O   0  0  0  0  0  0  0  0  0  0  0  0
    3.0370    4.0610    8.7813 C   0  0  0  0  0  0  0  0  0  0  0  0
    3.1510    5.5544    9.0227 C   0  0  0  0  0  0  0  0  0  0  0  0
    2.7133    1.6155    7.8628 N   0  0  0  0  0  0  0  0  0  0  0  0
    2.5613    0.3577    7.4060 C   0  0  0  0  0  0  0  0  0  0  0  0
    2.7015   -0.7227    8.3290 C   0  0  0  0  0  0  0  0  0  0  0  0
    2.5681   -2.0045    7.8116 C   0  0  0  0  0  0  0  0  0  0  0  0
    2.2815   -2.2403    6.4640 C   0  0  0  0  0  0  0  0  0  0  0  0
    2.2250   -3.5133    6.0450 F   0  0  0  0  0  0  0  0  0  0  0  0
    2.7962   -3.0720    8.5945 F   0  0  0  0  0  0  0  0  0  0  0  0
    3.0810   -0.4070    9.6750 C   0  0  0  0  0  0  0  0  0  0  0  0
    2.9735   -1.0802   10.8463 C   0  0  0  0  0  0  0  0  0  0  0  0
    3.8151   -0.6171   11.9927 C   0  0  0  0  0  0  0  0  0  0  0  0
    4.4146    0.4283   12.0701 O   0  0  0  0  0  0  0  0  0  0  0  0
    3.7828   -1.7256   12.9692 C   0  0  0  0  0  0  0  0  0  0  0  0
    4.4932   -1.8604   14.1447 C   0  0  0  0  0  0  0  0  0  0  0  0
    4.3009   -3.0230   14.8822 C   0  0  0  0  0  0  0  0  0  0  0  0
    5.1598   -3.2411   16.3591 Cl  0  0  0  0  0  0  0  0  0  0  0  0
    3.4291   -4.0168   14.4483 C   0  0  0  0  0  0  0  0  0  0  0  0
    2.7126   -3.8701   13.2708 C   0  0  0  0  0  0  0  0  0  0  0  0
    2.8844   -2.7132   12.5251 C   0  0  0  0  0  0  0  0  0  0  0  0
    2.2584   -2.2636   11.2853 C   0  0  0  0  0  0  0  0  0  0  0  0
    1.0774   -2.7362   10.7817 C   0  0  0  0  0  0  0  0  0  0  0  0
    0.3708   -3.8326   11.3189 C   0  0  0  0  0  0  0  0  0  0  0  0
   -0.2453   -4.7119   11.7234 N   0  0  0  0  0  0  0  0  0  0  0  0
    0.3912   -2.1150    9.7216 C   0  0  0  0  0  0  0  0  0  0  0  0
   -0.2038   -1.6089    8.8810 N   0  0  0  0  0  0  0  0  0  0  0  0
   -0.5447   -0.6382   -6.2181 H   0  0  0  0  0  0  0  0  0  0  0  0
   -6.6511    0.5408   -5.3272 H   0  0  0  0  0  0  0  0  0  0  0  0
   -4.4315    0.4407   -9.8777 H   0  0  0  0  0  0  0  0  0  0  0  0
   -7.8565    0.5125  -10.1963 H   0  0  0  0  0  0  0  0  0  0  0  0
   -7.4034    2.8272  -10.9947 H   0  0  0  0  0  0  0  0  0  0  0  0
   -5.7420    3.8928   -9.2796 H   0  0  0  0  0  0  0  0  0  0  0  0
   -6.9295    3.9627   -6.9049 H   0  0  0  0  0  0  0  0  0  0  0  0
   -9.3243    2.9405   -7.1567 H   0  0  0  0  0  0  0  0  0  0  0  0
   -9.2189    4.0917   -9.5387 H   0  0  0  0  0  0  0  0  0  0  0  0
   -9.7585    2.4082   -9.7592 H   0  0  0  0  0  0  0  0  0  0  0  0
   -9.0152    0.5808   -7.8917 H   0  0  0  0  0  0  0  0  0  0  0  0
   -0.0304    1.9439   -4.7015 H   0  0  0  0  0  0  0  0  0  0  0  0
   -0.2823    3.3260   -6.7264 H   0  0  0  0  0  0  0  0  0  0  0  0
    0.8955    1.0726  -10.5346 H   0  0  0  0  0  0  0  0  0  0  0  0
    2.3704    2.0695  -10.7587 H   0  0  0  0  0  0  0  0  0  0  0  0
    0.8573    2.5076  -11.5819 H   0  0  0  0  0  0  0  0  0  0  0  0
    2.5669    0.8648   -8.7536 H   0  0  0  0  0  0  0  0  0  0  0  0
    2.7803   -0.5310   -6.7653 H   0  0  0  0  0  0  0  0  0  0  0  0
    3.6106    1.2164   -4.3672 H   0  0  0  0  0  0  0  0  0  0  0  0
    5.8165    0.4939   -3.5291 H   0  0  0  0  0  0  0  0  0  0  0  0
    5.7516   -3.5218   -1.0651 H   0  0  0  0  0  0  0  0  0  0  0  0
    7.5060   -3.7548   -1.2482 H   0  0  0  0  0  0  0  0  0  0  0  0
    6.4180   -4.2838   -2.5473 H   0  0  0  0  0  0  0  0  0  0  0  0
    4.2916   -3.4614   -2.9507 H   0  0  0  0  0  0  0  0  0  0  0  0
    2.1138   -2.7419   -3.7792 H   0  0  0  0  0  0  0  0  0  0  0  0
   -3.2604   -1.7891    2.5883 H   0  0  0  0  0  0  0  0  0  0  0  0
   -3.0337   -0.8818    4.8385 H   0  0  0  0  0  0  0  0  0  0  0  0
   -1.7079    0.3073    8.0155 H   0  0  0  0  0  0  0  0  0  0  0  0
   -1.6840   -0.9789    6.8008 H   0  0  0  0  0  0  0  0  0  0  0  0
   -3.0944    0.1317    6.9151 H   0  0  0  0  0  0  0  0  0  0  0  0
   -0.0691    1.8630    3.4365 H   0  0  0  0  0  0  0  0  0  0  0  0
   -0.3386    0.9850    1.1583 H   0  0  0  0  0  0  0  0  0  0  0  0
   -2.2324   -3.4513   -0.6738 H   0  0  0  0  0  0  0  0  0  0  0  0
   -4.3058   -4.1920   -1.8097 H   0  0  0  0  0  0  0  0  0  0  0  0
   -6.2647   -0.8703   -3.3795 H   0  0  0  0  0  0  0  0  0  0  0  0
   -7.7729   -1.6171   -3.9808 H   0  0  0  0  0  0  0  0  0  0  0  0
   -7.7936   -0.7111   -2.4521 H   0  0  0  0  0  0  0  0  0  0  0  0
   -6.2243   -0.5574   -0.6449 H   0  0  0  0  0  0  0  0  0  0  0  0
   -4.1692    0.1735    0.4891 H   0  0  0  0  0  0  0  0  0  0  0  0
    5.7666    1.1747    4.0380 H   0  0  0  0  0  0  0  0  0  0  0  0
    6.1891    1.6574    2.3830 H   0  0  0  0  0  0  0  0  0  0  0  0
    7.9503    0.1958    3.3607 H   0  0  0  0  0  0  0  0  0  0  0  0
    6.7487   -1.0626    3.6665 H   0  0  0  0  0  0  0  0  0  0  0  0
    7.1745   -0.6344    2.0086 H   0  0  0  0  0  0  0  0  0  0  0  0
    6.1450    0.6505    0.3128 H   0  0  0  0  0  0  0  0  0  0  0  0
    4.9449   -0.0324   -0.8023 H   0  0  0  0  0  0  0  0  0  0  0  0
    3.5808    2.0019   -0.6550 H   0  0  0  0  0  0  0  0  0  0  0  0
    4.7186    2.7285    0.4853 H   0  0  0  0  0  0  0  0  0  0  0  0
    5.2192    2.4034   -1.1785 H   0  0  0  0  0  0  0  0  0  0  0  0
    2.0831    3.1806    4.9633 H   0  0  0  0  0  0  0  0  0  0  0  0
    3.9759    3.5465    9.0142 H   0  0  0  0  0  0  0  0  0  0  0  0
    2.2452    3.6150    9.3927 H   0  0  0  0  0  0  0  0  0  0  0  0
    2.2104    6.0450    8.7881 H   0  0  0  0  0  0  0  0  0  0  0  0
    3.3976    5.7367   10.0643 H   0  0  0  0  0  0  0  0  0  0  0  0
    3.9294    5.9775    8.3935 H   0  0  0  0  0  0  0  0  0  0  0  0
    3.5974    0.5457    9.7549 H   0  0  0  0  0  0  0  0  0  0  0  0
    5.1704   -1.0875   14.4721 H   0  0  0  0  0  0  0  0  0  0  0  0
    3.3115   -4.9113   15.0395 H   0  0  0  0  0  0  0  0  0  0  0  0
    2.0482   -4.6549   12.9475 H   0  0  0  0  0  0  0  0  0  0  0  0
  1  2  2  0  0  0  0
  2  3  1  0  0  0  0
  3  4  2  0  0  0  0
  3  5  1  0  0  0  0
  5  6  2  0  0  0  0
  6  7  1  0  0  0  0
  7  8  2  0  0  0  0
  8  9  1  0  0  0  0
  9 10  2  0  0  0  0
 10 11  1  0  0  0  0
 11 12  2  0  0  0  0
 12 13  1  0  0  0  0
 13 14  3  0  0  0  0
 12 15  1  0  0  0  0
 15 16  3  0  0  0  0
  8 17  1  0  0  0  0
 17 18  1  0  0  0  0
 18 19  1  0  0  0  0
 19 20  2  0  0  0  0
 20 21  1  0  0  0  0
 21 22  1  0  0  0  0
 21 23  1  0  0  0  0
  1 24  1  0  0  0  0
 24 25  2  0  0  0  0
 25 26  1  0  0  0  0
 26 27  1  0  0  0  0
 27 28  2  0  0  0  0
 28 29  1  0  0  0  0
 29 30  2  0  0  0  0
 30 31  1  0  0  0  0
 31 32  1  0  0  0  0
 30 33  1  0  0  0  0
 33 34  2  0  0  0  0
 26 35  1  0  0  0  0
 35 36  2  0  0  0  0
 36 37  1  0  0  0  0
 37 38  2  0  0  0  0
 38 39  1  0  0  0  0
 39 40  1  0  0  0  0
 38 41  1  0  0  0  0
 41 42  2  0  0  0  0
 25 43  1  0  0  0  0
 43 44  1  0  0  0  0
 44 45  1  0  0  0  0
 45 46  2  0  0  0  0
 46 47  1  0  0  0  0
 47 48  1  0  0  0  0
 48 49  2  0  0  0  0
 49 50  1  0  0  0  0
 50 51  2  0  0  0  0
 51 52  1  0  0  0  0
 52 53  1  0  0  0  0
 51 54  1  0  0  0  0
 54 55  2  0  0  0  0
 47 56  1  0  0  0  0
 56 57  2  0  0  0  0
 57 58  1  0  0  0  0
 58 59  2  0  0  0  0
 59 60  1  0  0  0  0
 60 61  1  0  0  0  0
 59 62  1  0  0  0  0
 62 63  2  0  0  0  0
 46 64  1  0  0  0  0
 64 65  1  0  0  0  0
 45 66  1  0  0  0  0
 66 67  2  0  0  0  0
 67 68  1  0  0  0  0
 67 69  1  0  0  0  0
 69 70  1  0  0  0  0
 69 71  2  0  0  0  0
 71 72  1  0  0  0  0
 72 73  2  0  0  0  0
 73 74  1  0  0  0  0
 74 75  1  0  0  0  0
 75 76  1  0  0  0  0
 74 77  2  0  0  0  0
 77 78  1  0  0  0  0
 78 79  2  0  0  0  0
 77 80  1  0  0  0  0
 80 81  1  0  0  0  0
 71 82  1  0  0  0  0
 82 83  1  0  0  0  0
 83 84  2  0  0  0  0
 84 85  1  0  0  0  0
 85 86  2  0  0  0  0
 86 87  1  0  0  0  0
 87 88  1  0  0  0  0
 88 89  1  0  0  0  0
 86 90  1  0  0  0  0
 90 91  2  0  0  0  0
 91 92  1  0  0  0  0
 92 93  2  0  0  0  0
 93 94  1  0  0  0  0
 94 95  1  0  0  0  0
 93 96  1  0  0  0  0
 92 97  1  0  0  0  0
 97 98  2  0  0  0  0
 98 99  1  0  0  0  0
 99100  2  0  0  0  0
 99101  1  0  0  0  0
101102  2  0  0  0  0
102103  1  0  0  0  0
103104  1  0  0  0  0
103105  2  0  0  0  0
105106  1  0  0  0  0
106107  2  0  0  0  0
107108  1  0  0  0  0
108109  2  0  0  0  0
109110  1  0  0  0  0
110111  3  0  0  0  0
109112  1  0  0  0  0
112113  3  0  0  0  0
 11  2  1  0  0  0  0
 23 17  1  0  0  0  0
 65 24  1  0  0  0  0
 79 66  1  0  0  0  0
 94 82  2  0  0  0  0
108 98  1  0  0  0  0
 10  5  1  0  0  0  0
 22 18  1  0  0  0  0
 34 27  1  0  0  0  0
 42 35  1  0  0  0  0
 64 43  2  0  0  0  0
 79 72  1  0  0  0  0
 91 83  1  0  0  0  0
107101  1  0  0  0  0
 23  7  1  0  0  0  0
 55 48  1  0  0  0  0
 63 56  1  0  0  0  0
  1114  1  0  0  0  0
  6115  1  0  0  0  0
  9116  1  0  0  0  0
 17117  1  0  0  0  0
 18118  1  0  0  0  0
 19119  1  0  0  0  0
 20120  1  0  0  0  0
 21121  1  0  0  0  0
 22122  1  0  0  0  0
 22123  1  0  0  0  0
 23124  1  0  0  0  0
 28125  1  0  0  0  0
 29126  1  0  0  0  0
 32127  1  0  0  0  0
 32128  1  0  0  0  0
 32129  1  0  0  0  0
 33130  1  0  0  0  0
 34131  1  0  0  0  0
 36132  1  0  0  0  0
 37133  1  0  0  0  0
 40134  1  0  0  0  0
 40135  1  0  0  0  0
 40136  1  0  0  0  0
 41137  1  0  0  0  0
 42138  1  0  0  0  0
 49139  1  0  0  0  0
 50140  1  0  0  0  0
 53141  1  0  0  0  0
 53142  1  0  0  0  0
 53143  1  0  0  0  0
 54144  1  0  0  0  0
 55145  1  0  0  0  0
 57146  1  0  0  0  0
 58147  1  0  0  0  0
 61148  1  0  0  0  0
 61149  1  0  0  0  0
 61150  1  0  0  0  0
 62151  1  0  0  0  0
 63152  1  0  0  0  0
 75153  1  0  0  0  0
 75154  1  0  0  0  0
 76155  1  0  0  0  0
 76156  1  0  0  0  0
 76157  1  0  0  0  0
 80158  1  0  0  0  0
 80159  1  0  0  0  0
 81160  1  0  0  0  0
 81161  1  0  0  0  0
 81162  1  0  0  0  0
 85163  1  0  0  0  0
 88164  1  0  0  0  0
 88165  1  0  0  0  0
 89166  1  0  0  0  0
 89167  1  0  0  0  0
 89168  1  0  0  0  0
 97169  1  0  0  0  0
102170  1  0  0  0  0
105171  1  0  0  0  0
106172  1  0  0  0  0
M  END
