
  xtb     02082220043D
 energy: -440.019197160708 gnorm: 0.000247681431 xtb: 6.4.1 (unknown)
265289  0     0  0            999 V2000
   -4.6702   -5.4174   -4.9221 C   0  0  0  0  0  0  0  0  0  0  0  0
   -6.0104   -5.2676   -5.2093 C   0  0  0  0  0  0  0  0  0  0  0  0
   -6.9595   -4.3802   -4.5401 C   0  0  0  0  0  0  0  0  0  0  0  0
   -6.7156   -3.4675   -3.7641 O   0  0  0  0  0  0  0  0  0  0  0  0
   -8.3001   -4.7801   -5.0018 C   0  0  0  0  0  0  0  0  0  0  0  0
   -9.5216   -4.2464   -4.6004 C   0  0  0  0  0  0  0  0  0  0  0  0
  -10.6118   -4.8442   -5.1867 C   0  0  0  0  0  0  0  0  0  0  0  0
  -10.4938   -5.8889   -6.1115 C   0  0  0  0  0  0  0  0  0  0  0  0
   -9.2926   -6.4172   -6.5241 C   0  0  0  0  0  0  0  0  0  0  0  0
   -8.1717   -5.8293   -5.9339 C   0  0  0  0  0  0  0  0  0  0  0  0
   -6.7466   -6.1009   -6.1299 C   0  0  0  0  0  0  0  0  0  0  0  0
   -6.2279   -6.9887   -7.0431 C   0  0  0  0  0  0  0  0  0  0  0  0
   -4.8652   -7.1123   -7.3717 C   0  0  0  0  0  0  0  0  0  0  0  0
   -3.7794   -7.2435   -7.7269 N   0  0  0  0  0  0  0  0  0  0  0  0
   -7.0002   -7.8826   -7.8103 C   0  0  0  0  0  0  0  0  0  0  0  0
   -7.5680   -8.6618   -8.4349 N   0  0  0  0  0  0  0  0  0  0  0  0
  -11.9871   -6.0154   -6.2807 C   0  0  0  0  0  0  0  0  0  0  0  0
  -12.6958   -7.1925   -5.5660 C   0  0  0  0  0  0  0  0  0  0  0  0
  -11.8451   -7.5426   -4.3705 C   0  0  0  0  0  0  0  0  0  0  0  0
  -11.9557   -6.5552   -3.4919 C   0  0  0  0  0  0  0  0  0  0  0  0
  -12.8838   -5.5198   -4.0772 C   0  0  0  0  0  0  0  0  0  0  0  0
  -13.8349   -6.4279   -4.8730 C   0  0  0  0  0  0  0  0  0  0  0  0
  -12.1189   -4.8524   -5.2473 C   0  0  0  0  0  0  0  0  0  0  0  0
   -3.8829   -4.8148   -3.9445 C   0  0  0  0  0  0  0  0  0  0  0  0
   -2.5516   -5.2181   -3.6370 C   0  0  0  0  0  0  0  0  0  0  0  0
   -2.0286   -6.4316   -3.9913 N   0  0  0  0  0  0  0  0  0  0  0  0
   -2.8724   -7.5470   -4.1993 C   0  0  0  0  0  0  0  0  0  0  0  0
   -2.6183   -8.4260   -5.2506 C   0  0  0  0  0  0  0  0  0  0  0  0
   -3.4966   -9.4535   -5.5196 C   0  0  0  0  0  0  0  0  0  0  0  0
   -4.6496   -9.6131   -4.7563 C   0  0  0  0  0  0  0  0  0  0  0  0
   -5.7783  -10.8784   -5.2446 S   0  0  0  0  0  0  0  0  0  0  0  0
   -7.3593  -10.2846   -4.5725 C   0  0  0  0  0  0  0  0  0  0  0  0
   -4.8598   -8.7900   -3.6548 C   0  0  0  0  0  0  0  0  0  0  0  0
   -3.9703   -7.7747   -3.3717 C   0  0  0  0  0  0  0  0  0  0  0  0
   -0.6450   -6.6649   -4.0526 C   0  0  0  0  0  0  0  0  0  0  0  0
    0.2290   -5.7562   -4.6472 C   0  0  0  0  0  0  0  0  0  0  0  0
    1.5613   -6.0787   -4.7975 C   0  0  0  0  0  0  0  0  0  0  0  0
    2.0396   -7.3133   -4.3667 C   0  0  0  0  0  0  0  0  0  0  0  0
    3.7260   -7.7032   -4.6955 S   0  0  0  0  0  0  0  0  0  0  0  0
    3.7619   -9.5188   -4.5975 C   0  0  0  0  0  0  0  0  0  0  0  0
    1.1846   -8.1938   -3.7166 C   0  0  0  0  0  0  0  0  0  0  0  0
   -0.1453   -7.8693   -3.5620 C   0  0  0  0  0  0  0  0  0  0  0  0
   -1.9199   -4.2676   -2.8136 C   0  0  0  0  0  0  0  0  0  0  0  0
   -0.3121   -4.0354   -2.1687 S   0  0  0  0  0  0  0  0  0  0  0  0
   -0.8505   -2.6031   -1.3049 C   0  0  0  0  0  0  0  0  0  0  0  0
   -2.2213   -2.4039   -1.4273 C   0  0  0  0  0  0  0  0  0  0  0  0
   -2.9298   -1.5418   -0.5965 N   0  0  0  0  0  0  0  0  0  0  0  0
   -2.7217   -1.6961    0.7864 C   0  0  0  0  0  0  0  0  0  0  0  0
   -2.7848   -0.5939    1.6305 C   0  0  0  0  0  0  0  0  0  0  0  0
   -2.5117   -0.7210    2.9786 C   0  0  0  0  0  0  0  0  0  0  0  0
   -2.1688   -1.9578    3.5067 C   0  0  0  0  0  0  0  0  0  0  0  0
   -1.7659   -2.2335    5.2051 S   0  0  0  0  0  0  0  0  0  0  0  0
   -1.3848   -0.5682    5.8211 C   0  0  0  0  0  0  0  0  0  0  0  0
   -2.1454   -3.0732    2.6721 C   0  0  0  0  0  0  0  0  0  0  0  0
   -2.4182   -2.9453    1.3284 C   0  0  0  0  0  0  0  0  0  0  0  0
   -4.0416   -0.8715   -1.1053 C   0  0  0  0  0  0  0  0  0  0  0  0
   -5.1899   -0.6712   -0.3408 C   0  0  0  0  0  0  0  0  0  0  0  0
   -6.3128   -0.1138   -0.9133 C   0  0  0  0  0  0  0  0  0  0  0  0
   -6.3087    0.2425   -2.2544 C   0  0  0  0  0  0  0  0  0  0  0  0
   -7.8083    0.8306   -3.0020 S   0  0  0  0  0  0  0  0  0  0  0  0
   -7.8763   -0.2884   -4.4377 C   0  0  0  0  0  0  0  0  0  0  0  0
   -5.1470    0.1147   -3.0018 C   0  0  0  0  0  0  0  0  0  0  0  0
   -4.0189   -0.4328   -2.4293 C   0  0  0  0  0  0  0  0  0  0  0  0
   -2.7983   -3.2897   -2.3536 C   0  0  0  0  0  0  0  0  0  0  0  0
   -4.3902   -3.4168   -2.9962 S   0  0  0  0  0  0  0  0  0  0  0  0
    0.0107   -1.6884   -0.6392 C   0  0  0  0  0  0  0  0  0  0  0  0
    1.2375   -1.8686   -0.0294 C   0  0  0  0  0  0  0  0  0  0  0  0
    1.9251   -3.0867    0.0836 N   0  0  0  0  0  0  0  0  0  0  0  0
    2.6604   -3.5282   -1.0186 C   0  0  0  0  0  0  0  0  0  0  0  0
    3.1398   -4.8369   -1.0865 C   0  0  0  0  0  0  0  0  0  0  0  0
    3.9535   -5.2373   -2.1272 C   0  0  0  0  0  0  0  0  0  0  0  0
    4.2856   -4.3449   -3.1385 C   0  0  0  0  0  0  0  0  0  0  0  0
    5.3721   -4.7424   -4.4784 S   0  0  0  0  0  0  0  0  0  0  0  0
    6.5333   -5.9108   -3.7148 C   0  0  0  0  0  0  0  0  0  0  0  0
    3.7372   -3.0678   -3.1242 C   0  0  0  0  0  0  0  0  0  0  0  0
    2.9399   -2.6616   -2.0777 C   0  0  0  0  0  0  0  0  0  0  0  0
    2.2616   -3.4294    1.4053 C   0  0  0  0  0  0  0  0  0  0  0  0
    1.3176   -3.2043    2.4097 C   0  0  0  0  0  0  0  0  0  0  0  0
    1.6169   -3.4715    3.7260 C   0  0  0  0  0  0  0  0  0  0  0  0
    2.8683   -3.9741    4.0763 C   0  0  0  0  0  0  0  0  0  0  0  0
    3.1549   -4.2583    5.7956 S   0  0  0  0  0  0  0  0  0  0  0  0
    4.8070   -5.0098    5.8422 C   0  0  0  0  0  0  0  0  0  0  0  0
    3.8082   -4.2055    3.0830 C   0  0  0  0  0  0  0  0  0  0  0  0
    3.5070   -3.9298    1.7637 C   0  0  0  0  0  0  0  0  0  0  0  0
    1.7281   -0.6599    0.5148 C   0  0  0  0  0  0  0  0  0  0  0  0
    3.1816   -0.2313    1.3464 S   0  0  0  0  0  0  0  0  0  0  0  0
    2.6875    1.4595    1.3796 C   0  0  0  0  0  0  0  0  0  0  0  0
    1.4782    1.6605    0.7162 C   0  0  0  0  0  0  0  0  0  0  0  0
    0.9205    2.9000    0.4456 N   0  0  0  0  0  0  0  0  0  0  0  0
   -0.4784    3.0290    0.4974 C   0  0  0  0  0  0  0  0  0  0  0  0
   -1.1786    3.5667   -0.5771 C   0  0  0  0  0  0  0  0  0  0  0  0
   -2.5587    3.6152   -0.5626 C   0  0  0  0  0  0  0  0  0  0  0  0
   -3.2579    3.1395    0.5389 C   0  0  0  0  0  0  0  0  0  0  0  0
   -5.0166    3.0637    0.6432 S   0  0  0  0  0  0  0  0  0  0  0  0
   -5.5673    3.4493   -1.0393 C   0  0  0  0  0  0  0  0  0  0  0  0
   -2.5521    2.6647    1.6439 C   0  0  0  0  0  0  0  0  0  0  0  0
   -1.1774    2.5960    1.6216 C   0  0  0  0  0  0  0  0  0  0  0  0
    1.7151    3.9692    0.0276 C   0  0  0  0  0  0  0  0  0  0  0  0
    2.8497    3.7581   -0.7514 C   0  0  0  0  0  0  0  0  0  0  0  0
    3.6672    4.8129   -1.1051 C   0  0  0  0  0  0  0  0  0  0  0  0
    3.3727    6.0986   -0.6685 C   0  0  0  0  0  0  0  0  0  0  0  0
    4.4258    7.4891   -0.9608 S   0  0  0  0  0  0  0  0  0  0  0  0
    5.3753    6.9918   -2.4290 C   0  0  0  0  0  0  0  0  0  0  0  0
    2.2224    6.3187    0.0857 C   0  0  0  0  0  0  0  0  0  0  0  0
    1.3951    5.2701    0.4208 C   0  0  0  0  0  0  0  0  0  0  0  0
    0.9292    0.4429    0.2647 C   0  0  0  0  0  0  0  0  0  0  0  0
   -0.5003    0.0048   -0.5969 S   0  0  0  0  0  0  0  0  0  0  0  0
    3.3465    2.4811    2.1288 C   0  0  0  0  0  0  0  0  0  0  0  0
    4.6792    2.8237    2.3188 C   0  0  0  0  0  0  0  0  0  0  0  0
    5.7787    2.2711    1.6791 N   0  0  0  0  0  0  0  0  0  0  0  0
    6.0031    0.8903    1.6320 C   0  0  0  0  0  0  0  0  0  0  0  0
    6.5075    0.3158    0.4679 C   0  0  0  0  0  0  0  0  0  0  0  0
    6.7771   -1.0351    0.4104 C   0  0  0  0  0  0  0  0  0  0  0  0
    6.5460   -1.8351    1.5220 C   0  0  0  0  0  0  0  0  0  0  0  0
    6.9223   -3.5611    1.5560 S   0  0  0  0  0  0  0  0  0  0  0  0
    7.0132   -4.0123   -0.2022 C   0  0  0  0  0  0  0  0  0  0  0  0
    6.0387   -1.2681    2.6870 C   0  0  0  0  0  0  0  0  0  0  0  0
    5.7687    0.0830    2.7448 C   0  0  0  0  0  0  0  0  0  0  0  0
    6.7835    3.1502    1.2367 C   0  0  0  0  0  0  0  0  0  0  0  0
    6.4392    4.4051    0.7386 C   0  0  0  0  0  0  0  0  0  0  0  0
    7.4072    5.3331    0.4138 C   0  0  0  0  0  0  0  0  0  0  0  0
    8.7501    5.0118    0.5541 C   0  0  0  0  0  0  0  0  0  0  0  0
   10.0563    6.1443    0.2064 S   0  0  0  0  0  0  0  0  0  0  0  0
    9.2384    7.7654    0.2735 C   0  0  0  0  0  0  0  0  0  0  0  0
    9.1015    3.7339    0.9852 C   0  0  0  0  0  0  0  0  0  0  0  0
    8.1341    2.8166    1.3330 C   0  0  0  0  0  0  0  0  0  0  0  0
    4.7903    3.9898    3.1219 C   0  0  0  0  0  0  0  0  0  0  0  0
    6.1314    4.9423    3.6407 S   0  0  0  0  0  0  0  0  0  0  0  0
    5.0436    6.1921    4.2631 C   0  0  0  0  0  0  0  0  0  0  0  0
    3.6878    5.8698    4.0249 C   0  0  0  0  0  0  0  0  0  0  0  0
    2.6322    6.7332    4.0922 N   0  0  0  0  0  0  0  0  0  0  0  0
    2.8078    8.1090    3.8816 C   0  0  0  0  0  0  0  0  0  0  0  0
    2.1024    9.0277    4.6552 C   0  0  0  0  0  0  0  0  0  0  0  0
    2.3274   10.3845    4.5171 C   0  0  0  0  0  0  0  0  0  0  0  0
    3.2599   10.8440    3.5960 C   0  0  0  0  0  0  0  0  0  0  0  0
    3.7008   12.5343    3.3944 S   0  0  0  0  0  0  0  0  0  0  0  0
    2.9743   13.3451    4.8465 C   0  0  0  0  0  0  0  0  0  0  0  0
    3.9052    9.9279    2.7606 C   0  0  0  0  0  0  0  0  0  0  0  0
    3.6853    8.5789    2.9014 C   0  0  0  0  0  0  0  0  0  0  0  0
    1.3255    6.2335    4.2130 C   0  0  0  0  0  0  0  0  0  0  0  0
    1.0382    5.2193    5.1211 C   0  0  0  0  0  0  0  0  0  0  0  0
   -0.2416    4.7083    5.2169 C   0  0  0  0  0  0  0  0  0  0  0  0
   -1.2517    5.2033    4.4014 C   0  0  0  0  0  0  0  0  0  0  0  0
   -2.9181    4.6345    4.4270 S   0  0  0  0  0  0  0  0  0  0  0  0
   -2.8346    3.1202    5.4271 C   0  0  0  0  0  0  0  0  0  0  0  0
   -0.9701    6.2397    3.5119 C   0  0  0  0  0  0  0  0  0  0  0  0
    0.3026    6.7548    3.4205 C   0  0  0  0  0  0  0  0  0  0  0  0
    3.5829    4.5739    3.4723 C   0  0  0  0  0  0  0  0  0  0  0  0
    2.2569    3.5924    2.9720 S   0  0  0  0  0  0  0  0  0  0  0  0
    5.6507    7.3218    4.7997 C   0  0  0  0  0  0  0  0  0  0  0  0
    5.0608    8.2743    5.6098 C   0  0  0  0  0  0  0  0  0  0  0  0
    3.9210    8.0171    6.4930 C   0  0  0  0  0  0  0  0  0  0  0  0
    3.2963    6.9800    6.6263 O   0  0  0  0  0  0  0  0  0  0  0  0
    3.7608    9.2567    7.2945 C   0  0  0  0  0  0  0  0  0  0  0  0
    2.8422    9.5287    8.2851 C   0  0  0  0  0  0  0  0  0  0  0  0
    2.9163   10.7795    8.8827 C   0  0  0  0  0  0  0  0  0  0  0  0
    2.0294   11.0937    9.8454 F   0  0  0  0  0  0  0  0  0  0  0  0
    3.8675   11.7200    8.5245 C   0  0  0  0  0  0  0  0  0  0  0  0
    4.7898   11.4307    7.5268 C   0  0  0  0  0  0  0  0  0  0  0  0
    4.7329   10.1942    6.9047 C   0  0  0  0  0  0  0  0  0  0  0  0
    5.5302    9.6121    5.8250 C   0  0  0  0  0  0  0  0  0  0  0  0
    6.4401   10.2805    5.0401 C   0  0  0  0  0  0  0  0  0  0  0  0
    7.0641    9.7167    3.9107 C   0  0  0  0  0  0  0  0  0  0  0  0
    7.5838    9.3249    2.9632 N   0  0  0  0  0  0  0  0  0  0  0  0
    6.7978   11.6277    5.2335 C   0  0  0  0  0  0  0  0  0  0  0  0
    7.1133   12.7247    5.3621 N   0  0  0  0  0  0  0  0  0  0  0  0
   -4.1477   -6.1476   -5.5253 H   0  0  0  0  0  0  0  0  0  0  0  0
   -9.5678   -3.4388   -3.8863 H   0  0  0  0  0  0  0  0  0  0  0  0
   -9.2209   -7.2184   -7.2406 H   0  0  0  0  0  0  0  0  0  0  0  0
  -12.3692   -5.8500   -7.2860 H   0  0  0  0  0  0  0  0  0  0  0  0
  -12.9697   -8.0174   -6.2182 H   0  0  0  0  0  0  0  0  0  0  0  0
  -11.2242   -8.4177   -4.3132 H   0  0  0  0  0  0  0  0  0  0  0  0
  -11.4453   -6.4395   -2.5535 H   0  0  0  0  0  0  0  0  0  0  0  0
  -13.3296   -4.8223   -3.3730 H   0  0  0  0  0  0  0  0  0  0  0  0
  -14.4761   -5.8839   -5.5652 H   0  0  0  0  0  0  0  0  0  0  0  0
  -14.4424   -7.0659   -4.2329 H   0  0  0  0  0  0  0  0  0  0  0  0
  -12.5901   -3.9284   -5.5768 H   0  0  0  0  0  0  0  0  0  0  0  0
   -1.7562   -8.2739   -5.8806 H   0  0  0  0  0  0  0  0  0  0  0  0
   -3.3203  -10.1143   -6.3531 H   0  0  0  0  0  0  0  0  0  0  0  0
   -7.4731   -9.2273   -4.7938 H   0  0  0  0  0  0  0  0  0  0  0  0
   -8.1275  -10.8540   -5.0860 H   0  0  0  0  0  0  0  0  0  0  0  0
   -7.4163  -10.4705   -3.5037 H   0  0  0  0  0  0  0  0  0  0  0  0
   -5.7118   -8.9366   -3.0103 H   0  0  0  0  0  0  0  0  0  0  0  0
   -4.1423   -7.1360   -2.5181 H   0  0  0  0  0  0  0  0  0  0  0  0
   -0.1465   -4.8202   -5.0310 H   0  0  0  0  0  0  0  0  0  0  0  0
    2.2385   -5.3904   -5.2788 H   0  0  0  0  0  0  0  0  0  0  0  0
    3.7193   -9.8496   -3.5635 H   0  0  0  0  0  0  0  0  0  0  0  0
    4.7083   -9.8178   -5.0377 H   0  0  0  0  0  0  0  0  0  0  0  0
    2.9392   -9.9284   -5.1752 H   0  0  0  0  0  0  0  0  0  0  0  0
    1.5412   -9.1355   -3.3319 H   0  0  0  0  0  0  0  0  0  0  0  0
   -0.8109   -8.5618   -3.0686 H   0  0  0  0  0  0  0  0  0  0  0  0
   -3.0397    0.3686    1.2180 H   0  0  0  0  0  0  0  0  0  0  0  0
   -2.5666    0.1537    3.6063 H   0  0  0  0  0  0  0  0  0  0  0  0
   -0.9224   -0.7138    6.7924 H   0  0  0  0  0  0  0  0  0  0  0  0
   -0.6839   -0.0855    5.1462 H   0  0  0  0  0  0  0  0  0  0  0  0
   -2.2968    0.0121    5.9325 H   0  0  0  0  0  0  0  0  0  0  0  0
   -1.9061   -4.0388    3.0908 H   0  0  0  0  0  0  0  0  0  0  0  0
   -2.3914   -3.8185    0.6939 H   0  0  0  0  0  0  0  0  0  0  0  0
   -5.2150   -0.9914    0.6893 H   0  0  0  0  0  0  0  0  0  0  0  0
   -7.2120    0.0179   -0.3320 H   0  0  0  0  0  0  0  0  0  0  0  0
   -8.9153   -0.3318   -4.7489 H   0  0  0  0  0  0  0  0  0  0  0  0
   -7.5272   -1.2698   -4.1290 H   0  0  0  0  0  0  0  0  0  0  0  0
   -7.2664    0.1011   -5.2479 H   0  0  0  0  0  0  0  0  0  0  0  0
   -5.1258    0.4309   -4.0336 H   0  0  0  0  0  0  0  0  0  0  0  0
   -3.1130   -0.5374   -3.0081 H   0  0  0  0  0  0  0  0  0  0  0  0
    2.8768   -5.5401   -0.3111 H   0  0  0  0  0  0  0  0  0  0  0  0
    4.3266   -6.2487   -2.1483 H   0  0  0  0  0  0  0  0  0  0  0  0
    6.0730   -6.8891   -3.6188 H   0  0  0  0  0  0  0  0  0  0  0  0
    6.8472   -5.5237   -2.7506 H   0  0  0  0  0  0  0  0  0  0  0  0
    7.3809   -5.9691   -4.3900 H   0  0  0  0  0  0  0  0  0  0  0  0
    3.9689   -2.3869   -3.9288 H   0  0  0  0  0  0  0  0  0  0  0  0
    2.5557   -1.6528   -2.0647 H   0  0  0  0  0  0  0  0  0  0  0  0
    0.3444   -2.8154    2.1494 H   0  0  0  0  0  0  0  0  0  0  0  0
    0.8825   -3.2963    4.4972 H   0  0  0  0  0  0  0  0  0  0  0  0
    4.8144   -5.9222    5.2535 H   0  0  0  0  0  0  0  0  0  0  0  0
    4.9925   -5.2420    6.8863 H   0  0  0  0  0  0  0  0  0  0  0  0
    5.5520   -4.3052    5.4839 H   0  0  0  0  0  0  0  0  0  0  0  0
    4.7918   -4.5811    3.3131 H   0  0  0  0  0  0  0  0  0  0  0  0
    4.2625   -4.0884    1.0123 H   0  0  0  0  0  0  0  0  0  0  0  0
   -0.6344    3.9293   -1.4367 H   0  0  0  0  0  0  0  0  0  0  0  0
   -3.0768    4.0159   -1.4186 H   0  0  0  0  0  0  0  0  0  0  0  0
   -5.0667    2.7920   -1.7439 H   0  0  0  0  0  0  0  0  0  0  0  0
   -6.6347    3.2513   -1.0553 H   0  0  0  0  0  0  0  0  0  0  0  0
   -5.3818    4.4957   -1.2645 H   0  0  0  0  0  0  0  0  0  0  0  0
   -3.1099    2.3503    2.5116 H   0  0  0  0  0  0  0  0  0  0  0  0
   -0.6264    2.2060    2.4654 H   0  0  0  0  0  0  0  0  0  0  0  0
    3.0977    2.7589   -1.0778 H   0  0  0  0  0  0  0  0  0  0  0  0
    4.5361    4.6188   -1.7137 H   0  0  0  0  0  0  0  0  0  0  0  0
    6.1018    6.2244   -2.1758 H   0  0  0  0  0  0  0  0  0  0  0  0
    4.6924    6.6463   -3.1990 H   0  0  0  0  0  0  0  0  0  0  0  0
    5.8881    7.8884   -2.7636 H   0  0  0  0  0  0  0  0  0  0  0  0
    1.9946    7.3220    0.4128 H   0  0  0  0  0  0  0  0  0  0  0  0
    0.5076    5.4400    1.0115 H   0  0  0  0  0  0  0  0  0  0  0  0
    6.6945    0.9404   -0.3929 H   0  0  0  0  0  0  0  0  0  0  0  0
    7.1711   -1.4514   -0.5027 H   0  0  0  0  0  0  0  0  0  0  0  0
    7.9338   -3.6389   -0.6422 H   0  0  0  0  0  0  0  0  0  0  0  0
    6.1415   -3.6287   -0.7262 H   0  0  0  0  0  0  0  0  0  0  0  0
    7.0123   -5.0984   -0.2210 H   0  0  0  0  0  0  0  0  0  0  0  0
    5.8623   -1.8941    3.5474 H   0  0  0  0  0  0  0  0  0  0  0  0
    5.3803    0.5225    3.6514 H   0  0  0  0  0  0  0  0  0  0  0  0
    5.3969    4.6667    0.6326 H   0  0  0  0  0  0  0  0  0  0  0  0
    7.1026    6.3098    0.0746 H   0  0  0  0  0  0  0  0  0  0  0  0
   10.0421    8.4951    0.2698 H   0  0  0  0  0  0  0  0  0  0  0  0
    8.6123    7.9110   -0.6022 H   0  0  0  0  0  0  0  0  0  0  0  0
    8.6644    7.8568    1.1905 H   0  0  0  0  0  0  0  0  0  0  0  0
   10.1464    3.4807    1.0768 H   0  0  0  0  0  0  0  0  0  0  0  0
    8.4220    1.8462    1.7086 H   0  0  0  0  0  0  0  0  0  0  0  0
    1.3837    8.6716    5.3779 H   0  0  0  0  0  0  0  0  0  0  0  0
    1.7793   11.0700    5.1429 H   0  0  0  0  0  0  0  0  0  0  0  0
    3.3779   14.3527    4.8460 H   0  0  0  0  0  0  0  0  0  0  0  0
    1.8923   13.3812    4.7588 H   0  0  0  0  0  0  0  0  0  0  0  0
    3.2833   12.8238    5.7481 H   0  0  0  0  0  0  0  0  0  0  0  0
    4.5895   10.2904    2.0095 H   0  0  0  0  0  0  0  0  0  0  0  0
    4.1967    7.8841    2.2527 H   0  0  0  0  0  0  0  0  0  0  0  0
    1.8195    4.8616    5.7732 H   0  0  0  0  0  0  0  0  0  0  0  0
   -0.4391    3.9345    5.9407 H   0  0  0  0  0  0  0  0  0  0  0  0
   -2.0555    2.4729    5.0357 H   0  0  0  0  0  0  0  0  0  0  0  0
   -3.8072    2.6481    5.3242 H   0  0  0  0  0  0  0  0  0  0  0  0
   -2.6547    3.3639    6.4702 H   0  0  0  0  0  0  0  0  0  0  0  0
   -1.7638    6.6264    2.8909 H   0  0  0  0  0  0  0  0  0  0  0  0
    0.5176    7.5547    2.7276 H   0  0  0  0  0  0  0  0  0  0  0  0
    6.7039    7.4327    4.5714 H   0  0  0  0  0  0  0  0  0  0  0  0
    2.0986    8.8068    8.5826 H   0  0  0  0  0  0  0  0  0  0  0  0
    3.8840   12.6725    9.0307 H   0  0  0  0  0  0  0  0  0  0  0  0
    5.5360   12.1622    7.2613 H   0  0  0  0  0  0  0  0  0  0  0  0
  1  2  2  0  0  0  0
  2  3  1  0  0  0  0
  3  4  2  0  0  0  0
  3  5  1  0  0  0  0
  5  6  2  0  0  0  0
  6  7  1  0  0  0  0
  7  8  2  0  0  0  0
  8  9  1  0  0  0  0
  9 10  2  0  0  0  0
 10 11  1  0  0  0  0
 11 12  2  0  0  0  0
 12 13  1  0  0  0  0
 13 14  3  0  0  0  0
 12 15  1  0  0  0  0
 15 16  3  0  0  0  0
  8 17  1  0  0  0  0
 17 18  1  0  0  0  0
 18 19  1  0  0  0  0
 19 20  2  0  0  0  0
 20 21  1  0  0  0  0
 21 22  1  0  0  0  0
 21 23  1  0  0  0  0
  1 24  1  0  0  0  0
 24 25  2  0  0  0  0
 25 26  1  0  0  0  0
 26 27  1  0  0  0  0
 27 28  2  0  0  0  0
 28 29  1  0  0  0  0
 29 30  2  0  0  0  0
 30 31  1  0  0  0  0
 31 32  1  0  0  0  0
 30 33  1  0  0  0  0
 33 34  2  0  0  0  0
 26 35  1  0  0  0  0
 35 36  2  0  0  0  0
 36 37  1  0  0  0  0
 37 38  2  0  0  0  0
 38 39  1  0  0  0  0
 39 40  1  0  0  0  0
 38 41  1  0  0  0  0
 41 42  2  0  0  0  0
 25 43  1  0  0  0  0
 43 44  1  0  0  0  0
 44 45  1  0  0  0  0
 45 46  2  0  0  0  0
 46 47  1  0  0  0  0
 47 48  1  0  0  0  0
 48 49  2  0  0  0  0
 49 50  1  0  0  0  0
 50 51  2  0  0  0  0
 51 52  1  0  0  0  0
 52 53  1  0  0  0  0
 51 54  1  0  0  0  0
 54 55  2  0  0  0  0
 47 56  1  0  0  0  0
 56 57  2  0  0  0  0
 57 58  1  0  0  0  0
 58 59  2  0  0  0  0
 59 60  1  0  0  0  0
 60 61  1  0  0  0  0
 59 62  1  0  0  0  0
 62 63  2  0  0  0  0
 46 64  1  0  0  0  0
 64 65  1  0  0  0  0
 45 66  1  0  0  0  0
 66 67  2  0  0  0  0
 67 68  1  0  0  0  0
 68 69  1  0  0  0  0
 69 70  2  0  0  0  0
 70 71  1  0  0  0  0
 71 72  2  0  0  0  0
 72 73  1  0  0  0  0
 73 74  1  0  0  0  0
 72 75  1  0  0  0  0
 75 76  2  0  0  0  0
 68 77  1  0  0  0  0
 77 78  2  0  0  0  0
 78 79  1  0  0  0  0
 79 80  2  0  0  0  0
 80 81  1  0  0  0  0
 81 82  1  0  0  0  0
 80 83  1  0  0  0  0
 83 84  2  0  0  0  0
 67 85  1  0  0  0  0
 85 86  1  0  0  0  0
 86 87  1  0  0  0  0
 87 88  2  0  0  0  0
 88 89  1  0  0  0  0
 89 90  1  0  0  0  0
 90 91  2  0  0  0  0
 91 92  1  0  0  0  0
 92 93  2  0  0  0  0
 93 94  1  0  0  0  0
 94 95  1  0  0  0  0
 93 96  1  0  0  0  0
 96 97  2  0  0  0  0
 89 98  1  0  0  0  0
 98 99  2  0  0  0  0
 99100  1  0  0  0  0
100101  2  0  0  0  0
101102  1  0  0  0  0
102103  1  0  0  0  0
101104  1  0  0  0  0
104105  2  0  0  0  0
 88106  1  0  0  0  0
106107  1  0  0  0  0
 87108  1  0  0  0  0
108109  2  0  0  0  0
109110  1  0  0  0  0
110111  1  0  0  0  0
111112  2  0  0  0  0
112113  1  0  0  0  0
113114  2  0  0  0  0
114115  1  0  0  0  0
115116  1  0  0  0  0
114117  1  0  0  0  0
117118  2  0  0  0  0
110119  1  0  0  0  0
119120  2  0  0  0  0
120121  1  0  0  0  0
121122  2  0  0  0  0
122123  1  0  0  0  0
123124  1  0  0  0  0
122125  1  0  0  0  0
125126  2  0  0  0  0
109127  1  0  0  0  0
127128  1  0  0  0  0
128129  1  0  0  0  0
129130  2  0  0  0  0
130131  1  0  0  0  0
131132  1  0  0  0  0
132133  2  0  0  0  0
133134  1  0  0  0  0
134135  2  0  0  0  0
135136  1  0  0  0  0
136137  1  0  0  0  0
135138  1  0  0  0  0
138139  2  0  0  0  0
131140  1  0  0  0  0
140141  2  0  0  0  0
141142  1  0  0  0  0
142143  2  0  0  0  0
143144  1  0  0  0  0
144145  1  0  0  0  0
143146  1  0  0  0  0
146147  2  0  0  0  0
130148  1  0  0  0  0
148149  1  0  0  0  0
129150  1  0  0  0  0
150151  2  0  0  0  0
151152  1  0  0  0  0
152153  2  0  0  0  0
152154  1  0  0  0  0
154155  2  0  0  0  0
155156  1  0  0  0  0
156157  1  0  0  0  0
156158  2  0  0  0  0
158159  1  0  0  0  0
159160  2  0  0  0  0
160161  1  0  0  0  0
161162  2  0  0  0  0
162163  1  0  0  0  0
163164  3  0  0  0  0
162165  1  0  0  0  0
165166  3  0  0  0  0
 11  2  1  0  0  0  0
 23 17  1  0  0  0  0
 65 24  1  0  0  0  0
107 66  1  0  0  0  0
149108  1  0  0  0  0
161151  1  0  0  0  0
 10  5  1  0  0  0  0
 22 18  1  0  0  0  0
 34 27  1  0  0  0  0
 42 35  1  0  0  0  0
 64 43  2  0  0  0  0
 76 69  1  0  0  0  0
 84 77  1  0  0  0  0
106 85  2  0  0  0  0
118111  1  0  0  0  0
126119  1  0  0  0  0
148127  2  0  0  0  0
160154  1  0  0  0  0
 23  7  1  0  0  0  0
 55 48  1  0  0  0  0
 63 56  1  0  0  0  0
 97 90  1  0  0  0  0
105 98  1  0  0  0  0
139132  1  0  0  0  0
147140  1  0  0  0  0
  1167  1  0  0  0  0
  6168  1  0  0  0  0
  9169  1  0  0  0  0
 17170  1  0  0  0  0
 18171  1  0  0  0  0
 19172  1  0  0  0  0
 20173  1  0  0  0  0
 21174  1  0  0  0  0
 22175  1  0  0  0  0
 22176  1  0  0  0  0
 23177  1  0  0  0  0
 28178  1  0  0  0  0
 29179  1  0  0  0  0
 32180  1  0  0  0  0
 32181  1  0  0  0  0
 32182  1  0  0  0  0
 33183  1  0  0  0  0
 34184  1  0  0  0  0
 36185  1  0  0  0  0
 37186  1  0  0  0  0
 40187  1  0  0  0  0
 40188  1  0  0  0  0
 40189  1  0  0  0  0
 41190  1  0  0  0  0
 42191  1  0  0  0  0
 49192  1  0  0  0  0
 50193  1  0  0  0  0
 53194  1  0  0  0  0
 53195  1  0  0  0  0
 53196  1  0  0  0  0
 54197  1  0  0  0  0
 55198  1  0  0  0  0
 57199  1  0  0  0  0
 58200  1  0  0  0  0
 61201  1  0  0  0  0
 61202  1  0  0  0  0
 61203  1  0  0  0  0
 62204  1  0  0  0  0
 63205  1  0  0  0  0
 70206  1  0  0  0  0
 71207  1  0  0  0  0
 74208  1  0  0  0  0
 74209  1  0  0  0  0
 74210  1  0  0  0  0
 75211  1  0  0  0  0
 76212  1  0  0  0  0
 78213  1  0  0  0  0
 79214  1  0  0  0  0
 82215  1  0  0  0  0
 82216  1  0  0  0  0
 82217  1  0  0  0  0
 83218  1  0  0  0  0
 84219  1  0  0  0  0
 91220  1  0  0  0  0
 92221  1  0  0  0  0
 95222  1  0  0  0  0
 95223  1  0  0  0  0
 95224  1  0  0  0  0
 96225  1  0  0  0  0
 97226  1  0  0  0  0
 99227  1  0  0  0  0
100228  1  0  0  0  0
103229  1  0  0  0  0
103230  1  0  0  0  0
103231  1  0  0  0  0
104232  1  0  0  0  0
105233  1  0  0  0  0
112234  1  0  0  0  0
113235  1  0  0  0  0
116236  1  0  0  0  0
116237  1  0  0  0  0
116238  1  0  0  0  0
117239  1  0  0  0  0
118240  1  0  0  0  0
120241  1  0  0  0  0
121242  1  0  0  0  0
124243  1  0  0  0  0
124244  1  0  0  0  0
124245  1  0  0  0  0
125246  1  0  0  0  0
126247  1  0  0  0  0
133248  1  0  0  0  0
134249  1  0  0  0  0
137250  1  0  0  0  0
137251  1  0  0  0  0
137252  1  0  0  0  0
138253  1  0  0  0  0
139254  1  0  0  0  0
141255  1  0  0  0  0
142256  1  0  0  0  0
145257  1  0  0  0  0
145258  1  0  0  0  0
145259  1  0  0  0  0
146260  1  0  0  0  0
147261  1  0  0  0  0
150262  1  0  0  0  0
155263  1  0  0  0  0
158264  1  0  0  0  0
159265  1  0  0  0  0
M  END
