
  xtb     02072214323D
 energy: -287.867532110237 gnorm: 0.000497691954 xtb: 6.4.1 (unknown)
158175  0     0  0            999 V2000
   -5.8657    2.9926    1.4528 C   0  0  0  0  0  0  0  0  0  0  0  0
   -7.0213    2.4989    0.9464 C   0  0  0  0  0  0  0  0  0  0  0  0
   -7.1847    1.1415    0.3548 C   0  0  0  0  0  0  0  0  0  0  0  0
   -6.3681    0.2479    0.3191 O   0  0  0  0  0  0  0  0  0  0  0  0
   -8.5998    1.0522   -0.0476 C   0  0  0  0  0  0  0  0  0  0  0  0
   -9.2190   -0.0231   -0.6821 C   0  0  0  0  0  0  0  0  0  0  0  0
  -10.5610    0.1589   -0.9131 C   0  0  0  0  0  0  0  0  0  0  0  0
  -11.2418    1.3260   -0.5382 C   0  0  0  0  0  0  0  0  0  0  0  0
  -10.6460    2.3920    0.0908 C   0  0  0  0  0  0  0  0  0  0  0  0
   -9.2782    2.2267    0.3385 C   0  0  0  0  0  0  0  0  0  0  0  0
   -8.3325    3.1259    0.9901 C   0  0  0  0  0  0  0  0  0  0  0  0
   -8.6321    4.3515    1.5247 C   0  0  0  0  0  0  0  0  0  0  0  0
   -9.9192    4.9306    1.5357 C   0  0  0  0  0  0  0  0  0  0  0  0
  -10.9345    5.4639    1.5883 N   0  0  0  0  0  0  0  0  0  0  0  0
   -7.7175    5.2141    2.1628 C   0  0  0  0  0  0  0  0  0  0  0  0
   -7.0497    5.9759    2.7051 N   0  0  0  0  0  0  0  0  0  0  0  0
  -12.5620    0.8210   -1.0642 C   0  0  0  0  0  0  0  0  0  0  0  0
  -13.5694    0.3065   -0.0140 C   0  0  0  0  0  0  0  0  0  0  0  0
  -14.5266   -0.5440   -0.8175 C   0  0  0  0  0  0  0  0  0  0  0  0
  -13.8831   -1.6483   -1.1741 C   0  0  0  0  0  0  0  0  0  0  0  0
  -12.4804   -1.5633   -0.6169 C   0  0  0  0  0  0  0  0  0  0  0  0
  -12.7588   -0.7949    0.6815 C   0  0  0  0  0  0  0  0  0  0  0  0
  -11.8034   -0.4792   -1.4829 C   0  0  0  0  0  0  0  0  0  0  0  0
   -4.5547    2.4462    1.2414 C   0  0  0  0  0  0  0  0  0  0  0  0
   -3.6028    2.4833    2.2481 C   0  0  0  0  0  0  0  0  0  0  0  0
   -2.3163    1.9965    2.0577 C   0  0  0  0  0  0  0  0  0  0  0  0
   -1.4866    2.0127    3.1233 F   0  0  0  0  0  0  0  0  0  0  0  0
   -1.8444    1.4840    0.8553 C   0  0  0  0  0  0  0  0  0  0  0  0
   -2.8029    1.4120   -0.1846 C   0  0  0  0  0  0  0  0  0  0  0  0
   -4.1396    1.9136   -0.0060 C   0  0  0  0  0  0  0  0  0  0  0  0
   -4.8369    1.8745   -1.1369 N   0  0  0  0  0  0  0  0  0  0  0  0
   -3.9278    1.2265   -2.2876 S   0  0  0  0  0  0  0  0  0  0  0  0
   -2.5836    0.9975   -1.4308 N   0  0  0  0  0  0  0  0  0  0  0  0
   -0.4666    1.1397    0.6454 C   0  0  0  0  0  0  0  0  0  0  0  0
    0.6426    1.8576    1.0797 C   0  0  0  0  0  0  0  0  0  0  0  0
    0.6021    3.1116    1.6518 N   0  0  0  0  0  0  0  0  0  0  0  0
   -0.4195    4.0077    1.3001 C   0  0  0  0  0  0  0  0  0  0  0  0
   -0.8822    4.0698   -0.0165 C   0  0  0  0  0  0  0  0  0  0  0  0
   -1.9683    4.8502   -0.3338 C   0  0  0  0  0  0  0  0  0  0  0  0
   -2.6133    5.6032    0.6484 C   0  0  0  0  0  0  0  0  0  0  0  0
   -4.0464    6.4903    0.1341 S   0  0  0  0  0  0  0  0  0  0  0  0
   -4.4527    7.5398    1.5573 C   0  0  0  0  0  0  0  0  0  0  0  0
   -2.1140    5.5968    1.9438 C   0  0  0  0  0  0  0  0  0  0  0  0
   -1.0254    4.8066    2.2643 C   0  0  0  0  0  0  0  0  0  0  0  0
    1.6268    3.4886    2.5289 C   0  0  0  0  0  0  0  0  0  0  0  0
    2.1600    4.7771    2.4924 C   0  0  0  0  0  0  0  0  0  0  0  0
    3.2330    5.1002    3.2912 C   0  0  0  0  0  0  0  0  0  0  0  0
    3.8022    4.1468    4.1355 C   0  0  0  0  0  0  0  0  0  0  0  0
    5.2174    4.6458    5.0580 S   0  0  0  0  0  0  0  0  0  0  0  0
    5.9033    3.0845    5.6803 C   0  0  0  0  0  0  0  0  0  0  0  0
    3.2374    2.8813    4.2168 C   0  0  0  0  0  0  0  0  0  0  0  0
    2.1538    2.5604    3.4240 C   0  0  0  0  0  0  0  0  0  0  0  0
    1.8367    1.1771    0.7333 C   0  0  0  0  0  0  0  0  0  0  0  0
    3.5079    1.4498    1.0566 S   0  0  0  0  0  0  0  0  0  0  0  0
    3.9423   -0.0139    0.1747 C   0  0  0  0  0  0  0  0  0  0  0  0
    2.8273   -0.6912   -0.3210 C   0  0  0  0  0  0  0  0  0  0  0  0
    2.7913   -1.9110   -0.9645 N   0  0  0  0  0  0  0  0  0  0  0  0
    3.7162   -2.9326   -0.7268 C   0  0  0  0  0  0  0  0  0  0  0  0
    4.0891   -3.7922   -1.7637 C   0  0  0  0  0  0  0  0  0  0  0  0
    5.0839   -4.7224   -1.5710 C   0  0  0  0  0  0  0  0  0  0  0  0
    5.7343   -4.8211   -0.3418 C   0  0  0  0  0  0  0  0  0  0  0  0
    7.0803   -5.9545   -0.2452 S   0  0  0  0  0  0  0  0  0  0  0  0
    7.9118   -5.4964    1.3014 C   0  0  0  0  0  0  0  0  0  0  0  0
    5.3009   -4.0349    0.7182 C   0  0  0  0  0  0  0  0  0  0  0  0
    4.2947   -3.1082    0.5276 C   0  0  0  0  0  0  0  0  0  0  0  0
    1.7405   -2.1213   -1.8777 C   0  0  0  0  0  0  0  0  0  0  0  0
    1.3893   -1.1147   -2.7736 C   0  0  0  0  0  0  0  0  0  0  0  0
    0.3048   -1.2667   -3.6126 C   0  0  0  0  0  0  0  0  0  0  0  0
   -0.4464   -2.4331   -3.5667 C   0  0  0  0  0  0  0  0  0  0  0  0
   -1.8903   -2.6811   -4.5497 S   0  0  0  0  0  0  0  0  0  0  0  0
   -2.4185   -0.9777   -4.9014 C   0  0  0  0  0  0  0  0  0  0  0  0
   -0.0614   -3.4669   -2.7159 C   0  0  0  0  0  0  0  0  0  0  0  0
    1.0205   -3.3146   -1.8774 C   0  0  0  0  0  0  0  0  0  0  0  0
    1.6382    0.0186    0.0001 C   0  0  0  0  0  0  0  0  0  0  0  0
   -0.0445   -0.2748   -0.2905 S   0  0  0  0  0  0  0  0  0  0  0  0
    5.3063   -0.3953    0.2685 C   0  0  0  0  0  0  0  0  0  0  0  0
    6.1229   -0.1285    1.7858 S   0  0  0  0  0  0  0  0  0  0  0  0
    7.5305   -1.0527    1.2855 C   0  0  0  0  0  0  0  0  0  0  0  0
    7.3434   -1.4782   -0.0261 C   0  0  0  0  0  0  0  0  0  0  0  0
    8.3093   -2.4442   -1.0810 S   0  0  0  0  0  0  0  0  0  0  0  0
    7.1176   -2.2785   -2.3718 C   0  0  0  0  0  0  0  0  0  0  0  0
    7.2871   -2.9583   -3.6089 C   0  0  0  0  0  0  0  0  0  0  0  0
    8.3194   -3.8019   -3.9910 C   0  0  0  0  0  0  0  0  0  0  0  0
    8.1508   -4.3712   -5.2597 C   0  0  0  0  0  0  0  0  0  0  0  0
    6.9858   -3.9698   -5.8579 C   0  0  0  0  0  0  0  0  0  0  0  0
    6.4799   -4.3573   -7.1736 C   0  0  0  0  0  0  0  0  0  0  0  0
    7.0513   -5.0913   -7.9418 O   0  0  0  0  0  0  0  0  0  0  0  0
    5.2928   -3.7872   -7.4116 O   0  0  0  0  0  0  0  0  0  0  0  0
    4.6823   -4.0836   -8.6680 C   0  0  0  0  0  0  0  0  0  0  0  0
    3.3296   -3.3991   -8.7108 C   0  0  0  0  0  0  0  0  0  0  0  0
    6.0856   -2.8828   -4.8650 S   0  0  0  0  0  0  0  0  0  0  0  0
    9.6814   -4.1379   -3.0085 Cl  0  0  0  0  0  0  0  0  0  0  0  0
    6.0544   -1.5008   -1.9764 C   0  0  0  0  0  0  0  0  0  0  0  0
    6.1251   -1.0870   -0.6222 C   0  0  0  0  0  0  0  0  0  0  0  0
    4.8179   -0.9845   -3.0357 Cl  0  0  0  0  0  0  0  0  0  0  0  0
    8.6426   -1.3611    2.0748 C   0  0  0  0  0  0  0  0  0  0  0  0
    8.9041   -1.0210    3.3738 C   0  0  0  0  0  0  0  0  0  0  0  0
    8.1034   -0.2101    4.2789 C   0  0  0  0  0  0  0  0  0  0  0  0
    7.0433    0.3503    4.0418 O   0  0  0  0  0  0  0  0  0  0  0  0
    8.8354   -0.1888    5.5674 C   0  0  0  0  0  0  0  0  0  0  0  0
    8.5010    0.4250    6.7594 C   0  0  0  0  0  0  0  0  0  0  0  0
    9.3735    0.2918    7.8327 C   0  0  0  0  0  0  0  0  0  0  0  0
   10.5468   -0.4385    7.7132 C   0  0  0  0  0  0  0  0  0  0  0  0
   10.8831   -1.0615    6.5168 C   0  0  0  0  0  0  0  0  0  0  0  0
   10.0186   -0.9301    5.4480 C   0  0  0  0  0  0  0  0  0  0  0  0
   10.1146   -1.4881    4.0746 C   0  0  0  0  0  0  0  0  0  0  0  0
   10.9927   -2.1924    3.6254 O   0  0  0  0  0  0  0  0  0  0  0  0
   -5.8973    3.8720    2.0826 H   0  0  0  0  0  0  0  0  0  0  0  0
   -8.6563   -0.9021   -0.9549 H   0  0  0  0  0  0  0  0  0  0  0  0
  -11.1841    3.2815    0.3722 H   0  0  0  0  0  0  0  0  0  0  0  0
  -13.0274    1.4264   -1.8395 H   0  0  0  0  0  0  0  0  0  0  0  0
  -14.0075    1.0786    0.6125 H   0  0  0  0  0  0  0  0  0  0  0  0
  -15.5222   -0.2398   -1.0818 H   0  0  0  0  0  0  0  0  0  0  0  0
  -14.2341   -2.4510   -1.7958 H   0  0  0  0  0  0  0  0  0  0  0  0
  -11.9273   -2.4954   -0.5394 H   0  0  0  0  0  0  0  0  0  0  0  0
  -11.8635   -0.4366    1.1861 H   0  0  0  0  0  0  0  0  0  0  0  0
  -13.3635   -1.3718    1.3791 H   0  0  0  0  0  0  0  0  0  0  0  0
  -11.7621   -0.7421   -2.5382 H   0  0  0  0  0  0  0  0  0  0  0  0
   -3.8622    2.8658    3.2235 H   0  0  0  0  0  0  0  0  0  0  0  0
   -0.3939    3.4886   -0.7847 H   0  0  0  0  0  0  0  0  0  0  0  0
   -2.3364    4.8886   -1.3479 H   0  0  0  0  0  0  0  0  0  0  0  0
   -5.2412    8.2013    1.2120 H   0  0  0  0  0  0  0  0  0  0  0  0
   -4.8272    6.9351    2.3772 H   0  0  0  0  0  0  0  0  0  0  0  0
   -3.5810    8.1200    1.8442 H   0  0  0  0  0  0  0  0  0  0  0  0
   -2.5789    6.1829    2.7199 H   0  0  0  0  0  0  0  0  0  0  0  0
   -0.6598    4.7797    3.2798 H   0  0  0  0  0  0  0  0  0  0  0  0
    1.7429    5.5095    1.8174 H   0  0  0  0  0  0  0  0  0  0  0  0
    3.6626    6.0895    3.2535 H   0  0  0  0  0  0  0  0  0  0  0  0
    6.8666    3.3495    6.1070 H   0  0  0  0  0  0  0  0  0  0  0  0
    5.2581    2.6766    6.4540 H   0  0  0  0  0  0  0  0  0  0  0  0
    6.0389    2.3806    4.8632 H   0  0  0  0  0  0  0  0  0  0  0  0
    3.6342    2.1359    4.8858 H   0  0  0  0  0  0  0  0  0  0  0  0
    1.7049    1.5814    3.4992 H   0  0  0  0  0  0  0  0  0  0  0  0
    3.6183   -3.7013   -2.7306 H   0  0  0  0  0  0  0  0  0  0  0  0
    5.3926   -5.3662   -2.3804 H   0  0  0  0  0  0  0  0  0  0  0  0
    8.8475   -6.0466    1.3045 H   0  0  0  0  0  0  0  0  0  0  0  0
    8.1121   -4.4290    1.3075 H   0  0  0  0  0  0  0  0  0  0  0  0
    7.3107   -5.7918    2.1565 H   0  0  0  0  0  0  0  0  0  0  0  0
    5.7414   -4.1303    1.6976 H   0  0  0  0  0  0  0  0  0  0  0  0
    3.9646   -2.5064    1.3609 H   0  0  0  0  0  0  0  0  0  0  0  0
    1.9671   -0.2030   -2.8046 H   0  0  0  0  0  0  0  0  0  0  0  0
    0.0546   -0.4703   -4.2941 H   0  0  0  0  0  0  0  0  0  0  0  0
   -2.3495   -0.3898   -3.9907 H   0  0  0  0  0  0  0  0  0  0  0  0
   -3.4520   -1.0467   -5.2259 H   0  0  0  0  0  0  0  0  0  0  0  0
   -1.8144   -0.5493   -5.6961 H   0  0  0  0  0  0  0  0  0  0  0  0
   -0.6375   -4.3790   -2.7028 H   0  0  0  0  0  0  0  0  0  0  0  0
    1.2988   -4.1063   -1.1981 H   0  0  0  0  0  0  0  0  0  0  0  0
    8.8482   -5.0475   -5.7178 H   0  0  0  0  0  0  0  0  0  0  0  0
    4.5863   -5.1709   -8.7655 H   0  0  0  0  0  0  0  0  0  0  0  0
    5.3379   -3.7276   -9.4708 H   0  0  0  0  0  0  0  0  0  0  0  0
    3.4516   -2.3246   -8.6052 H   0  0  0  0  0  0  0  0  0  0  0  0
    2.8430   -3.6119   -9.6579 H   0  0  0  0  0  0  0  0  0  0  0  0
    2.7029   -3.7579   -7.8988 H   0  0  0  0  0  0  0  0  0  0  0  0
    9.3957   -1.9754    1.5869 H   0  0  0  0  0  0  0  0  0  0  0  0
    7.5842    0.9876    6.8466 H   0  0  0  0  0  0  0  0  0  0  0  0
    9.1345    0.7633    8.7746 H   0  0  0  0  0  0  0  0  0  0  0  0
   11.2072   -0.5252    8.5632 H   0  0  0  0  0  0  0  0  0  0  0  0
   11.7920   -1.6345    6.4162 H   0  0  0  0  0  0  0  0  0  0  0  0
  1  2  2  0  0  0  0
  2  3  1  0  0  0  0
  3  4  2  0  0  0  0
  3  5  1  0  0  0  0
  5  6  2  0  0  0  0
  6  7  1  0  0  0  0
  7  8  2  0  0  0  0
  8  9  1  0  0  0  0
  9 10  2  0  0  0  0
 10 11  1  0  0  0  0
 11 12  2  0  0  0  0
 12 13  1  0  0  0  0
 13 14  3  0  0  0  0
 12 15  1  0  0  0  0
 15 16  3  0  0  0  0
  8 17  1  0  0  0  0
 17 18  1  0  0  0  0
 18 19  1  0  0  0  0
 19 20  2  0  0  0  0
 20 21  1  0  0  0  0
 21 22  1  0  0  0  0
 21 23  1  0  0  0  0
  1 24  1  0  0  0  0
 24 25  2  0  0  0  0
 25 26  1  0  0  0  0
 26 27  1  0  0  0  0
 26 28  2  0  0  0  0
 28 29  1  0  0  0  0
 29 30  1  0  0  0  0
 30 31  2  0  0  0  0
 31 32  1  0  0  0  0
 32 33  1  0  0  0  0
 28 34  1  0  0  0  0
 34 35  2  0  0  0  0
 35 36  1  0  0  0  0
 36 37  1  0  0  0  0
 37 38  2  0  0  0  0
 38 39  1  0  0  0  0
 39 40  2  0  0  0  0
 40 41  1  0  0  0  0
 41 42  1  0  0  0  0
 40 43  1  0  0  0  0
 43 44  2  0  0  0  0
 36 45  1  0  0  0  0
 45 46  2  0  0  0  0
 46 47  1  0  0  0  0
 47 48  2  0  0  0  0
 48 49  1  0  0  0  0
 49 50  1  0  0  0  0
 48 51  1  0  0  0  0
 51 52  2  0  0  0  0
 35 53  1  0  0  0  0
 53 54  1  0  0  0  0
 54 55  1  0  0  0  0
 55 56  2  0  0  0  0
 56 57  1  0  0  0  0
 57 58  1  0  0  0  0
 58 59  2  0  0  0  0
 59 60  1  0  0  0  0
 60 61  2  0  0  0  0
 61 62  1  0  0  0  0
 62 63  1  0  0  0  0
 61 64  1  0  0  0  0
 64 65  2  0  0  0  0
 57 66  1  0  0  0  0
 66 67  2  0  0  0  0
 67 68  1  0  0  0  0
 68 69  2  0  0  0  0
 69 70  1  0  0  0  0
 70 71  1  0  0  0  0
 69 72  1  0  0  0  0
 72 73  2  0  0  0  0
 56 74  1  0  0  0  0
 74 75  1  0  0  0  0
 55 76  1  0  0  0  0
 76 77  1  0  0  0  0
 77 78  1  0  0  0  0
 78 79  2  0  0  0  0
 79 80  1  0  0  0  0
 80 81  1  0  0  0  0
 81 82  1  0  0  0  0
 82 83  2  0  0  0  0
 83 84  1  0  0  0  0
 84 85  2  0  0  0  0
 85 86  1  0  0  0  0
 86 87  2  0  0  0  0
 86 88  1  0  0  0  0
 88 89  1  0  0  0  0
 89 90  1  0  0  0  0
 85 91  1  0  0  0  0
 83 92  1  0  0  0  0
 81 93  2  0  0  0  0
 93 94  1  0  0  0  0
 93 95  1  0  0  0  0
 78 96  1  0  0  0  0
 96 97  2  0  0  0  0
 97 98  1  0  0  0  0
 98 99  2  0  0  0  0
 98100  1  0  0  0  0
100101  2  0  0  0  0
101102  1  0  0  0  0
102103  2  0  0  0  0
103104  1  0  0  0  0
104105  2  0  0  0  0
105106  1  0  0  0  0
106107  2  0  0  0  0
 11  2  1  0  0  0  0
 23 17  1  0  0  0  0
 30 24  1  0  0  0  0
 75 34  1  0  0  0  0
 94 76  2  0  0  0  0
106 97  1  0  0  0  0
 10  5  1  0  0  0  0
 22 18  1  0  0  0  0
 33 29  2  0  0  0  0
 44 37  1  0  0  0  0
 52 45  1  0  0  0  0
 74 53  2  0  0  0  0
 94 79  1  0  0  0  0
105100  1  0  0  0  0
 23  7  1  0  0  0  0
 65 58  1  0  0  0  0
 73 66  1  0  0  0  0
 91 82  1  0  0  0  0
  1108  1  0  0  0  0
  6109  1  0  0  0  0
  9110  1  0  0  0  0
 17111  1  0  0  0  0
 18112  1  0  0  0  0
 19113  1  0  0  0  0
 20114  1  0  0  0  0
 21115  1  0  0  0  0
 22116  1  0  0  0  0
 22117  1  0  0  0  0
 23118  1  0  0  0  0
 25119  1  0  0  0  0
 38120  1  0  0  0  0
 39121  1  0  0  0  0
 42122  1  0  0  0  0
 42123  1  0  0  0  0
 42124  1  0  0  0  0
 43125  1  0  0  0  0
 44126  1  0  0  0  0
 46127  1  0  0  0  0
 47128  1  0  0  0  0
 50129  1  0  0  0  0
 50130  1  0  0  0  0
 50131  1  0  0  0  0
 51132  1  0  0  0  0
 52133  1  0  0  0  0
 59134  1  0  0  0  0
 60135  1  0  0  0  0
 63136  1  0  0  0  0
 63137  1  0  0  0  0
 63138  1  0  0  0  0
 64139  1  0  0  0  0
 65140  1  0  0  0  0
 67141  1  0  0  0  0
 68142  1  0  0  0  0
 71143  1  0  0  0  0
 71144  1  0  0  0  0
 71145  1  0  0  0  0
 72146  1  0  0  0  0
 73147  1  0  0  0  0
 84148  1  0  0  0  0
 89149  1  0  0  0  0
 89150  1  0  0  0  0
 90151  1  0  0  0  0
 90152  1  0  0  0  0
 90153  1  0  0  0  0
 96154  1  0  0  0  0
101155  1  0  0  0  0
102156  1  0  0  0  0
103157  1  0  0  0  0
104158  1  0  0  0  0
M  END
