
  xtb     02042220383D
 energy: -254.188063342848 gnorm: 0.000937597031 xtb: 6.4.1 (unknown)
148168  0     0  0            999 V2000
   10.3457   -0.5207    3.6009 C   0  0  0  0  0  0  0  0  0  0  0  0
   10.1775   -0.9899    4.8712 C   0  0  0  0  0  0  0  0  0  0  0  0
    8.8713   -1.1194    5.5642 C   0  0  0  0  0  0  0  0  0  0  0  0
    7.7644   -0.8733    5.1312 O   0  0  0  0  0  0  0  0  0  0  0  0
    9.1951   -1.4628    6.9628 C   0  0  0  0  0  0  0  0  0  0  0  0
    8.2878   -1.6851    7.9969 C   0  0  0  0  0  0  0  0  0  0  0  0
    8.8750   -1.9538    9.2096 C   0  0  0  0  0  0  0  0  0  0  0  0
   10.2648   -1.9882    9.3860 C   0  0  0  0  0  0  0  0  0  0  0  0
   11.1709   -1.7702    8.3760 C   0  0  0  0  0  0  0  0  0  0  0  0
   10.5932   -1.5024    7.1306 C   0  0  0  0  0  0  0  0  0  0  0  0
   11.2244   -1.2337    5.8414 C   0  0  0  0  0  0  0  0  0  0  0  0
   12.5692   -1.2909    5.5796 C   0  0  0  0  0  0  0  0  0  0  0  0
   13.1531   -1.1341    4.3046 C   0  0  0  0  0  0  0  0  0  0  0  0
   13.7100   -1.0459    3.3041 N   0  0  0  0  0  0  0  0  0  0  0  0
   13.5622   -1.5468    6.5471 C   0  0  0  0  0  0  0  0  0  0  0  0
   14.4241   -1.7402    7.2814 N   0  0  0  0  0  0  0  0  0  0  0  0
   10.1513   -2.2906   10.8596 C   0  0  0  0  0  0  0  0  0  0  0  0
   10.3979   -1.1124   11.8257 C   0  0  0  0  0  0  0  0  0  0  0  0
    9.7627   -1.5670   13.1198 C   0  0  0  0  0  0  0  0  0  0  0  0
    8.4464   -1.5408   12.9541 C   0  0  0  0  0  0  0  0  0  0  0  0
    8.1699   -1.0672   11.5453 C   0  0  0  0  0  0  0  0  0  0  0  0
    9.3452   -0.0994   11.3569 C   0  0  0  0  0  0  0  0  0  0  0  0
    8.6018   -2.2575   10.6625 C   0  0  0  0  0  0  0  0  0  0  0  0
    9.3349   -0.4557    2.6056 C   0  0  0  0  0  0  0  0  0  0  0  0
    8.2916   -1.3952    2.4658 C   0  0  0  0  0  0  0  0  0  0  0  0
    7.2158   -1.2390    1.5061 C   0  0  0  0  0  0  0  0  0  0  0  0
    6.3490   -2.2535    1.5770 N   0  0  0  0  0  0  0  0  0  0  0  0
    6.8477   -3.2923    2.6926 S   0  0  0  0  0  4  0  0  0  0  0  0
    8.1794   -2.5352    3.1484 N   0  0  0  0  0  0  0  0  0  0  0  0
    7.1455   -0.1326    0.6281 C   0  0  0  0  0  0  0  0  0  0  0  0
    8.2504    0.7406    0.6949 C   0  0  0  0  0  0  0  0  0  0  0  0
    8.4254    1.8202   -0.0697 N   0  0  0  0  0  0  0  0  0  0  0  0
    9.7949    2.5419    0.3496 S   0  0  0  0  0  0  0  0  0  0  0  0
   10.2380    1.5455    1.5262 N   0  0  0  0  0  0  0  0  0  0  0  0
    9.3299    0.5739    1.6421 C   0  0  0  0  0  0  0  0  0  0  0  0
    6.0350    0.1332   -0.2131 C   0  0  0  0  0  0  0  0  0  0  0  0
    4.9089   -0.6436   -0.3488 C   0  0  0  0  0  0  0  0  0  0  0  0
    3.9160   -0.0678   -1.1580 C   0  0  0  0  0  0  0  0  0  0  0  0
    2.6187   -0.5719   -1.4126 C   0  0  0  0  0  0  0  0  0  0  0  0
    2.1294   -1.8006   -0.8272 C   0  0  0  0  0  0  0  0  0  0  0  0
    1.3019   -2.7140   -1.4217 C   0  0  0  0  0  0  0  0  0  0  0  0
    0.9085   -3.8001   -0.6129 C   0  0  0  0  0  0  0  0  0  0  0  0
    1.3820   -3.7881    0.6640 C   0  0  0  0  0  0  0  0  0  0  0  0
    1.1033   -4.7919    1.7349 C   0  0  0  0  0  0  0  0  0  0  0  0
    2.3509   -5.1279    2.5465 C   0  0  0  0  0  0  0  0  0  0  0  0
    2.4710   -2.2939    0.9625 Se  0  0  0  0  0  2  0  0  0  0  0  0
    1.8157    0.2172   -2.2274 C   0  0  0  0  0  0  0  0  0  0  0  0
    2.2294    1.4550   -2.7779 C   0  0  0  0  0  0  0  0  0  0  0  0
    3.5215    1.9601   -2.5134 C   0  0  0  0  0  0  0  0  0  0  0  0
    3.9802    3.2485   -2.9952 C   0  0  0  0  0  0  0  0  0  0  0  0
    5.2367    3.5526   -3.4340 C   0  0  0  0  0  0  0  0  0  0  0  0
    5.4596    4.9077   -3.7659 C   0  0  0  0  0  0  0  0  0  0  0  0
    4.4034    5.7437   -3.5842 C   0  0  0  0  0  0  0  0  0  0  0  0
    4.3616    7.2166   -3.8276 C   0  0  0  0  0  0  0  0  0  0  0  0
    3.1129    7.6344   -4.5990 C   0  0  0  0  0  0  0  0  0  0  0  0
    2.9125    4.8041   -2.9427 Se  0  0  0  0  0  2  0  0  0  0  0  0
    4.3350    1.1734   -1.7062 C   0  0  0  0  0  0  0  0  0  0  0  0
    5.9411    1.5968   -1.1623 S   0  0  0  0  0  0  0  0  0  0  0  0
    1.1980    2.0621   -3.5344 C   0  0  0  0  0  0  0  0  0  0  0  0
    0.0205    1.3729   -3.5390 C   0  0  0  0  0  0  0  0  0  0  0  0
    0.1560   -0.1198   -2.6322 S   0  0  0  0  0  0  0  0  0  0  0  0
   -1.2428    1.7402   -4.1373 C   0  0  0  0  0  0  0  0  0  0  0  0
   -2.3194    0.8591   -4.0611 C   0  0  0  0  0  0  0  0  0  0  0  0
   -3.5416    1.2494   -4.5785 C   0  0  0  0  0  0  0  0  0  0  0  0
   -4.7339    0.5746   -4.6070 N   0  0  0  0  0  0  0  0  0  0  0  0
   -4.9991   -0.7133   -4.0197 C   0  0  0  0  0  0  0  0  0  0  0  0
   -5.5716   -0.5828   -2.6095 C   0  0  0  0  0  0  0  0  0  0  0  0
   -5.6865    1.4028   -5.1467 C   0  0  0  0  0  0  0  0  0  0  0  0
   -5.0834    2.6282   -5.5352 C   0  0  0  0  0  0  0  0  0  0  0  0
   -3.7066    2.5277   -5.1752 C   0  0  0  0  0  0  0  0  0  0  0  0
   -2.6188    3.3923   -5.2646 C   0  0  0  0  0  0  0  0  0  0  0  0
   -1.4066    2.9985   -4.7511 C   0  0  0  0  0  0  0  0  0  0  0  0
   -5.8589    3.6210   -6.1316 C   0  0  0  0  0  0  0  0  0  0  0  0
   -7.2047    3.4009   -6.2915 C   0  0  0  0  0  0  0  0  0  0  0  0
   -7.8185    2.2085   -5.8468 C   0  0  0  0  0  0  0  0  0  0  0  0
   -7.0405    1.1820   -5.3092 C   0  0  0  0  0  0  0  0  0  0  0  0
   -9.2436    2.0909   -5.9849 C   0  0  0  0  0  0  0  0  0  0  0  0
  -10.1132    1.4220   -5.1812 C   0  0  0  0  0  0  0  0  0  0  0  0
   -9.8485    0.9099   -3.8098 C   0  0  0  0  0  0  0  0  0  0  0  0
   -8.7869    0.7833   -3.2355 O   0  0  0  0  0  0  0  0  0  0  0  0
  -11.1738    0.6356   -3.2253 C   0  0  0  0  0  0  0  0  0  0  0  0
  -11.4305    0.2046   -1.9251 C   0  0  0  0  0  0  0  0  0  0  0  0
  -12.7637    0.0262   -1.6482 C   0  0  0  0  0  0  0  0  0  0  0  0
  -13.7721    0.2695   -2.5915 C   0  0  0  0  0  0  0  0  0  0  0  0
  -13.5334    0.7003   -3.8743 C   0  0  0  0  0  0  0  0  0  0  0  0
  -12.1803    0.8778   -4.1806 C   0  0  0  0  0  0  0  0  0  0  0  0
  -11.5461    1.3120   -5.4194 C   0  0  0  0  0  0  0  0  0  0  0  0
  -12.1796    1.4986   -6.6188 C   0  0  0  0  0  0  0  0  0  0  0  0
  -11.5427    1.8386   -7.8322 C   0  0  0  0  0  0  0  0  0  0  0  0
  -11.1035    2.0974   -8.8614 N   0  0  0  0  0  0  0  0  0  0  0  0
  -13.5662    1.3347   -6.8221 C   0  0  0  0  0  0  0  0  0  0  0  0
  -14.6835    1.2189   -7.0600 N   0  0  0  0  0  0  0  0  0  0  0  0
  -14.8705   -0.1215   -1.6349 C   0  0  0  0  0  0  0  0  0  0  0  0
  -15.5187   -1.5165   -1.8158 C   0  0  0  0  0  0  0  0  0  0  0  0
  -14.4791   -2.3902   -2.4731 C   0  0  0  0  0  0  0  0  0  0  0  0
  -13.5244   -2.6233   -1.5823 C   0  0  0  0  0  0  0  0  0  0  0  0
  -13.9010   -1.9110   -0.3065 C   0  0  0  0  0  0  0  0  0  0  0  0
  -15.4318   -2.0329   -0.3706 C   0  0  0  0  0  0  0  0  0  0  0  0
  -13.7471   -0.3951   -0.5857 C   0  0  0  0  0  0  0  0  0  0  0  0
   11.3006   -0.1018    3.3079 H   0  0  0  0  0  0  0  0  0  0  0  0
    7.2247   -1.6448    7.8180 H   0  0  0  0  0  0  0  0  0  0  0  0
   12.2370   -1.7968    8.5278 H   0  0  0  0  0  0  0  0  0  0  0  0
   10.6153   -3.2174   11.1918 H   0  0  0  0  0  0  0  0  0  0  0  0
   11.4295   -0.7755   11.8782 H   0  0  0  0  0  0  0  0  0  0  0  0
   10.3185   -1.9032   13.9754 H   0  0  0  0  0  0  0  0  0  0  0  0
    7.6832   -1.8510   13.6437 H   0  0  0  0  0  0  0  0  0  0  0  0
    7.1714   -0.6885   11.3435 H   0  0  0  0  0  0  0  0  0  0  0  0
    9.2794    0.7621   12.0195 H   0  0  0  0  0  0  0  0  0  0  0  0
    9.4806    0.2394   10.3315 H   0  0  0  0  0  0  0  0  0  0  0  0
    8.0326   -3.1638   10.8611 H   0  0  0  0  0  0  0  0  0  0  0  0
    4.8406   -1.6030    0.1320 H   0  0  0  0  0  0  0  0  0  0  0  0
    1.0104   -2.6399   -2.4558 H   0  0  0  0  0  0  0  0  0  0  0  0
    0.2757   -4.5885   -0.9860 H   0  0  0  0  0  0  0  0  0  0  0  0
    0.3339   -4.3989    2.4079 H   0  0  0  0  0  0  0  0  0  0  0  0
    0.7027   -5.6961    1.2697 H   0  0  0  0  0  0  0  0  0  0  0  0
    2.1220   -5.8633    3.3138 H   0  0  0  0  0  0  0  0  0  0  0  0
    3.1284   -5.5273    1.8984 H   0  0  0  0  0  0  0  0  0  0  0  0
    2.7353   -4.2287    3.0305 H   0  0  0  0  0  0  0  0  0  0  0  0
    5.9994    2.8034   -3.5610 H   0  0  0  0  0  0  0  0  0  0  0  0
    6.4097    5.2525   -4.1394 H   0  0  0  0  0  0  0  0  0  0  0  0
    5.2585    7.5026   -4.3823 H   0  0  0  0  0  0  0  0  0  0  0  0
    4.3824    7.7449   -2.8687 H   0  0  0  0  0  0  0  0  0  0  0  0
    2.2188    7.3674   -4.0331 H   0  0  0  0  0  0  0  0  0  0  0  0
    3.1075    8.7083   -4.7681 H   0  0  0  0  0  0  0  0  0  0  0  0
    3.0750    7.1281   -5.5613 H   0  0  0  0  0  0  0  0  0  0  0  0
    1.3377    2.9830   -4.0727 H   0  0  0  0  0  0  0  0  0  0  0  0
   -2.1896   -0.1020   -3.5865 H   0  0  0  0  0  0  0  0  0  0  0  0
   -5.7054   -1.2473   -4.6622 H   0  0  0  0  0  0  0  0  0  0  0  0
   -4.0641   -1.2783   -4.0000 H   0  0  0  0  0  0  0  0  0  0  0  0
   -6.5194   -0.0508   -2.6339 H   0  0  0  0  0  0  0  0  0  0  0  0
   -4.8799   -0.0353   -1.9733 H   0  0  0  0  0  0  0  0  0  0  0  0
   -5.7334   -1.5689   -2.1822 H   0  0  0  0  0  0  0  0  0  0  0  0
   -2.7325    4.3640   -5.7206 H   0  0  0  0  0  0  0  0  0  0  0  0
   -0.5675    3.6735   -4.8009 H   0  0  0  0  0  0  0  0  0  0  0  0
   -5.4067    4.5457   -6.4558 H   0  0  0  0  0  0  0  0  0  0  0  0
   -7.8257    4.1648   -6.7353 H   0  0  0  0  0  0  0  0  0  0  0  0
   -7.4895    0.2404   -5.0464 H   0  0  0  0  0  0  0  0  0  0  0  0
   -9.6652    2.6644   -6.8029 H   0  0  0  0  0  0  0  0  0  0  0  0
  -10.6238    0.0357   -1.2288 H   0  0  0  0  0  0  0  0  0  0  0  0
  -14.3196    0.8927   -4.5851 H   0  0  0  0  0  0  0  0  0  0  0  0
  -15.6032    0.6504   -1.4083 H   0  0  0  0  0  0  0  0  0  0  0  0
  -16.4986   -1.5012   -2.2849 H   0  0  0  0  0  0  0  0  0  0  0  0
  -14.5157   -2.6916   -3.5036 H   0  0  0  0  0  0  0  0  0  0  0  0
  -12.6032   -3.1588   -1.7197 H   0  0  0  0  0  0  0  0  0  0  0  0
  -13.4085   -2.2553    0.5992 H   0  0  0  0  0  0  0  0  0  0  0  0
  -15.9481   -1.3988    0.3488 H   0  0  0  0  0  0  0  0  0  0  0  0
  -15.7769   -3.0608   -0.2694 H   0  0  0  0  0  0  0  0  0  0  0  0
  -13.7465    0.1969    0.3275 H   0  0  0  0  0  0  0  0  0  0  0  0
  1  2  2  0  0  0  0
  2  3  1  0  0  0  0
  3  4  2  0  0  0  0
  3  5  1  0  0  0  0
  5  6  2  0  0  0  0
  6  7  1  0  0  0  0
  7  8  2  0  0  0  0
  8  9  1  0  0  0  0
  9 10  2  0  0  0  0
 10 11  1  0  0  0  0
 11 12  2  0  0  0  0
 12 13  1  0  0  0  0
 13 14  3  0  0  0  0
 12 15  1  0  0  0  0
 15 16  3  0  0  0  0
  8 17  1  0  0  0  0
 17 18  1  0  0  0  0
 18 19  1  0  0  0  0
 19 20  2  0  0  0  0
 20 21  1  0  0  0  0
 21 22  1  0  0  0  0
 21 23  1  0  0  0  0
  1 24  1  0  0  0  0
 24 25  2  0  0  0  0
 25 26  1  0  0  0  0
 26 27  1  0  0  0  0
 27 28  2  0  0  0  0
 28 29  2  0  0  0  0
 26 30  2  0  0  0  0
 30 31  1  0  0  0  0
 31 32  2  0  0  0  0
 32 33  1  0  0  0  0
 33 34  1  0  0  0  0
 34 35  2  0  0  0  0
 30 36  1  0  0  0  0
 36 37  2  0  0  0  0
 37 38  1  0  0  0  0
 38 39  2  0  0  0  0
 39 40  1  0  0  0  0
 40 41  2  0  0  0  0
 41 42  1  0  0  0  0
 42 43  2  0  0  0  0
 43 44  1  0  0  0  0
 44 45  1  0  0  0  0
 43 46  1  0  0  0  0
 39 47  1  0  0  0  0
 47 48  2  0  0  0  0
 48 49  1  0  0  0  0
 49 50  1  0  0  0  0
 50 51  2  0  0  0  0
 51 52  1  0  0  0  0
 52 53  2  0  0  0  0
 53 54  1  0  0  0  0
 54 55  1  0  0  0  0
 53 56  1  0  0  0  0
 49 57  2  0  0  0  0
 57 58  1  0  0  0  0
 48 59  1  0  0  0  0
 59 60  2  0  0  0  0
 60 61  1  0  0  0  0
 60 62  1  0  0  0  0
 62 63  2  0  0  0  0
 63 64  1  0  0  0  0
 64 65  1  0  0  0  0
 65 66  1  0  0  0  0
 66 67  1  0  0  0  0
 65 68  1  0  0  0  0
 68 69  2  0  0  0  0
 69 70  1  0  0  0  0
 70 71  1  0  0  0  0
 71 72  2  0  0  0  0
 69 73  1  0  0  0  0
 73 74  2  0  0  0  0
 74 75  1  0  0  0  0
 75 76  2  0  0  0  0
 75 77  1  0  0  0  0
 77 78  2  0  0  0  0
 78 79  1  0  0  0  0
 79 80  2  0  0  0  0
 79 81  1  0  0  0  0
 81 82  2  0  0  0  0
 82 83  1  0  0  0  0
 83 84  2  0  0  0  0
 84 85  1  0  0  0  0
 85 86  2  0  0  0  0
 86 87  1  0  0  0  0
 87 88  2  0  0  0  0
 88 89  1  0  0  0  0
 89 90  3  0  0  0  0
 88 91  1  0  0  0  0
 91 92  3  0  0  0  0
 84 93  1  0  0  0  0
 93 94  1  0  0  0  0
 94 95  1  0  0  0  0
 95 96  2  0  0  0  0
 96 97  1  0  0  0  0
 97 98  1  0  0  0  0
 97 99  1  0  0  0  0
 11  2  1  0  0  0  0
 23 17  1  0  0  0  0
 35 24  1  0  0  0  0
 58 36  1  0  0  0  0
 72 62  1  0  0  0  0
 87 78  1  0  0  0  0
 99 93  1  0  0  0  0
 10  5  1  0  0  0  0
 22 18  1  0  0  0  0
 29 25  1  0  0  0  0
 35 31  1  0  0  0  0
 57 38  1  0  0  0  0
 70 64  2  0  0  0  0
 86 81  1  0  0  0  0
 98 94  1  0  0  0  0
 23  7  1  0  0  0  0
 46 40  1  0  0  0  0
 61 47  1  0  0  0  0
 76 68  1  0  0  0  0
 99 83  1  0  0  0  0
 56 50  1  0  0  0  0
  1100  1  0  0  0  0
  6101  1  0  0  0  0
  9102  1  0  0  0  0
 17103  1  0  0  0  0
 18104  1  0  0  0  0
 19105  1  0  0  0  0
 20106  1  0  0  0  0
 21107  1  0  0  0  0
 22108  1  0  0  0  0
 22109  1  0  0  0  0
 23110  1  0  0  0  0
 37111  1  0  0  0  0
 41112  1  0  0  0  0
 42113  1  0  0  0  0
 44114  1  0  0  0  0
 44115  1  0  0  0  0
 45116  1  0  0  0  0
 45117  1  0  0  0  0
 45118  1  0  0  0  0
 51119  1  0  0  0  0
 52120  1  0  0  0  0
 54121  1  0  0  0  0
 54122  1  0  0  0  0
 55123  1  0  0  0  0
 55124  1  0  0  0  0
 55125  1  0  0  0  0
 59126  1  0  0  0  0
 63127  1  0  0  0  0
 66128  1  0  0  0  0
 66129  1  0  0  0  0
 67130  1  0  0  0  0
 67131  1  0  0  0  0
 67132  1  0  0  0  0
 71133  1  0  0  0  0
 72134  1  0  0  0  0
 73135  1  0  0  0  0
 74136  1  0  0  0  0
 76137  1  0  0  0  0
 77138  1  0  0  0  0
 82139  1  0  0  0  0
 85140  1  0  0  0  0
 93141  1  0  0  0  0
 94142  1  0  0  0  0
 95143  1  0  0  0  0
 96144  1  0  0  0  0
 97145  1  0  0  0  0
 98146  1  0  0  0  0
 98147  1  0  0  0  0
 99148  1  0  0  0  0
M  END
