
  xtb     02132219253D
 energy: -296.559342569161 gnorm: 0.000460052059 xtb: 6.4.1 (unknown)
168188  0     0  0            999 V2000
   -0.5378    5.3955    6.2349 C   0  0  0  0  0  0  0  0  0  0  0  0
   -1.5295    6.2030    6.7190 C   0  0  0  0  0  0  0  0  0  0  0  0
   -2.9615    5.8310    6.8040 C   0  0  0  0  0  0  0  0  0  0  0  0
   -3.5011    4.8283    6.3874 O   0  0  0  0  0  0  0  0  0  0  0  0
   -3.5835    6.8658    7.6597 C   0  0  0  0  0  0  0  0  0  0  0  0
   -4.9177    6.9328    8.0533 C   0  0  0  0  0  0  0  0  0  0  0  0
   -5.2076    7.9960    8.8753 C   0  0  0  0  0  0  0  0  0  0  0  0
   -4.2413    8.9240    9.2848 C   0  0  0  0  0  0  0  0  0  0  0  0
   -2.9206    8.8696    8.9076 C   0  0  0  0  0  0  0  0  0  0  0  0
   -2.6069    7.7961    8.0689 C   0  0  0  0  0  0  0  0  0  0  0  0
   -1.3354    7.4259    7.4585 C   0  0  0  0  0  0  0  0  0  0  0  0
   -0.1813    8.1713    7.4598 C   0  0  0  0  0  0  0  0  0  0  0  0
    0.9460    7.8578    6.6762 C   0  0  0  0  0  0  0  0  0  0  0  0
    1.8754    7.6936    6.0196 N   0  0  0  0  0  0  0  0  0  0  0  0
   -0.0012    9.3689    8.1777 C   0  0  0  0  0  0  0  0  0  0  0  0
    0.2123   10.3403    8.7527 N   0  0  0  0  0  0  0  0  0  0  0  0
   -5.2299    9.7130   10.1070 C   0  0  0  0  0  0  0  0  0  0  0  0
   -5.1805    9.5027   11.6350 C   0  0  0  0  0  0  0  0  0  0  0  0
   -6.5254   10.0009   12.1123 C   0  0  0  0  0  0  0  0  0  0  0  0
   -7.4417    9.1231   11.7241 C   0  0  0  0  0  0  0  0  0  0  0  0
   -6.7312    8.0168   10.9780 C   0  0  0  0  0  0  0  0  0  0  0  0
   -5.4044    7.9892   11.7477 C   0  0  0  0  0  0  0  0  0  0  0  0
   -6.3083    8.6791    9.6495 C   0  0  0  0  0  0  0  0  0  0  0  0
   -0.6942    4.3614    5.2819 C   0  0  0  0  0  0  0  0  0  0  0  0
   -1.6284    4.3925    4.2239 C   0  0  0  0  0  0  0  0  0  0  0  0
   -1.6542    3.3921    3.1748 C   0  0  0  0  0  0  0  0  0  0  0  0
   -2.6360    3.6252    2.2989 N   0  0  0  0  0  0  0  0  0  0  0  0
   -3.4081    4.9665    2.7256 S   0  0  0  0  0  4  0  0  0  0  0  0
   -2.5426    5.3387    4.0191 N   0  0  0  0  0  0  0  0  0  0  0  0
   -0.7443    2.3141    3.1286 C   0  0  0  0  0  0  0  0  0  0  0  0
    0.1053    2.2187    4.2561 C   0  0  0  0  0  0  0  0  0  0  0  0
    0.9903    1.2470    4.4763 N   0  0  0  0  0  0  0  0  0  0  0  0
    1.8033    1.5748    5.8257 S   0  0  0  0  0  0  0  0  0  0  0  0
    1.0934    2.9689    6.1919 N   0  0  0  0  0  0  0  0  0  0  0  0
    0.1674    3.2426    5.2729 C   0  0  0  0  0  0  0  0  0  0  0  0
   -0.6229    1.3847    2.0637 C   0  0  0  0  0  0  0  0  0  0  0  0
   -0.9022    1.5253    0.6968 C   0  0  0  0  0  0  0  0  0  0  0  0
   -1.2324    2.6722    0.0152 N   0  0  0  0  0  0  0  0  0  0  0  0
   -0.7837    3.9387    0.3715 C   0  0  0  0  0  0  0  0  0  0  0  0
   -1.5321    5.0693    0.0289 C   0  0  0  0  0  0  0  0  0  0  0  0
   -1.1428    6.3165    0.4549 C   0  0  0  0  0  0  0  0  0  0  0  0
    0.0089    6.4803    1.2285 C   0  0  0  0  0  0  0  0  0  0  0  0
    0.3601    8.1104    1.7802 S   0  0  0  0  0  0  0  0  0  0  0  0
    1.8759    7.9423    2.7600 C   0  0  0  0  0  0  0  0  0  0  0  0
    0.7945    5.3681    1.5113 C   0  0  0  0  0  0  0  0  0  0  0  0
    0.4082    4.1179    1.0747 C   0  0  0  0  0  0  0  0  0  0  0  0
   -2.0499    2.5009   -1.1206 C   0  0  0  0  0  0  0  0  0  0  0  0
   -1.6763    3.0177   -2.3561 C   0  0  0  0  0  0  0  0  0  0  0  0
   -2.4348    2.7512   -3.4775 C   0  0  0  0  0  0  0  0  0  0  0  0
   -3.5756    1.9645   -3.3754 C   0  0  0  0  0  0  0  0  0  0  0  0
   -4.5706    1.5327   -4.7621 S   0  0  0  0  0  0  0  0  0  0  0  0
   -3.3976    1.6772   -6.1412 C   0  0  0  0  0  0  0  0  0  0  0  0
   -3.9812    1.4938   -2.1290 C   0  0  0  0  0  0  0  0  0  0  0  0
   -3.2237    1.7566   -1.0105 C   0  0  0  0  0  0  0  0  0  0  0  0
   -0.6812    0.3031    0.0124 C   0  0  0  0  0  0  0  0  0  0  0  0
   -0.8557   -0.1852   -1.6388 S   0  0  0  0  0  0  0  0  0  0  0  0
   -0.2115   -1.7699   -1.2469 C   0  0  0  0  0  0  0  0  0  0  0  0
    0.0383   -1.9302    0.1262 C   0  0  0  0  0  0  0  0  0  0  0  0
    0.3785   -3.0986    0.7577 N   0  0  0  0  0  0  0  0  0  0  0  0
    1.1491   -3.0170    1.9282 C   0  0  0  0  0  0  0  0  0  0  0  0
    2.2384   -2.1516    1.9798 C   0  0  0  0  0  0  0  0  0  0  0  0
    2.9586   -1.9920    3.1465 C   0  0  0  0  0  0  0  0  0  0  0  0
    2.5979   -2.7017    4.2836 C   0  0  0  0  0  0  0  0  0  0  0  0
    3.4053   -2.5374    5.8415 S   0  0  0  0  0  0  0  0  0  0  0  0
    4.5177   -1.1230    5.6005 C   0  0  0  0  0  0  0  0  0  0  0  0
    1.5396   -3.6080    4.2208 C   0  0  0  0  0  0  0  0  0  0  0  0
    0.8217   -3.7669    3.0572 C   0  0  0  0  0  0  0  0  0  0  0  0
   -0.0838   -4.3407    0.3018 C   0  0  0  0  0  0  0  0  0  0  0  0
   -1.3612   -4.4623   -0.2518 C   0  0  0  0  0  0  0  0  0  0  0  0
   -1.7868   -5.6690   -0.7542 C   0  0  0  0  0  0  0  0  0  0  0  0
   -0.9588   -6.7914   -0.7025 C   0  0  0  0  0  0  0  0  0  0  0  0
   -1.5995   -8.2612   -1.4257 S   0  0  0  0  0  0  0  0  0  0  0  0
   -0.2950   -9.4950   -1.1741 C   0  0  0  0  0  0  0  0  0  0  0  0
    0.2886   -6.6873   -0.0972 C   0  0  0  0  0  0  0  0  0  0  0  0
    0.7160   -5.4765    0.4068 C   0  0  0  0  0  0  0  0  0  0  0  0
   -0.2039   -0.7199    0.8158 C   0  0  0  0  0  0  0  0  0  0  0  0
    0.0189   -0.2051    2.4532 S   0  0  0  0  0  0  0  0  0  0  0  0
    0.0780   -2.7311   -2.2506 C   0  0  0  0  0  0  0  0  0  0  0  0
    0.9223   -3.7270   -1.8749 N   0  0  0  0  0  0  0  0  0  0  0  0
    1.2368   -4.7048   -2.6200 N   0  0  0  0  0  0  0  0  0  0  0  0
    0.7119   -4.8734   -3.8468 C   0  0  0  0  0  0  0  0  0  0  0  0
   -0.1770   -3.9047   -4.3244 C   0  0  0  0  0  0  0  0  0  0  0  0
   -1.0140   -3.8391   -5.5505 C   0  0  0  0  0  0  0  0  0  0  0  0
   -1.2038   -4.6653   -6.4057 O   0  0  0  0  0  0  0  0  0  0  0  0
   -1.6225   -2.5958   -5.4998 N   0  0  0  0  0  0  0  0  0  0  0  0
   -2.5036   -2.1051   -6.5381 C   0  0  0  0  0  0  0  0  0  0  0  0
   -3.9507   -2.0559   -6.0632 C   0  0  0  0  0  0  0  0  0  0  0  0
   -1.3126   -1.8842   -4.3559 C   0  0  0  0  0  0  0  0  0  0  0  0
   -1.6798   -0.7560   -4.1274 O   0  0  0  0  0  0  0  0  0  0  0  0
   -0.4407   -2.7782   -3.5564 C   0  0  0  0  0  0  0  0  0  0  0  0
    1.1390   -6.0316   -4.5878 C   0  0  0  0  0  0  0  0  0  0  0  0
    1.4675   -6.0216   -5.8998 C   0  0  0  0  0  0  0  0  0  0  0  0
    1.6256   -4.7943   -6.7319 C   0  0  0  0  0  0  0  0  0  0  0  0
    1.4728   -3.6389   -6.3905 O   0  0  0  0  0  0  0  0  0  0  0  0
    2.0874   -5.2600   -8.0461 C   0  0  0  0  0  0  0  0  0  0  0  0
    2.3755   -4.4652   -9.1542 C   0  0  0  0  0  0  0  0  0  0  0  0
    2.7784   -5.1714  -10.2609 C   0  0  0  0  0  0  0  0  0  0  0  0
    2.8956   -6.5690  -10.2648 C   0  0  0  0  0  0  0  0  0  0  0  0
    2.6244   -7.3642   -9.1775 C   0  0  0  0  0  0  0  0  0  0  0  0
    2.2068   -6.6659   -8.0396 C   0  0  0  0  0  0  0  0  0  0  0  0
    1.8445   -7.1640   -6.7181 C   0  0  0  0  0  0  0  0  0  0  0  0
    1.8426   -8.4767   -6.3284 C   0  0  0  0  0  0  0  0  0  0  0  0
    1.5149   -8.9491   -5.0405 C   0  0  0  0  0  0  0  0  0  0  0  0
    1.2816   -9.4263   -4.0220 N   0  0  0  0  0  0  0  0  0  0  0  0
    2.1883   -9.5613   -7.1633 C   0  0  0  0  0  0  0  0  0  0  0  0
    2.4571  -10.4910   -7.7805 N   0  0  0  0  0  0  0  0  0  0  0  0
    3.3351   -6.6071  -11.7065 C   0  0  0  0  0  0  0  0  0  0  0  0
    2.2889   -7.0363  -12.7650 C   0  0  0  0  0  0  0  0  0  0  0  0
    0.9353   -6.6887  -12.1963 C   0  0  0  0  0  0  0  0  0  0  0  0
    0.8246   -5.3670  -12.1933 C   0  0  0  0  0  0  0  0  0  0  0  0
    2.1016   -4.7968  -12.7599 C   0  0  0  0  0  0  0  0  0  0  0  0
    2.4596   -5.8921  -13.7771 C   0  0  0  0  0  0  0  0  0  0  0  0
    3.2044   -5.0512  -11.7023 C   0  0  0  0  0  0  0  0  0  0  0  0
    0.4692    5.5110    6.6197 H   0  0  0  0  0  0  0  0  0  0  0  0
   -5.6324    6.1989    7.7150 H   0  0  0  0  0  0  0  0  0  0  0  0
   -2.1836    9.5858    9.2316 H   0  0  0  0  0  0  0  0  0  0  0  0
   -5.3559   10.7566    9.8248 H   0  0  0  0  0  0  0  0  0  0  0  0
   -4.3030    9.9178   12.1235 H   0  0  0  0  0  0  0  0  0  0  0  0
   -6.6737   10.9375   12.6171 H   0  0  0  0  0  0  0  0  0  0  0  0
   -8.5082    9.1802   11.8398 H   0  0  0  0  0  0  0  0  0  0  0  0
   -7.2670    7.0776   10.8691 H   0  0  0  0  0  0  0  0  0  0  0  0
   -5.5339    7.6680   12.7800 H   0  0  0  0  0  0  0  0  0  0  0  0
   -4.6295    7.3895   11.2740 H   0  0  0  0  0  0  0  0  0  0  0  0
   -7.1536    9.0342    9.0628 H   0  0  0  0  0  0  0  0  0  0  0  0
   -2.4460    4.9506   -0.5323 H   0  0  0  0  0  0  0  0  0  0  0  0
   -1.7362    7.1849    0.2137 H   0  0  0  0  0  0  0  0  0  0  0  0
    1.7024    7.3025    3.6203 H   0  0  0  0  0  0  0  0  0  0  0  0
    2.1117    8.9446    3.1037 H   0  0  0  0  0  0  0  0  0  0  0  0
    2.6821    7.5696    2.1352 H   0  0  0  0  0  0  0  0  0  0  0  0
    1.7087    5.4640    2.0745 H   0  0  0  0  0  0  0  0  0  0  0  0
    1.0371    3.2674    1.2910 H   0  0  0  0  0  0  0  0  0  0  0  0
   -0.7774    3.6107   -2.4375 H   0  0  0  0  0  0  0  0  0  0  0  0
   -2.1207    3.1506   -4.4279 H   0  0  0  0  0  0  0  0  0  0  0  0
   -2.4714    1.1905   -5.8513 H   0  0  0  0  0  0  0  0  0  0  0  0
   -3.8550    1.1610   -6.9794 H   0  0  0  0  0  0  0  0  0  0  0  0
   -3.2369    2.7202   -6.3988 H   0  0  0  0  0  0  0  0  0  0  0  0
   -4.8855    0.9097   -2.0548 H   0  0  0  0  0  0  0  0  0  0  0  0
   -3.5217    1.3843   -0.0420 H   0  0  0  0  0  0  0  0  0  0  0  0
    2.5191   -1.6014    1.0943 H   0  0  0  0  0  0  0  0  0  0  0  0
    3.7947   -1.3126    3.1531 H   0  0  0  0  0  0  0  0  0  0  0  0
    5.3235   -1.3909    4.9230 H   0  0  0  0  0  0  0  0  0  0  0  0
    3.9510   -0.2739    5.2295 H   0  0  0  0  0  0  0  0  0  0  0  0
    4.9241   -0.8980    6.5816 H   0  0  0  0  0  0  0  0  0  0  0  0
    1.2780   -4.1693    5.1046 H   0  0  0  0  0  0  0  0  0  0  0  0
   -0.0107   -4.4533    3.0194 H   0  0  0  0  0  0  0  0  0  0  0  0
   -2.0107   -3.6005   -0.2990 H   0  0  0  0  0  0  0  0  0  0  0  0
   -2.7673   -5.7618   -1.1966 H   0  0  0  0  0  0  0  0  0  0  0  0
   -0.1010   -9.6173   -0.1126 H   0  0  0  0  0  0  0  0  0  0  0  0
   -0.6899  -10.4180   -1.5872 H   0  0  0  0  0  0  0  0  0  0  0  0
    0.5972   -9.2094   -1.7219 H   0  0  0  0  0  0  0  0  0  0  0  0
    0.9439   -7.5401   -0.0316 H   0  0  0  0  0  0  0  0  0  0  0  0
    1.6970   -5.3945    0.8474 H   0  0  0  0  0  0  0  0  0  0  0  0
   -2.3950   -2.7897   -7.3828 H   0  0  0  0  0  0  0  0  0  0  0  0
   -2.1641   -1.1080   -6.8319 H   0  0  0  0  0  0  0  0  0  0  0  0
   -4.0514   -1.3722   -5.2240 H   0  0  0  0  0  0  0  0  0  0  0  0
   -4.5910   -1.7124   -6.8707 H   0  0  0  0  0  0  0  0  0  0  0  0
   -4.2804   -3.0455   -5.7553 H   0  0  0  0  0  0  0  0  0  0  0  0
    1.2436   -6.9328   -4.0006 H   0  0  0  0  0  0  0  0  0  0  0  0
    2.2742   -3.3923   -9.1056 H   0  0  0  0  0  0  0  0  0  0  0  0
    2.7254   -8.4363   -9.1967 H   0  0  0  0  0  0  0  0  0  0  0  0
    4.3167   -7.0370  -11.8947 H   0  0  0  0  0  0  0  0  0  0  0  0
    2.4092   -8.0520  -13.1315 H   0  0  0  0  0  0  0  0  0  0  0  0
    0.2424   -7.4144  -11.8129 H   0  0  0  0  0  0  0  0  0  0  0  0
    0.0208   -4.7688  -11.8061 H   0  0  0  0  0  0  0  0  0  0  0  0
    2.0519   -3.7735  -13.1228 H   0  0  0  0  0  0  0  0  0  0  0  0
    1.7497   -5.9494  -14.6007 H   0  0  0  0  0  0  0  0  0  0  0  0
    3.4721   -5.8065  -14.1690 H   0  0  0  0  0  0  0  0  0  0  0  0
    4.1014   -4.4633  -11.8874 H   0  0  0  0  0  0  0  0  0  0  0  0
  1  2  2  0  0  0  0
  2  3  1  0  0  0  0
  3  4  2  0  0  0  0
  3  5  1  0  0  0  0
  5  6  2  0  0  0  0
  6  7  1  0  0  0  0
  7  8  2  0  0  0  0
  8  9  1  0  0  0  0
  9 10  2  0  0  0  0
 10 11  1  0  0  0  0
 11 12  2  0  0  0  0
 12 13  1  0  0  0  0
 13 14  3  0  0  0  0
 12 15  1  0  0  0  0
 15 16  3  0  0  0  0
  8 17  1  0  0  0  0
 17 18  1  0  0  0  0
 18 19  1  0  0  0  0
 19 20  2  0  0  0  0
 20 21  1  0  0  0  0
 21 22  1  0  0  0  0
 21 23  1  0  0  0  0
  1 24  1  0  0  0  0
 24 25  2  0  0  0  0
 25 26  1  0  0  0  0
 26 27  1  0  0  0  0
 27 28  2  0  0  0  0
 28 29  2  0  0  0  0
 26 30  2  0  0  0  0
 30 31  1  0  0  0  0
 31 32  2  0  0  0  0
 32 33  1  0  0  0  0
 33 34  1  0  0  0  0
 34 35  2  0  0  0  0
 30 36  1  0  0  0  0
 36 37  2  0  0  0  0
 37 38  1  0  0  0  0
 38 39  1  0  0  0  0
 39 40  2  0  0  0  0
 40 41  1  0  0  0  0
 41 42  2  0  0  0  0
 42 43  1  0  0  0  0
 43 44  1  0  0  0  0
 42 45  1  0  0  0  0
 45 46  2  0  0  0  0
 38 47  1  0  0  0  0
 47 48  2  0  0  0  0
 48 49  1  0  0  0  0
 49 50  2  0  0  0  0
 50 51  1  0  0  0  0
 51 52  1  0  0  0  0
 50 53  1  0  0  0  0
 53 54  2  0  0  0  0
 37 55  1  0  0  0  0
 55 56  1  0  0  0  0
 56 57  1  0  0  0  0
 57 58  2  0  0  0  0
 58 59  1  0  0  0  0
 59 60  1  0  0  0  0
 60 61  2  0  0  0  0
 61 62  1  0  0  0  0
 62 63  2  0  0  0  0
 63 64  1  0  0  0  0
 64 65  1  0  0  0  0
 63 66  1  0  0  0  0
 66 67  2  0  0  0  0
 59 68  1  0  0  0  0
 68 69  2  0  0  0  0
 69 70  1  0  0  0  0
 70 71  2  0  0  0  0
 71 72  1  0  0  0  0
 72 73  1  0  0  0  0
 71 74  1  0  0  0  0
 74 75  2  0  0  0  0
 58 76  1  0  0  0  0
 76 77  1  0  0  0  0
 57 78  1  0  0  0  0
 78 79  2  0  0  0  0
 79 80  1  0  0  0  0
 80 81  2  0  0  0  0
 81 82  1  0  0  0  0
 82 83  1  0  0  0  0
 83 84  2  0  0  0  0
 83 85  1  0  0  0  0
 85 86  1  0  0  0  0
 86 87  1  0  0  0  0
 85 88  1  0  0  0  0
 88 89  2  0  0  0  0
 88 90  1  0  0  0  0
 81 91  1  0  0  0  0
 91 92  2  0  0  0  0
 92 93  1  0  0  0  0
 93 94  2  0  0  0  0
 93 95  1  0  0  0  0
 95 96  2  0  0  0  0
 96 97  1  0  0  0  0
 97 98  2  0  0  0  0
 98 99  1  0  0  0  0
 99100  2  0  0  0  0
100101  1  0  0  0  0
101102  2  0  0  0  0
102103  1  0  0  0  0
103104  3  0  0  0  0
102105  1  0  0  0  0
105106  3  0  0  0  0
 98107  1  0  0  0  0
107108  1  0  0  0  0
108109  1  0  0  0  0
109110  2  0  0  0  0
110111  1  0  0  0  0
111112  1  0  0  0  0
111113  1  0  0  0  0
 11  2  1  0  0  0  0
 23 17  1  0  0  0  0
 35 24  1  0  0  0  0
 77 36  1  0  0  0  0
 90 78  1  0  0  0  0
101 92  1  0  0  0  0
113107  1  0  0  0  0
 10  5  1  0  0  0  0
 22 18  1  0  0  0  0
 29 25  1  0  0  0  0
 35 31  1  0  0  0  0
 46 39  1  0  0  0  0
 54 47  1  0  0  0  0
 76 55  2  0  0  0  0
 90 82  2  0  0  0  0
100 95  1  0  0  0  0
112108  1  0  0  0  0
 23  7  1  0  0  0  0
 67 60  1  0  0  0  0
 75 68  1  0  0  0  0
113 97  1  0  0  0  0
  1114  1  0  0  0  0
  6115  1  0  0  0  0
  9116  1  0  0  0  0
 17117  1  0  0  0  0
 18118  1  0  0  0  0
 19119  1  0  0  0  0
 20120  1  0  0  0  0
 21121  1  0  0  0  0
 22122  1  0  0  0  0
 22123  1  0  0  0  0
 23124  1  0  0  0  0
 40125  1  0  0  0  0
 41126  1  0  0  0  0
 44127  1  0  0  0  0
 44128  1  0  0  0  0
 44129  1  0  0  0  0
 45130  1  0  0  0  0
 46131  1  0  0  0  0
 48132  1  0  0  0  0
 49133  1  0  0  0  0
 52134  1  0  0  0  0
 52135  1  0  0  0  0
 52136  1  0  0  0  0
 53137  1  0  0  0  0
 54138  1  0  0  0  0
 61139  1  0  0  0  0
 62140  1  0  0  0  0
 65141  1  0  0  0  0
 65142  1  0  0  0  0
 65143  1  0  0  0  0
 66144  1  0  0  0  0
 67145  1  0  0  0  0
 69146  1  0  0  0  0
 70147  1  0  0  0  0
 73148  1  0  0  0  0
 73149  1  0  0  0  0
 73150  1  0  0  0  0
 74151  1  0  0  0  0
 75152  1  0  0  0  0
 86153  1  0  0  0  0
 86154  1  0  0  0  0
 87155  1  0  0  0  0
 87156  1  0  0  0  0
 87157  1  0  0  0  0
 91158  1  0  0  0  0
 96159  1  0  0  0  0
 99160  1  0  0  0  0
107161  1  0  0  0  0
108162  1  0  0  0  0
109163  1  0  0  0  0
110164  1  0  0  0  0
111165  1  0  0  0  0
112166  1  0  0  0  0
112167  1  0  0  0  0
113168  1  0  0  0  0
M  END
