237

C          7.13760       -3.07600       -3.43110
C          8.24650       -2.55150       -2.79520
C          8.15490       -1.60660       -1.67480
O          7.15430       -1.26290       -1.06540
C          9.50750       -1.04570       -1.50710
C          9.89940       -0.06520       -0.60090
C         11.23090        0.26800       -0.68500
C         12.10430       -0.32400       -1.60530
C         11.72760       -1.29530       -2.50480
C         10.37950       -1.64790       -2.43510
C          9.61450       -2.61280       -3.22250
C         10.12910       -3.50780       -4.12870
C         11.48570       -3.59450       -4.49230
N         12.57310       -3.72760       -4.83850
C          9.36450       -4.50730       -4.75760
N          8.82340       -5.37970       -5.27570
C         13.27540        0.51160       -1.15220
C         13.68910        1.71310       -2.03810
C         12.44970        2.15060       -2.77840
C         11.62750        2.70620       -1.89840
C         12.29550        2.65330       -0.54700
C         13.76570        2.81210       -0.96590
C         12.30370        1.16490       -0.11940
C          5.87740       -3.16180       -2.84200
C          5.52590       -3.23410       -1.47230
N          6.31460       -3.74000       -0.49570
C          7.53310       -4.39460       -0.77080
C          8.68640       -4.00160       -0.09440
C          9.89870       -4.57650       -0.40800
C          9.97940       -5.56880       -1.38420
S         11.58830       -6.17080       -1.76210
C         11.32770       -7.29590       -3.16120
C          8.81480       -6.01770       -1.99970
C          7.60440       -5.42780       -1.69890
C          5.93800       -3.68570        0.86740
C          5.73190       -2.47610        1.51640
C          5.35000       -2.46420        2.84510
C          5.14940       -3.65670        3.52590
S          4.59480       -3.73580        5.20020
C          3.75370       -2.14220        5.43380
C          5.40860       -4.86790        2.88700
C          5.80980       -4.88220        1.56990
C          4.17070       -2.86610       -1.29980
S          3.18880       -2.44540        0.06330
C          1.85830       -2.00190       -0.99180
C          2.15610       -2.21710       -2.33290
N          1.29550       -2.01530       -3.41730
C          0.69810       -0.77630       -3.63540
C         -0.57100       -0.67750       -4.20590
C         -1.20450        0.54340       -4.31100
C         -0.58520        1.69510       -3.84590
S         -1.35240        3.28770       -3.84720
C         -2.78840        3.07860       -4.93850
C          0.70180        1.61060       -3.32000
C          1.34010        0.39290       -3.22650
C          1.03020       -3.12780       -4.22640
C          0.86800       -2.99640       -5.60550
C          0.60620       -4.10450       -6.37970
C          0.51430       -5.37010       -5.80160
S          0.16880       -6.71500       -6.89410
C         -0.04120       -8.13370       -5.78190
C          0.69260       -5.50760       -4.43290
C          0.94290       -4.39440       -3.65550
C          3.47630       -2.68070       -2.48890
S          4.45190       -2.96420       -3.88150
C          0.63110       -1.52410       -0.45810
C          0.38170       -0.82320        0.71640
N          1.30800       -0.35390        1.63770
C          0.92670       -0.42070        2.99000
C          1.07430        0.67070        3.84010
C          0.70930        0.58190        5.16920
C          0.17900       -0.60090        5.66790
S         -0.29980       -0.84540        7.34760
C          0.05460        0.74670        8.14360
C          0.00920       -1.68950        4.81370
C          0.38010       -1.60270        3.49110
C          2.50030        0.26680        1.26250
C          2.65660        0.82630       -0.00360
C          3.86940        1.35240       -0.40190
C          4.95050        1.35740        0.46950
S          6.54590        1.98580        0.05070
C          6.58150        1.82990       -1.75550
C          4.77640        0.87300        1.76270
C          3.57340        0.32930        2.15270
C         -1.00150       -0.55930        0.85620
S         -1.94160        0.34150        1.98850
C         -3.37920        0.17650        0.97720
C         -3.12070       -0.54640       -0.18550
N         -3.97070       -0.78840       -1.25740
C         -4.71770        0.23550       -1.84920
C         -4.37150        1.57640       -1.69580
C         -5.14080        2.57250       -2.26560
C         -6.26170        2.24660       -3.01710
S         -7.28140        3.44900       -3.81360
C         -7.02920        4.92940       -2.79490
C         -6.59880        0.90700       -3.19470
C         -5.84840       -0.08500       -2.60630
C         -3.75230       -1.98410       -1.96950
C         -3.65590       -1.99410       -3.35780
C         -3.37600       -3.16070       -4.04000
C         -3.18690       -4.34670       -3.34370
S         -2.78850       -5.87900       -4.11680
C         -3.01800       -5.54370       -5.88560
C         -3.30480       -4.34840       -1.95530
C         -3.58800       -3.18430       -1.27590
C         -1.77800       -0.99390       -0.20270
S         -0.83910       -1.84020       -1.37300
C         -4.54930        0.84020        1.43390
C         -5.80870        0.89870        0.89970
C         -6.67560        1.77720        1.58480
C         -7.98900        2.13480        1.21730
C         -8.62410        1.56140        0.04730
C         -8.67790        0.25520       -0.34740
C         -9.37090        0.07120       -1.56050
C         -9.83200        1.23060       -2.10420
C        -10.58600        1.43590       -3.37130
C        -11.98570        1.99180       -3.10780
S         -9.43490        2.58460       -1.10320
C         -8.60740        3.09990        1.99940
C         -8.00820        3.66920        3.15740
C         -6.70420        3.27400        3.55280
C         -6.10660        3.77730        4.76660
C         -6.71380        4.04310        5.96630
C         -5.81830        4.48660        6.95600
C         -4.52900        4.57290        6.52460
C         -3.31560        4.97690        7.28800
C         -2.35720        3.79790        7.46840
S         -4.39350        4.08490        4.86870
C         -6.05980        2.37430        2.71440
S         -4.41690        1.81960        2.88450
C         -8.82520        4.64270        3.75210
C        -10.04100        4.81280        3.12530
S        -10.18890        3.75990        1.71910
C        -11.10720        5.69660        3.37050
C        -11.38360        6.48230        4.46130
C        -10.76300        6.42660        5.80030
O         -9.79270        5.80070        6.17330
C        -11.61210        7.27870        6.66440
C        -11.47800        7.51540        8.01810
C        -12.40710        8.34830        8.61970
F        -12.31580        8.60680        9.93060
C        -13.43800        8.91890        7.87290
F        -14.32580        9.71380        8.48150
C        -13.57030        8.68290        6.51260
C        -12.64240        7.85230        5.90350
C        -12.49450        7.41490        4.51640
C        -13.23190        7.88450        3.46080
C        -13.02350        7.56560        2.10130
N        -12.91100        7.38810        0.97230
C        -14.29310        8.80560        3.58940
N        -15.16960        9.54580        3.62780
H          7.20560       -3.33900       -4.47990
H          9.19320        0.37380        0.08740
H         12.40770       -1.74050       -3.21220
H         14.13480       -0.03580       -0.77020
H         14.57440        1.54240       -2.64480
H         12.27960        1.96460       -3.82280
H         10.63290        3.07960       -2.05960
H         11.91100        3.33750        0.20480
H         14.47090        2.58940       -0.16640
H         13.98140        3.79440       -1.38370
H         12.52520        1.03790        0.93850
H          8.62640       -3.22860        0.65670
H         10.80130       -4.25310        0.08710
H         10.77730       -8.17410       -2.83600
H         12.32240       -7.58280       -3.48780
H         10.81210       -6.78030       -3.96590
H          8.83880       -6.81570       -2.72270
H          6.70910       -5.76760       -2.19750
H          5.89420       -1.55330        0.98100
H          5.22180       -1.51910        3.34310
H          4.47780       -1.33830        5.53130
H          3.07430       -1.96970        4.60430
H          3.18830       -2.23900        6.35560
H          5.28130       -5.78990        3.43270
H          6.00620       -5.81860        1.06890
H         -1.07890       -1.57250       -4.52970
H         -2.19370        0.58330       -4.73810
H         -3.53840        2.45170       -4.46320
H         -3.18930        4.07620       -5.08890
H         -2.46710        2.66460       -5.88950
H          1.19240        2.51220       -2.98530
H          2.34490        0.33110       -2.83660
H          0.95460       -2.02290       -6.06400
H          0.48090       -4.00580       -7.44760
H         -0.81810       -7.91910       -5.05330
H         -0.34420       -8.96030       -6.41720
H          0.90220       -8.36960       -5.29830
H          0.62690       -6.47060       -3.95460
H          1.06040       -4.50770       -2.58780
H          1.47510        1.59610        3.45440
H          0.83580        1.44610        5.80060
H          1.11690        0.96500        8.08430
H         -0.23760        0.62350        9.18190
H         -0.53940        1.53100        7.68450
H         -0.40690       -2.60450        5.20600
H          0.25950       -2.45210        2.83470
H          1.81540        0.85370       -0.67890
H          3.95820        1.76930       -1.39310
H          5.95630        2.58840       -2.21840
H          7.61690        1.97750       -2.04780
H          6.26270        0.82730       -2.02360
H          5.60700        0.91490        2.45110
H          3.45580       -0.06010        3.15150
H         -3.48570        1.84500       -1.14100
H         -4.84370        3.60010       -2.12960
H         -6.06360        5.37920       -3.00780
H         -7.82300        5.61680       -3.06920
H         -7.11860        4.65900       -1.74710
H         -7.46510        0.65620       -3.78620
H         -6.13670       -1.11900       -2.72200
H         -3.78340       -1.07500       -3.90850
H         -3.29140       -3.12620       -5.11440
H         -4.02350       -5.17190       -6.05880
H         -2.88490       -6.49590       -6.38930
H         -2.26500       -4.84230       -6.23370
H         -3.17100       -5.27430       -1.41760
H         -3.67650       -3.19300       -0.19950
H         -6.11690        0.34910        0.03350
H         -8.27230       -0.55340        0.23480
H         -9.51850       -0.89260       -2.01540
H        -10.03650        2.13560       -4.00790
H        -10.65830        0.48010       -3.89530
H        -12.55570        1.30560       -2.48520
H        -11.92000        2.94900       -2.59580
H        -12.51710        2.13460       -4.04520
H         -7.76070        3.88880        6.15190
H         -6.12350        4.73530        7.95670
H         -3.62390        5.35700        8.26400
H         -2.79700        5.77920        6.75660
H         -2.04360        3.42240        6.49610
H         -1.47830        4.11050        8.02800
H         -2.84980        2.99270        8.00970
H         -8.52590        5.23690        4.59310
H        -11.83080        5.72750        2.56400
H        -10.68010        7.07040        8.59080
H        -14.38620        9.14520        5.98210
