
  xtb     02052222573D
 energy: -305.255629660145 gnorm: 0.000427351296 xtb: 6.4.1 (unknown)
184204  0     0  0            999 V2000
   -3.2246   -1.7452    6.5568 C   0  0  0  0  0  0  0  0  0  0  0  0
   -3.1525   -0.8682    7.6170 C   0  0  0  0  0  0  0  0  0  0  0  0
   -2.6939    0.5264    7.5093 C   0  0  0  0  0  0  0  0  0  0  0  0
   -2.3252    1.1036    6.5018 O   0  0  0  0  0  0  0  0  0  0  0  0
   -2.9095    1.1231    8.8438 C   0  0  0  0  0  0  0  0  0  0  0  0
   -2.5985    2.4178    9.2481 C   0  0  0  0  0  0  0  0  0  0  0  0
   -2.8799    2.6756   10.5691 C   0  0  0  0  0  0  0  0  0  0  0  0
   -3.4523    1.7245   11.4223 C   0  0  0  0  0  0  0  0  0  0  0  0
   -3.7780    0.4472   11.0326 C   0  0  0  0  0  0  0  0  0  0  0  0
   -3.4810    0.1600    9.6983 C   0  0  0  0  0  0  0  0  0  0  0  0
   -3.6302   -1.0872    8.9539 C   0  0  0  0  0  0  0  0  0  0  0  0
   -3.9862   -2.3046    9.4831 C   0  0  0  0  0  0  0  0  0  0  0  0
   -3.9223   -3.5208    8.7748 C   0  0  0  0  0  0  0  0  0  0  0  0
   -3.8405   -4.5561    8.2830 N   0  0  0  0  0  0  0  0  0  0  0  0
   -4.3609   -2.5183   10.8216 C   0  0  0  0  0  0  0  0  0  0  0  0
   -4.6512   -2.7747   11.9040 N   0  0  0  0  0  0  0  0  0  0  0  0
   -3.4577    2.6656   12.6017 C   0  0  0  0  0  0  0  0  0  0  0  0
   -2.3641    2.4417   13.6670 C   0  0  0  0  0  0  0  0  0  0  0  0
   -2.3053    3.7570   14.4091 C   0  0  0  0  0  0  0  0  0  0  0  0
   -1.7503    4.6515   13.6012 C   0  0  0  0  0  0  0  0  0  0  0  0
   -1.4263    3.9556   12.2987 C   0  0  0  0  0  0  0  0  0  0  0  0
   -1.0875    2.5551   12.8252 C   0  0  0  0  0  0  0  0  0  0  0  0
   -2.8087    3.7234   11.6523 C   0  0  0  0  0  0  0  0  0  0  0  0
   -2.4325   -1.7117    5.4062 C   0  0  0  0  0  0  0  0  0  0  0  0
   -1.1605   -1.1585    5.1545 C   0  0  0  0  0  0  0  0  0  0  0  0
   -0.2931   -0.5836    6.0412 N   0  0  0  0  0  0  0  0  0  0  0  0
   -0.2790   -0.8057    7.4182 C   0  0  0  0  0  0  0  0  0  0  0  0
    0.0921    0.2387    8.2719 C   0  0  0  0  0  0  0  0  0  0  0  0
    0.0633    0.0694    9.6351 C   0  0  0  0  0  0  0  0  0  0  0  0
   -0.3391   -1.1447   10.1930 C   0  0  0  0  0  0  0  0  0  0  0  0
   -0.4356   -1.2014   11.9493 S   0  0  0  0  0  0  0  0  0  0  0  0
   -0.9382   -2.9029   12.3239 C   0  0  0  0  0  0  0  0  0  0  0  0
   -0.6464   -2.2057    9.3500 C   0  0  0  0  0  0  0  0  0  0  0  0
   -0.6157   -2.0365    7.9787 C   0  0  0  0  0  0  0  0  0  0  0  0
    0.6742    0.3075    5.5127 C   0  0  0  0  0  0  0  0  0  0  0  0
    2.0264    0.0832    5.7375 C   0  0  0  0  0  0  0  0  0  0  0  0
    2.9751    0.9075    5.1623 C   0  0  0  0  0  0  0  0  0  0  0  0
    2.5763    1.9679    4.3584 C   0  0  0  0  0  0  0  0  0  0  0  0
    3.6913    3.0487    3.5241 S   0  0  0  0  0  0  0  0  0  0  0  0
    5.3194    2.2885    3.7836 C   0  0  0  0  0  0  0  0  0  0  0  0
    1.2169    2.2238    4.1788 C   0  0  0  0  0  0  0  0  0  0  0  0
    0.2718    1.4018    4.7494 C   0  0  0  0  0  0  0  0  0  0  0  0
   -0.8086   -1.3467    3.7949 C   0  0  0  0  0  0  0  0  0  0  0  0
    0.5909   -0.9406    2.8602 S   0  0  0  0  0  0  0  0  0  0  0  0
   -0.1246   -1.6597    1.4345 C   0  0  0  0  0  0  0  0  0  0  0  0
   -1.3427   -2.2665    1.6903 C   0  0  0  0  0  0  0  0  0  0  0  0
   -2.0609   -3.0386    0.7967 N   0  0  0  0  0  0  0  0  0  0  0  0
   -1.4084   -3.7785   -0.1932 C   0  0  0  0  0  0  0  0  0  0  0  0
   -0.1502   -4.3295    0.0447 C   0  0  0  0  0  0  0  0  0  0  0  0
    0.5405   -4.9757   -0.9594 C   0  0  0  0  0  0  0  0  0  0  0  0
   -0.0201   -5.0959   -2.2231 C   0  0  0  0  0  0  0  0  0  0  0  0
    0.8126   -5.8839   -3.5667 S   0  0  0  0  0  0  0  0  0  0  0  0
    2.5586   -5.5449   -3.1937 C   0  0  0  0  0  0  0  0  0  0  0  0
   -1.3027   -4.6088   -2.4500 C   0  0  0  0  0  0  0  0  0  0  0  0
   -1.9903   -3.9577   -1.4490 C   0  0  0  0  0  0  0  0  0  0  0  0
   -3.4618   -2.9845    0.8464 C   0  0  0  0  0  0  0  0  0  0  0  0
   -4.1067   -1.7746    1.0830 C   0  0  0  0  0  0  0  0  0  0  0  0
   -5.4841   -1.7143    1.1697 C   0  0  0  0  0  0  0  0  0  0  0  0
   -6.2393   -2.8682    1.0145 C   0  0  0  0  0  0  0  0  0  0  0  0
   -8.0024   -2.9126    1.0983 S   0  0  0  0  0  0  0  0  0  0  0  0
   -8.4420   -1.2835    1.7693 C   0  0  0  0  0  0  0  0  0  0  0  0
   -5.5973   -4.0791    0.7581 C   0  0  0  0  0  0  0  0  0  0  0  0
   -4.2246   -4.1401    0.6782 C   0  0  0  0  0  0  0  0  0  0  0  0
   -1.7265   -2.0626    3.0402 C   0  0  0  0  0  0  0  0  0  0  0  0
   -3.0822   -2.5512    3.9852 S   0  0  0  0  0  0  0  0  0  0  0  0
    0.5663   -1.5169    0.1790 C   0  0  0  0  0  0  0  0  0  0  0  0
   -0.1236   -1.2439   -1.0205 C   0  0  0  0  0  0  0  0  0  0  0  0
   -1.4299   -1.0810   -1.2803 N   0  0  0  0  0  0  0  0  0  0  0  0
   -1.4700   -0.7933   -2.5497 N   0  0  0  0  0  0  0  0  0  0  0  0
   -2.7123   -0.5680   -3.2332 C   0  0  0  0  0  0  0  0  0  0  0  0
   -2.8263   -1.4979   -4.4340 C   0  0  0  0  0  0  0  0  0  0  0  0
   -0.3330   -0.7297   -3.1772 N   0  0  0  0  0  0  0  0  0  0  0  0
    0.5792   -1.0179   -2.2393 C   0  0  0  0  0  0  0  0  0  0  0  0
    1.9852   -1.0540   -2.3165 C   0  0  0  0  0  0  0  0  0  0  0  0
    2.6109   -1.3554   -1.1228 C   0  0  0  0  0  0  0  0  0  0  0  0
    1.9443   -1.5645    0.0869 C   0  0  0  0  0  0  0  0  0  0  0  0
    3.9571   -1.4916   -1.0961 F   0  0  0  0  0  0  0  0  0  0  0  0
    2.6800   -0.7351   -3.5617 C   0  0  0  0  0  0  0  0  0  0  0  0
    3.6962    0.2329   -3.5952 C   0  0  0  0  0  0  0  0  0  0  0  0
    4.1934    1.0377   -2.5263 C   0  0  0  0  0  0  0  0  0  0  0  0
    5.1629    1.8998   -2.8976 C   0  0  0  0  0  0  0  0  0  0  0  0
    5.9260    2.8823   -2.0759 C   0  0  0  0  0  0  0  0  0  0  0  0
    5.6204    2.7881   -0.5856 C   0  0  0  0  0  0  0  0  0  0  0  0
    5.5098    1.7961   -4.6130 S   0  0  0  0  0  0  0  0  0  0  0  0
    4.3224    0.5439   -4.8185 C   0  0  0  0  0  0  0  0  0  0  0  0
    3.9504   -0.0229   -6.0413 C   0  0  0  0  0  0  0  0  0  0  0  0
    2.9575   -1.0217   -5.9945 C   0  0  0  0  0  0  0  0  0  0  0  0
    2.3378   -1.3400   -4.7650 C   0  0  0  0  0  0  0  0  0  0  0  0
    1.1701   -2.6136   -4.9635 S   0  0  0  0  0  0  0  0  0  0  0  0
    1.5439   -2.7430   -6.6591 C   0  0  0  0  0  0  0  0  0  0  0  0
    0.8623   -3.7670   -7.4978 C   0  0  0  0  0  0  0  0  0  0  0  0
    1.4555   -5.1585   -7.2662 C   0  0  0  0  0  0  0  0  0  0  0  0
    2.4949   -1.8587   -7.0441 C   0  0  0  0  0  0  0  0  0  0  0  0
    4.5973    0.4152   -7.2437 C   0  0  0  0  0  0  0  0  0  0  0  0
    4.0006    0.6761   -8.4358 C   0  0  0  0  0  0  0  0  0  0  0  0
    2.5397    0.8626   -8.6402 C   0  0  0  0  0  0  0  0  0  0  0  0
    1.6381    0.6289   -7.8644 O   0  0  0  0  0  0  0  0  0  0  0  0
    2.4068    1.4924   -9.9691 C   0  0  0  0  0  0  0  0  0  0  0  0
    1.2251    1.9197  -10.5705 C   0  0  0  0  0  0  0  0  0  0  0  0
    1.4018    2.5037  -11.8014 C   0  0  0  0  0  0  0  0  0  0  0  0
    2.6632    2.6553  -12.3936 C   0  0  0  0  0  0  0  0  0  0  0  0
    3.8363    2.2350  -11.8145 C   0  0  0  0  0  0  0  0  0  0  0  0
    3.6780    1.6375  -10.5603 C   0  0  0  0  0  0  0  0  0  0  0  0
    4.6778    1.0850   -9.6540 C   0  0  0  0  0  0  0  0  0  0  0  0
    6.0067    0.9022   -9.9296 C   0  0  0  0  0  0  0  0  0  0  0  0
    6.6338    1.2923  -11.1309 C   0  0  0  0  0  0  0  0  0  0  0  0
    7.2028    1.5903  -12.0827 N   0  0  0  0  0  0  0  0  0  0  0  0
    6.9215    0.2563   -9.0702 C   0  0  0  0  0  0  0  0  0  0  0  0
    7.7197   -0.2845   -8.4465 N   0  0  0  0  0  0  0  0  0  0  0  0
    2.0978    3.3445  -13.6098 C   0  0  0  0  0  0  0  0  0  0  0  0
    2.2489    4.8833  -13.7003 C   0  0  0  0  0  0  0  0  0  0  0  0
    2.3381    5.3907  -12.2825 C   0  0  0  0  0  0  0  0  0  0  0  0
    1.1438    5.2454  -11.7243 C   0  0  0  0  0  0  0  0  0  0  0  0
    0.2252    4.6369  -12.7550 C   0  0  0  0  0  0  0  0  0  0  0  0
    0.7985    5.2673  -14.0342 C   0  0  0  0  0  0  0  0  0  0  0  0
    0.6924    3.1732  -12.9519 C   0  0  0  0  0  0  0  0  0  0  0  0
   -3.9701   -2.5313    6.5846 H   0  0  0  0  0  0  0  0  0  0  0  0
   -2.1650    3.1258    8.5588 H   0  0  0  0  0  0  0  0  0  0  0  0
   -4.2279   -0.2731   11.6956 H   0  0  0  0  0  0  0  0  0  0  0  0
   -4.4340    2.8829   13.0312 H   0  0  0  0  0  0  0  0  0  0  0  0
   -2.4881    1.5439   14.2655 H   0  0  0  0  0  0  0  0  0  0  0  0
   -2.7100    3.9110   15.3922 H   0  0  0  0  0  0  0  0  0  0  0  0
   -1.6002    5.7012   13.7742 H   0  0  0  0  0  0  0  0  0  0  0  0
   -0.6976    4.4402   11.6539 H   0  0  0  0  0  0  0  0  0  0  0  0
   -1.0053    1.7917   12.0547 H   0  0  0  0  0  0  0  0  0  0  0  0
   -0.1879    2.5501   13.4382 H   0  0  0  0  0  0  0  0  0  0  0  0
   -3.3476    4.6489   11.4567 H   0  0  0  0  0  0  0  0  0  0  0  0
    0.3741    1.1917    7.8516 H   0  0  0  0  0  0  0  0  0  0  0  0
    0.3337    0.8841   10.2889 H   0  0  0  0  0  0  0  0  0  0  0  0
   -0.9527   -2.9667   13.4075 H   0  0  0  0  0  0  0  0  0  0  0  0
   -0.2103   -3.6019   11.9231 H   0  0  0  0  0  0  0  0  0  0  0  0
   -1.9342   -3.0957   11.9365 H   0  0  0  0  0  0  0  0  0  0  0  0
   -0.9270   -3.1692    9.7448 H   0  0  0  0  0  0  0  0  0  0  0  0
   -0.8594   -2.8731    7.3412 H   0  0  0  0  0  0  0  0  0  0  0  0
    2.3355   -0.7495    6.3523 H   0  0  0  0  0  0  0  0  0  0  0  0
    4.0184    0.7044    5.3410 H   0  0  0  0  0  0  0  0  0  0  0  0
    5.3082    1.2647    3.4223 H   0  0  0  0  0  0  0  0  0  0  0  0
    6.0138    2.8798    3.1949 H   0  0  0  0  0  0  0  0  0  0  0  0
    5.5946    2.3365    4.8332 H   0  0  0  0  0  0  0  0  0  0  0  0
    0.9175    3.0693    3.5791 H   0  0  0  0  0  0  0  0  0  0  0  0
   -0.7826    1.5915    4.6238 H   0  0  0  0  0  0  0  0  0  0  0  0
    0.2933   -4.2519    1.0258 H   0  0  0  0  0  0  0  0  0  0  0  0
    1.5139   -5.3881   -0.7459 H   0  0  0  0  0  0  0  0  0  0  0  0
    2.6625   -4.5046   -2.9009 H   0  0  0  0  0  0  0  0  0  0  0  0
    3.1046   -5.7291   -4.1136 H   0  0  0  0  0  0  0  0  0  0  0  0
    2.9187   -6.2116   -2.4156 H   0  0  0  0  0  0  0  0  0  0  0  0
   -1.7426   -4.7351   -3.4275 H   0  0  0  0  0  0  0  0  0  0  0  0
   -2.9749   -3.5580   -1.6384 H   0  0  0  0  0  0  0  0  0  0  0  0
   -3.5213   -0.8731    1.1864 H   0  0  0  0  0  0  0  0  0  0  0  0
   -5.9528   -0.7606    1.3509 H   0  0  0  0  0  0  0  0  0  0  0  0
   -8.2389   -0.5062    1.0381 H   0  0  0  0  0  0  0  0  0  0  0  0
   -9.5080   -1.3274    1.9698 H   0  0  0  0  0  0  0  0  0  0  0  0
   -7.8980   -1.1100    2.6929 H   0  0  0  0  0  0  0  0  0  0  0  0
   -6.1915   -4.9715    0.6363 H   0  0  0  0  0  0  0  0  0  0  0  0
   -3.7320   -5.0831    0.4949 H   0  0  0  0  0  0  0  0  0  0  0  0
   -2.7412    0.4741   -3.5663 H   0  0  0  0  0  0  0  0  0  0  0  0
   -3.5072   -0.7404   -2.5053 H   0  0  0  0  0  0  0  0  0  0  0  0
   -3.7483   -1.2969   -4.9718 H   0  0  0  0  0  0  0  0  0  0  0  0
   -1.9821   -1.3377   -5.0992 H   0  0  0  0  0  0  0  0  0  0  0  0
   -2.8240   -2.5359   -4.1123 H   0  0  0  0  0  0  0  0  0  0  0  0
    2.5372   -1.7769    0.9635 H   0  0  0  0  0  0  0  0  0  0  0  0
    3.8192    0.9713   -1.5223 H   0  0  0  0  0  0  0  0  0  0  0  0
    6.9951    2.7181   -2.2422 H   0  0  0  0  0  0  0  0  0  0  0  0
    5.7010    3.8921   -2.4347 H   0  0  0  0  0  0  0  0  0  0  0  0
    5.8371    1.7889   -0.2154 H   0  0  0  0  0  0  0  0  0  0  0  0
    4.5757    3.0151   -0.3881 H   0  0  0  0  0  0  0  0  0  0  0  0
    6.2332    3.5010   -0.0393 H   0  0  0  0  0  0  0  0  0  0  0  0
    0.9719   -3.4891   -8.5483 H   0  0  0  0  0  0  0  0  0  0  0  0
   -0.2023   -3.7896   -7.2553 H   0  0  0  0  0  0  0  0  0  0  0  0
    1.2972   -5.4669   -6.2359 H   0  0  0  0  0  0  0  0  0  0  0  0
    2.5234   -5.1539   -7.4731 H   0  0  0  0  0  0  0  0  0  0  0  0
    0.9776   -5.8828   -7.9206 H   0  0  0  0  0  0  0  0  0  0  0  0
    2.8701   -1.8065   -8.0503 H   0  0  0  0  0  0  0  0  0  0  0  0
    5.6538    0.6379   -7.1347 H   0  0  0  0  0  0  0  0  0  0  0  0
    0.2747    1.7860  -10.0777 H   0  0  0  0  0  0  0  0  0  0  0  0
    4.8002    2.3628  -12.2784 H   0  0  0  0  0  0  0  0  0  0  0  0
    2.2781    2.8536  -14.5641 H   0  0  0  0  0  0  0  0  0  0  0  0
    3.0261    5.2210  -14.3806 H   0  0  0  0  0  0  0  0  0  0  0  0
    3.2467    5.7388  -11.8271 H   0  0  0  0  0  0  0  0  0  0  0  0
    0.8554    5.4473  -10.7093 H   0  0  0  0  0  0  0  0  0  0  0  0
   -0.8408    4.7506  -12.5751 H   0  0  0  0  0  0  0  0  0  0  0  0
    0.4273    4.8072  -14.9490 H   0  0  0  0  0  0  0  0  0  0  0  0
    0.6472    6.3449  -14.0768 H   0  0  0  0  0  0  0  0  0  0  0  0
   -0.0454    2.5689  -13.4764 H   0  0  0  0  0  0  0  0  0  0  0  0
  1  2  2  0  0  0  0
  2  3  1  0  0  0  0
  3  4  2  0  0  0  0
  3  5  1  0  0  0  0
  5  6  2  0  0  0  0
  6  7  1  0  0  0  0
  7  8  2  0  0  0  0
  8  9  1  0  0  0  0
  9 10  2  0  0  0  0
 10 11  1  0  0  0  0
 11 12  2  0  0  0  0
 12 13  1  0  0  0  0
 13 14  3  0  0  0  0
 12 15  1  0  0  0  0
 15 16  3  0  0  0  0
  8 17  1  0  0  0  0
 17 18  1  0  0  0  0
 18 19  1  0  0  0  0
 19 20  2  0  0  0  0
 20 21  1  0  0  0  0
 21 22  1  0  0  0  0
 21 23  1  0  0  0  0
  1 24  1  0  0  0  0
 24 25  2  0  0  0  0
 25 26  1  0  0  0  0
 26 27  1  0  0  0  0
 27 28  2  0  0  0  0
 28 29  1  0  0  0  0
 29 30  2  0  0  0  0
 30 31  1  0  0  0  0
 31 32  1  0  0  0  0
 30 33  1  0  0  0  0
 33 34  2  0  0  0  0
 26 35  1  0  0  0  0
 35 36  2  0  0  0  0
 36 37  1  0  0  0  0
 37 38  2  0  0  0  0
 38 39  1  0  0  0  0
 39 40  1  0  0  0  0
 38 41  1  0  0  0  0
 41 42  2  0  0  0  0
 25 43  1  0  0  0  0
 43 44  1  0  0  0  0
 44 45  1  0  0  0  0
 45 46  2  0  0  0  0
 46 47  1  0  0  0  0
 47 48  1  0  0  0  0
 48 49  2  0  0  0  0
 49 50  1  0  0  0  0
 50 51  2  0  0  0  0
 51 52  1  0  0  0  0
 52 53  1  0  0  0  0
 51 54  1  0  0  0  0
 54 55  2  0  0  0  0
 47 56  1  0  0  0  0
 56 57  2  0  0  0  0
 57 58  1  0  0  0  0
 58 59  2  0  0  0  0
 59 60  1  0  0  0  0
 60 61  1  0  0  0  0
 59 62  1  0  0  0  0
 62 63  2  0  0  0  0
 46 64  1  0  0  0  0
 64 65  1  0  0  0  0
 45 66  1  0  0  0  0
 66 67  1  0  0  0  0
 67 68  2  0  0  0  0
 68 69  1  0  0  0  0
 69 70  1  0  0  0  0
 70 71  1  0  0  0  0
 69 72  1  0  0  0  0
 72 73  2  0  0  0  0
 73 74  1  0  0  0  0
 74 75  2  0  0  0  0
 75 76  1  0  0  0  0
 75 77  1  0  0  0  0
 74 78  1  0  0  0  0
 78 79  2  0  0  0  0
 79 80  1  0  0  0  0
 80 81  2  0  0  0  0
 81 82  1  0  0  0  0
 82 83  1  0  0  0  0
 81 84  1  0  0  0  0
 84 85  1  0  0  0  0
 85 86  2  0  0  0  0
 86 87  1  0  0  0  0
 87 88  2  0  0  0  0
 88 89  1  0  0  0  0
 89 90  1  0  0  0  0
 90 91  1  0  0  0  0
 91 92  1  0  0  0  0
 90 93  2  0  0  0  0
 86 94  1  0  0  0  0
 94 95  2  0  0  0  0
 95 96  1  0  0  0  0
 96 97  2  0  0  0  0
 96 98  1  0  0  0  0
 98 99  2  0  0  0  0
 99100  1  0  0  0  0
100101  2  0  0  0  0
101102  1  0  0  0  0
102103  2  0  0  0  0
103104  1  0  0  0  0
104105  2  0  0  0  0
105106  1  0  0  0  0
106107  3  0  0  0  0
105108  1  0  0  0  0
108109  3  0  0  0  0
101110  1  0  0  0  0
110111  1  0  0  0  0
111112  1  0  0  0  0
112113  2  0  0  0  0
113114  1  0  0  0  0
114115  1  0  0  0  0
114116  1  0  0  0  0
 11  2  1  0  0  0  0
 23 17  1  0  0  0  0
 65 24  1  0  0  0  0
 76 66  2  0  0  0  0
 88 78  1  0  0  0  0
104 95  1  0  0  0  0
116110  1  0  0  0  0
 10  5  1  0  0  0  0
 22 18  1  0  0  0  0
 34 27  1  0  0  0  0
 42 35  1  0  0  0  0
 64 43  2  0  0  0  0
 73 67  1  0  0  0  0
 85 79  1  0  0  0  0
 93 87  1  0  0  0  0
103 98  1  0  0  0  0
115111  1  0  0  0  0
 23  7  1  0  0  0  0
 55 48  1  0  0  0  0
 63 56  1  0  0  0  0
116100  1  0  0  0  0
  1117  1  0  0  0  0
  6118  1  0  0  0  0
  9119  1  0  0  0  0
 17120  1  0  0  0  0
 18121  1  0  0  0  0
 19122  1  0  0  0  0
 20123  1  0  0  0  0
 21124  1  0  0  0  0
 22125  1  0  0  0  0
 22126  1  0  0  0  0
 23127  1  0  0  0  0
 28128  1  0  0  0  0
 29129  1  0  0  0  0
 32130  1  0  0  0  0
 32131  1  0  0  0  0
 32132  1  0  0  0  0
 33133  1  0  0  0  0
 34134  1  0  0  0  0
 36135  1  0  0  0  0
 37136  1  0  0  0  0
 40137  1  0  0  0  0
 40138  1  0  0  0  0
 40139  1  0  0  0  0
 41140  1  0  0  0  0
 42141  1  0  0  0  0
 49142  1  0  0  0  0
 50143  1  0  0  0  0
 53144  1  0  0  0  0
 53145  1  0  0  0  0
 53146  1  0  0  0  0
 54147  1  0  0  0  0
 55148  1  0  0  0  0
 57149  1  0  0  0  0
 58150  1  0  0  0  0
 61151  1  0  0  0  0
 61152  1  0  0  0  0
 61153  1  0  0  0  0
 62154  1  0  0  0  0
 63155  1  0  0  0  0
 70156  1  0  0  0  0
 70157  1  0  0  0  0
 71158  1  0  0  0  0
 71159  1  0  0  0  0
 71160  1  0  0  0  0
 76161  1  0  0  0  0
 80162  1  0  0  0  0
 82163  1  0  0  0  0
 82164  1  0  0  0  0
 83165  1  0  0  0  0
 83166  1  0  0  0  0
 83167  1  0  0  0  0
 91168  1  0  0  0  0
 91169  1  0  0  0  0
 92170  1  0  0  0  0
 92171  1  0  0  0  0
 92172  1  0  0  0  0
 93173  1  0  0  0  0
 94174  1  0  0  0  0
 99175  1  0  0  0  0
102176  1  0  0  0  0
110177  1  0  0  0  0
111178  1  0  0  0  0
112179  1  0  0  0  0
113180  1  0  0  0  0
114181  1  0  0  0  0
115182  1  0  0  0  0
115183  1  0  0  0  0
116184  1  0  0  0  0
M  END
