
  xtb     02082219183D
 energy: -313.075594698771 gnorm: 0.000479876403 xtb: 6.4.1 (unknown)
186207  0     0  0            999 V2000
   -2.5136    7.6822   -0.1690 C   0  0  0  0  0  0  0  0  0  0  0  0
   -2.9661    8.1973   -1.3625 C   0  0  0  0  0  0  0  0  0  0  0  0
   -3.3396    7.4409   -2.5590 C   0  0  0  0  0  0  0  0  0  0  0  0
   -3.2160    6.2422   -2.7584 O   0  0  0  0  0  0  0  0  0  0  0  0
   -3.9547    8.4093   -3.4852 C   0  0  0  0  0  0  0  0  0  0  0  0
   -4.4454    8.1586   -4.7643 C   0  0  0  0  0  0  0  0  0  0  0  0
   -4.9841    9.2615   -5.3830 C   0  0  0  0  0  0  0  0  0  0  0  0
   -5.0260   10.5240   -4.7786 C   0  0  0  0  0  0  0  0  0  0  0  0
   -4.5267   10.7896   -3.5249 C   0  0  0  0  0  0  0  0  0  0  0  0
   -3.9792    9.6798   -2.8760 C   0  0  0  0  0  0  0  0  0  0  0  0
   -3.3295    9.5787   -1.5702 C   0  0  0  0  0  0  0  0  0  0  0  0
   -3.0987   10.6320   -0.7178 C   0  0  0  0  0  0  0  0  0  0  0  0
   -3.5981   11.9370   -0.8953 C   0  0  0  0  0  0  0  0  0  0  0  0
   -3.9912   13.0160   -0.9353 N   0  0  0  0  0  0  0  0  0  0  0  0
   -2.3114   10.5861    0.4471 C   0  0  0  0  0  0  0  0  0  0  0  0
   -1.6547   10.6646    1.3885 N   0  0  0  0  0  0  0  0  0  0  0  0
   -5.7101   11.1578   -5.9646 C   0  0  0  0  0  0  0  0  0  0  0  0
   -7.2253   11.4184   -5.8288 C   0  0  0  0  0  0  0  0  0  0  0  0
   -7.6938   11.5782   -7.2571 C   0  0  0  0  0  0  0  0  0  0  0  0
   -7.6517   10.3830   -7.8317 C   0  0  0  0  0  0  0  0  0  0  0  0
   -7.1541    9.3952   -6.8013 C   0  0  0  0  0  0  0  0  0  0  0  0
   -7.7583   10.0106   -5.5325 C   0  0  0  0  0  0  0  0  0  0  0  0
   -5.6606    9.7496   -6.6399 C   0  0  0  0  0  0  0  0  0  0  0  0
   -2.1939    6.3744    0.1936 C   0  0  0  0  0  0  0  0  0  0  0  0
   -1.8914    5.9767    1.5203 C   0  0  0  0  0  0  0  0  0  0  0  0
   -2.0217    6.7559    2.6416 N   0  0  0  0  0  0  0  0  0  0  0  0
   -1.1407    6.5467    3.7170 C   0  0  0  0  0  0  0  0  0  0  0  0
   -1.6118    6.5376    5.0295 C   0  0  0  0  0  0  0  0  0  0  0  0
   -0.7401    6.3302    6.0736 C   0  0  0  0  0  0  0  0  0  0  0  0
    0.6188    6.1262    5.8338 C   0  0  0  0  0  0  0  0  0  0  0  0
    1.6313    5.8589    7.2522 S   0  0  0  0  0  0  0  0  0  0  0  0
    3.3051    5.6783    6.5717 C   0  0  0  0  0  0  0  0  0  0  0  0
    1.0919    6.1445    4.5287 C   0  0  0  0  0  0  0  0  0  0  0  0
    0.2175    6.3568    3.4812 C   0  0  0  0  0  0  0  0  0  0  0  0
   -3.0303    7.7269    2.7691 C   0  0  0  0  0  0  0  0  0  0  0  0
   -4.3059    7.4995    2.2481 C   0  0  0  0  0  0  0  0  0  0  0  0
   -5.2523    8.4971    2.2828 C   0  0  0  0  0  0  0  0  0  0  0  0
   -4.9558    9.7327    2.8590 C   0  0  0  0  0  0  0  0  0  0  0  0
   -6.2019   10.9786    2.7719 S   0  0  0  0  0  0  0  0  0  0  0  0
   -5.2655   12.5139    3.0215 C   0  0  0  0  0  0  0  0  0  0  0  0
   -3.7210    9.9260    3.4617 C   0  0  0  0  0  0  0  0  0  0  0  0
   -2.7616    8.9335    3.4084 C   0  0  0  0  0  0  0  0  0  0  0  0
   -1.4556    4.6410    1.5532 C   0  0  0  0  0  0  0  0  0  0  0  0
   -0.9564    3.5708    2.8238 S   0  0  0  0  0  0  0  0  0  0  0  0
   -0.7673    2.2615    1.6639 C   0  0  0  0  0  0  0  0  0  0  0  0
   -1.0075    2.6639    0.3552 C   0  0  0  0  0  0  0  0  0  0  0  0
   -0.7771    1.9097   -0.7812 N   0  0  0  0  0  0  0  0  0  0  0  0
   -1.5725    2.1517   -1.9127 C   0  0  0  0  0  0  0  0  0  0  0  0
   -2.9411    2.3639   -1.7714 C   0  0  0  0  0  0  0  0  0  0  0  0
   -3.7150    2.6953   -2.8644 C   0  0  0  0  0  0  0  0  0  0  0  0
   -3.1285    2.8155   -4.1160 C   0  0  0  0  0  0  0  0  0  0  0  0
   -4.0466    3.3019   -5.5435 S   0  0  0  0  0  0  0  0  0  0  0  0
   -5.3121    4.3799   -4.8064 C   0  0  0  0  0  0  0  0  0  0  0  0
   -1.7736    2.5403   -4.2730 C   0  0  0  0  0  0  0  0  0  0  0  0
   -0.9996    2.2132   -3.1817 C   0  0  0  0  0  0  0  0  0  0  0  0
    0.2421    0.9505   -0.8323 C   0  0  0  0  0  0  0  0  0  0  0  0
    1.4445    1.1354   -0.1472 C   0  0  0  0  0  0  0  0  0  0  0  0
    2.3624    0.1121   -0.0682 C   0  0  0  0  0  0  0  0  0  0  0  0
    2.1167   -1.1131   -0.6853 C   0  0  0  0  0  0  0  0  0  0  0  0
    3.3001   -2.3937   -0.4063 S   0  0  0  0  0  0  0  0  0  0  0  0
    2.6972   -3.7718   -1.4171 C   0  0  0  0  0  0  0  0  0  0  0  0
    0.9677   -1.2664   -1.4497 C   0  0  0  0  0  0  0  0  0  0  0  0
    0.0423   -0.2443   -1.5209 C   0  0  0  0  0  0  0  0  0  0  0  0
   -1.4370    4.0164    0.3123 C   0  0  0  0  0  0  0  0  0  0  0  0
   -2.0120    5.0435   -0.9510 S   0  0  0  0  0  0  0  0  0  0  0  0
   -0.3208    0.9887    2.1304 C   0  0  0  0  0  0  0  0  0  0  0  0
   -0.9648   -0.4980    1.4408 S   0  0  0  0  0  0  0  0  0  0  0  0
    0.2333   -1.4073    2.2788 C   0  0  0  0  0  0  0  0  0  0  0  0
    0.7770   -2.6874    2.3481 C   0  0  0  0  0  0  0  0  0  0  0  0
    1.8509   -2.6207    3.2658 C   0  0  0  0  0  0  0  0  0  0  0  0
    1.9568   -1.3477    3.7616 N   0  0  0  0  0  0  0  0  0  0  0  0
    3.0292   -0.8548    4.5859 C   0  0  0  0  0  0  0  0  0  0  0  0
    4.1955   -0.3562    3.7344 C   0  0  0  0  0  0  0  0  0  0  0  0
    1.0003   -0.5923    3.1406 C   0  0  0  0  0  0  0  0  0  0  0  0
    0.6665    0.7635    3.0623 C   0  0  0  0  0  0  0  0  0  0  0  0
    2.5482   -3.8197    3.4049 C   0  0  0  0  0  0  0  0  0  0  0  0
    2.0339   -4.8036    2.5890 C   0  0  0  0  0  0  0  0  0  0  0  0
    0.6525   -4.2473    1.6370 S   0  0  0  0  0  0  0  0  0  0  0  0
    2.5287   -6.1115    2.3367 C   0  0  0  0  0  0  0  0  0  0  0  0
    2.4245   -6.7065    0.7117 S   0  0  0  0  0  0  0  0  0  0  0  0
    3.2034   -8.2000    1.1497 C   0  0  0  0  0  0  0  0  0  0  0  0
    3.5275   -8.2071    2.5105 C   0  0  0  0  0  0  0  0  0  0  0  0
    4.2020   -9.3356    3.1757 C   0  0  0  0  0  0  0  0  0  0  0  0
    4.8109  -10.2040    2.5719 O   0  0  0  0  0  0  0  0  0  0  0  0
    4.0636   -9.3058    4.6282 C   0  0  0  0  0  0  0  0  0  0  0  0
    4.3700  -10.3523    5.4619 C   0  0  0  0  0  0  0  0  0  0  0  0
    4.8294  -11.7204    5.1097 C   0  0  0  0  0  0  0  0  0  0  0  0
    3.6643  -12.5815    4.6102 C   0  0  0  0  0  0  0  0  0  0  0  0
    4.0648   -9.9296    7.1113 S   0  0  0  0  0  0  0  0  0  0  0  0
    3.5581   -8.3281    6.6873 C   0  0  0  0  0  0  0  0  0  0  0  0
    3.1817   -7.3621    7.7514 C   0  0  0  0  0  0  0  0  0  0  0  0
    4.3962   -6.5346    8.1823 C   0  0  0  0  0  0  0  0  0  0  0  0
    3.6084   -8.1426    5.3288 C   0  0  0  0  0  0  0  0  0  0  0  0
    3.2520   -6.8937    4.6497 C   0  0  0  0  0  0  0  0  0  0  0  0
    3.0355   -5.8542    5.2527 O   0  0  0  0  0  0  0  0  0  0  0  0
    3.1426   -7.0322    3.1909 C   0  0  0  0  0  0  0  0  0  0  0  0
    3.3840   -9.3022    0.2937 C   0  0  0  0  0  0  0  0  0  0  0  0
    3.2359   -9.3876   -1.0602 C   0  0  0  0  0  0  0  0  0  0  0  0
    3.0650   -8.2679   -1.9997 C   0  0  0  0  0  0  0  0  0  0  0  0
    2.7798   -7.1130   -1.7358 O   0  0  0  0  0  0  0  0  0  0  0  0
    3.3451   -8.8180   -3.3369 C   0  0  0  0  0  0  0  0  0  0  0  0
    3.3972   -8.1159   -4.5401 C   0  0  0  0  0  0  0  0  0  0  0  0
    3.7043   -8.8945   -5.6299 C   0  0  0  0  0  0  0  0  0  0  0  0
    3.9493  -10.2713   -5.5328 C   0  0  0  0  0  0  0  0  0  0  0  0
    3.8982  -10.9779   -4.3548 C   0  0  0  0  0  0  0  0  0  0  0  0
    3.5803  -10.2056   -3.2339 C   0  0  0  0  0  0  0  0  0  0  0  0
    3.4314  -10.5983   -1.8364 C   0  0  0  0  0  0  0  0  0  0  0  0
    3.3839  -11.8779   -1.3519 C   0  0  0  0  0  0  0  0  0  0  0  0
    3.0751  -12.2226   -0.0168 C   0  0  0  0  0  0  0  0  0  0  0  0
    2.7792  -12.5908    1.0298 N   0  0  0  0  0  0  0  0  0  0  0  0
    3.5603  -13.0316   -2.1439 C   0  0  0  0  0  0  0  0  0  0  0  0
    3.7008  -14.0047   -2.7367 N   0  0  0  0  0  0  0  0  0  0  0  0
    4.2054  -10.4118   -7.0122 C   0  0  0  0  0  0  0  0  0  0  0  0
    3.0672  -11.0270   -7.8535 C   0  0  0  0  0  0  0  0  0  0  0  0
    3.3926  -10.6015   -9.2671 C   0  0  0  0  0  0  0  0  0  0  0  0
    3.1573   -9.2990   -9.3605 C   0  0  0  0  0  0  0  0  0  0  0  0
    2.6686   -8.8221   -8.0117 C   0  0  0  0  0  0  0  0  0  0  0  0
    1.9061  -10.0711   -7.5510 C   0  0  0  0  0  0  0  0  0  0  0  0
    3.9286   -8.8779   -7.1217 C   0  0  0  0  0  0  0  0  0  0  0  0
   -2.4025    8.3995    0.6337 H   0  0  0  0  0  0  0  0  0  0  0  0
   -4.3788    7.1767   -5.2047 H   0  0  0  0  0  0  0  0  0  0  0  0
   -4.5523   11.7694   -3.0777 H   0  0  0  0  0  0  0  0  0  0  0  0
   -5.1774   11.9812   -6.4364 H   0  0  0  0  0  0  0  0  0  0  0  0
   -7.4903   12.2111   -5.1345 H   0  0  0  0  0  0  0  0  0  0  0  0
   -7.9457   12.5221   -7.7039 H   0  0  0  0  0  0  0  0  0  0  0  0
   -7.8611   10.1289   -8.8543 H   0  0  0  0  0  0  0  0  0  0  0  0
   -7.3555    8.3447   -6.9943 H   0  0  0  0  0  0  0  0  0  0  0  0
   -7.3815    9.5794   -4.6068 H   0  0  0  0  0  0  0  0  0  0  0  0
   -8.8464    9.9738   -5.5350 H   0  0  0  0  0  0  0  0  0  0  0  0
   -5.0931    9.6338   -7.5615 H   0  0  0  0  0  0  0  0  0  0  0  0
   -2.6636    6.6880    5.2201 H   0  0  0  0  0  0  0  0  0  0  0  0
   -1.1002    6.3161    7.0906 H   0  0  0  0  0  0  0  0  0  0  0  0
    3.9527    5.5239    7.4292 H   0  0  0  0  0  0  0  0  0  0  0  0
    3.5948    6.5862    6.0510 H   0  0  0  0  0  0  0  0  0  0  0  0
    3.3500    4.8135    5.9162 H   0  0  0  0  0  0  0  0  0  0  0  0
    2.1380    6.0036    4.3108 H   0  0  0  0  0  0  0  0  0  0  0  0
    0.5919    6.3852    2.4685 H   0  0  0  0  0  0  0  0  0  0  0  0
   -4.5359    6.5493    1.7897 H   0  0  0  0  0  0  0  0  0  0  0  0
   -6.2313    8.3373    1.8581 H   0  0  0  0  0  0  0  0  0  0  0  0
   -4.9911   12.6252    4.0665 H   0  0  0  0  0  0  0  0  0  0  0  0
   -5.9347   13.3171    2.7295 H   0  0  0  0  0  0  0  0  0  0  0  0
   -4.3890   12.5117    2.3803 H   0  0  0  0  0  0  0  0  0  0  0  0
   -3.4789   10.8562    3.9480 H   0  0  0  0  0  0  0  0  0  0  0  0
   -1.7881    9.1076    3.8390 H   0  0  0  0  0  0  0  0  0  0  0  0
   -3.3968    2.2705   -0.7963 H   0  0  0  0  0  0  0  0  0  0  0  0
   -4.7716    2.8607   -2.7300 H   0  0  0  0  0  0  0  0  0  0  0  0
   -6.1172    3.7876   -4.3805 H   0  0  0  0  0  0  0  0  0  0  0  0
   -5.7018    4.9882   -5.6172 H   0  0  0  0  0  0  0  0  0  0  0  0
   -4.8352    4.9995   -4.0518 H   0  0  0  0  0  0  0  0  0  0  0  0
   -1.3311    2.6137   -5.2545 H   0  0  0  0  0  0  0  0  0  0  0  0
    0.0584    2.0303   -3.2983 H   0  0  0  0  0  0  0  0  0  0  0  0
    1.6437    2.0780    0.3407 H   0  0  0  0  0  0  0  0  0  0  0  0
    3.2807    0.2443    0.4837 H   0  0  0  0  0  0  0  0  0  0  0  0
    3.4038   -4.5837   -1.2798 H   0  0  0  0  0  0  0  0  0  0  0  0
    2.6737   -3.4761   -2.4618 H   0  0  0  0  0  0  0  0  0  0  0  0
    1.7185   -4.0896   -1.0706 H   0  0  0  0  0  0  0  0  0  0  0  0
    0.7619   -2.1888   -1.9671 H   0  0  0  0  0  0  0  0  0  0  0  0
   -0.8703   -0.3876   -2.0797 H   0  0  0  0  0  0  0  0  0  0  0  0
    3.3566   -1.6696    5.2360 H   0  0  0  0  0  0  0  0  0  0  0  0
    2.6405   -0.0446    5.2091 H   0  0  0  0  0  0  0  0  0  0  0  0
    4.5570   -1.1544    3.0901 H   0  0  0  0  0  0  0  0  0  0  0  0
    5.0095   -0.0214    4.3714 H   0  0  0  0  0  0  0  0  0  0  0  0
    3.8752    0.4730    3.1077 H   0  0  0  0  0  0  0  0  0  0  0  0
    1.1530    1.5625    3.5922 H   0  0  0  0  0  0  0  0  0  0  0  0
    3.4001   -3.9755    4.0374 H   0  0  0  0  0  0  0  0  0  0  0  0
    5.2809  -12.1867    5.9877 H   0  0  0  0  0  0  0  0  0  0  0  0
    5.5761  -11.6488    4.3168 H   0  0  0  0  0  0  0  0  0  0  0  0
    4.0104  -13.5953    4.4306 H   0  0  0  0  0  0  0  0  0  0  0  0
    2.8645  -12.6104    5.3474 H   0  0  0  0  0  0  0  0  0  0  0  0
    3.2734  -12.1867    3.6767 H   0  0  0  0  0  0  0  0  0  0  0  0
    2.7822   -7.9027    8.6118 H   0  0  0  0  0  0  0  0  0  0  0  0
    2.4184   -6.6864    7.3612 H   0  0  0  0  0  0  0  0  0  0  0  0
    4.7646   -5.9574    7.3386 H   0  0  0  0  0  0  0  0  0  0  0  0
    4.1139   -5.8489    8.9764 H   0  0  0  0  0  0  0  0  0  0  0  0
    5.1922   -7.1822    8.5438 H   0  0  0  0  0  0  0  0  0  0  0  0
    3.7364  -10.1901    0.8067 H   0  0  0  0  0  0  0  0  0  0  0  0
    3.2111   -7.0536   -4.5707 H   0  0  0  0  0  0  0  0  0  0  0  0
    4.0978  -12.0347   -4.2921 H   0  0  0  0  0  0  0  0  0  0  0  0
    5.1894  -10.7850   -7.2893 H   0  0  0  0  0  0  0  0  0  0  0  0
    2.9006  -12.0876   -7.6868 H   0  0  0  0  0  0  0  0  0  0  0  0
    3.7997  -11.2588  -10.0127 H   0  0  0  0  0  0  0  0  0  0  0  0
    3.3286   -8.6509  -10.2000 H   0  0  0  0  0  0  0  0  0  0  0  0
    2.1376   -7.8742   -7.9911 H   0  0  0  0  0  0  0  0  0  0  0  0
    1.0347  -10.2732   -8.1715 H   0  0  0  0  0  0  0  0  0  0  0  0
    1.6100  -10.0497   -6.5038 H   0  0  0  0  0  0  0  0  0  0  0  0
    4.7274   -8.2279   -7.4741 H   0  0  0  0  0  0  0  0  0  0  0  0
  1  2  2  0  0  0  0
  2  3  1  0  0  0  0
  3  4  2  0  0  0  0
  3  5  1  0  0  0  0
  5  6  2  0  0  0  0
  6  7  1  0  0  0  0
  7  8  2  0  0  0  0
  8  9  1  0  0  0  0
  9 10  2  0  0  0  0
 10 11  1  0  0  0  0
 11 12  2  0  0  0  0
 12 13  1  0  0  0  0
 13 14  3  0  0  0  0
 12 15  1  0  0  0  0
 15 16  3  0  0  0  0
  8 17  1  0  0  0  0
 17 18  1  0  0  0  0
 18 19  1  0  0  0  0
 19 20  2  0  0  0  0
 20 21  1  0  0  0  0
 21 22  1  0  0  0  0
 21 23  1  0  0  0  0
  1 24  1  0  0  0  0
 24 25  2  0  0  0  0
 25 26  1  0  0  0  0
 26 27  1  0  0  0  0
 27 28  2  0  0  0  0
 28 29  1  0  0  0  0
 29 30  2  0  0  0  0
 30 31  1  0  0  0  0
 31 32  1  0  0  0  0
 30 33  1  0  0  0  0
 33 34  2  0  0  0  0
 26 35  1  0  0  0  0
 35 36  2  0  0  0  0
 36 37  1  0  0  0  0
 37 38  2  0  0  0  0
 38 39  1  0  0  0  0
 39 40  1  0  0  0  0
 38 41  1  0  0  0  0
 41 42  2  0  0  0  0
 25 43  1  0  0  0  0
 43 44  1  0  0  0  0
 44 45  1  0  0  0  0
 45 46  2  0  0  0  0
 46 47  1  0  0  0  0
 47 48  1  0  0  0  0
 48 49  2  0  0  0  0
 49 50  1  0  0  0  0
 50 51  2  0  0  0  0
 51 52  1  0  0  0  0
 52 53  1  0  0  0  0
 51 54  1  0  0  0  0
 54 55  2  0  0  0  0
 47 56  1  0  0  0  0
 56 57  2  0  0  0  0
 57 58  1  0  0  0  0
 58 59  2  0  0  0  0
 59 60  1  0  0  0  0
 60 61  1  0  0  0  0
 59 62  1  0  0  0  0
 62 63  2  0  0  0  0
 46 64  1  0  0  0  0
 64 65  1  0  0  0  0
 45 66  1  0  0  0  0
 66 67  1  0  0  0  0
 67 68  1  0  0  0  0
 68 69  1  0  0  0  0
 69 70  2  0  0  0  0
 70 71  1  0  0  0  0
 71 72  1  0  0  0  0
 72 73  1  0  0  0  0
 71 74  1  0  0  0  0
 74 75  1  0  0  0  0
 70 76  1  0  0  0  0
 76 77  2  0  0  0  0
 77 78  1  0  0  0  0
 77 79  1  0  0  0  0
 79 80  1  0  0  0  0
 80 81  1  0  0  0  0
 81 82  2  0  0  0  0
 82 83  1  0  0  0  0
 83 84  2  0  0  0  0
 83 85  1  0  0  0  0
 85 86  2  0  0  0  0
 86 87  1  0  0  0  0
 87 88  1  0  0  0  0
 86 89  1  0  0  0  0
 89 90  1  0  0  0  0
 90 91  1  0  0  0  0
 91 92  1  0  0  0  0
 90 93  2  0  0  0  0
 93 94  1  0  0  0  0
 94 95  2  0  0  0  0
 94 96  1  0  0  0  0
 81 97  1  0  0  0  0
 97 98  2  0  0  0  0
 98 99  1  0  0  0  0
 99100  2  0  0  0  0
 99101  1  0  0  0  0
101102  2  0  0  0  0
102103  1  0  0  0  0
103104  2  0  0  0  0
104105  1  0  0  0  0
105106  2  0  0  0  0
106107  1  0  0  0  0
107108  2  0  0  0  0
108109  1  0  0  0  0
109110  3  0  0  0  0
108111  1  0  0  0  0
111112  3  0  0  0  0
104113  1  0  0  0  0
113114  1  0  0  0  0
114115  1  0  0  0  0
115116  2  0  0  0  0
116117  1  0  0  0  0
117118  1  0  0  0  0
117119  1  0  0  0  0
 11  2  1  0  0  0  0
 23 17  1  0  0  0  0
 65 24  1  0  0  0  0
 75 66  2  0  0  0  0
 96 79  2  0  0  0  0
107 98  1  0  0  0  0
119113  1  0  0  0  0
 10  5  1  0  0  0  0
 22 18  1  0  0  0  0
 34 27  1  0  0  0  0
 42 35  1  0  0  0  0
 64 43  2  0  0  0  0
 74 68  2  0  0  0  0
 96 82  1  0  0  0  0
106101  1  0  0  0  0
118114  1  0  0  0  0
 23  7  1  0  0  0  0
 55 48  1  0  0  0  0
 63 56  1  0  0  0  0
 78 69  1  0  0  0  0
 93 85  1  0  0  0  0
119103  1  0  0  0  0
  1120  1  0  0  0  0
  6121  1  0  0  0  0
  9122  1  0  0  0  0
 17123  1  0  0  0  0
 18124  1  0  0  0  0
 19125  1  0  0  0  0
 20126  1  0  0  0  0
 21127  1  0  0  0  0
 22128  1  0  0  0  0
 22129  1  0  0  0  0
 23130  1  0  0  0  0
 28131  1  0  0  0  0
 29132  1  0  0  0  0
 32133  1  0  0  0  0
 32134  1  0  0  0  0
 32135  1  0  0  0  0
 33136  1  0  0  0  0
 34137  1  0  0  0  0
 36138  1  0  0  0  0
 37139  1  0  0  0  0
 40140  1  0  0  0  0
 40141  1  0  0  0  0
 40142  1  0  0  0  0
 41143  1  0  0  0  0
 42144  1  0  0  0  0
 49145  1  0  0  0  0
 50146  1  0  0  0  0
 53147  1  0  0  0  0
 53148  1  0  0  0  0
 53149  1  0  0  0  0
 54150  1  0  0  0  0
 55151  1  0  0  0  0
 57152  1  0  0  0  0
 58153  1  0  0  0  0
 61154  1  0  0  0  0
 61155  1  0  0  0  0
 61156  1  0  0  0  0
 62157  1  0  0  0  0
 63158  1  0  0  0  0
 72159  1  0  0  0  0
 72160  1  0  0  0  0
 73161  1  0  0  0  0
 73162  1  0  0  0  0
 73163  1  0  0  0  0
 75164  1  0  0  0  0
 76165  1  0  0  0  0
 87166  1  0  0  0  0
 87167  1  0  0  0  0
 88168  1  0  0  0  0
 88169  1  0  0  0  0
 88170  1  0  0  0  0
 91171  1  0  0  0  0
 91172  1  0  0  0  0
 92173  1  0  0  0  0
 92174  1  0  0  0  0
 92175  1  0  0  0  0
 97176  1  0  0  0  0
102177  1  0  0  0  0
105178  1  0  0  0  0
113179  1  0  0  0  0
114180  1  0  0  0  0
115181  1  0  0  0  0
116182  1  0  0  0  0
117183  1  0  0  0  0
118184  1  0  0  0  0
118185  1  0  0  0  0
119186  1  0  0  0  0
M  END
