236

C          2.43330       -1.60250        8.67870
C          2.89280       -0.61090        9.51330
C          3.15810        0.78310        9.14670
O          2.84530        1.35460        8.11630
C          3.89250        1.37340       10.28180
C          4.37530        2.67530       10.38770
C          5.01240        2.93970       11.57720
C          5.15470        1.98190       12.58910
C          4.68070        0.69430       12.49820
C          4.03530        0.40290       11.29370
C          3.38260       -0.82780       10.85220
C          3.25680       -1.97310       11.60260
C          2.46410       -3.08510       11.26500
N          1.81440       -4.02020       11.10050
C          3.89430       -2.20040       12.83680
N          4.40630       -2.49370       13.82300
C          5.88850        2.93440       13.50000
C          7.41870        2.75880       13.59560
C          7.89980        4.08190       14.14600
C          7.76660        4.98990       13.18760
C          7.19340        4.29580       11.97300
C          7.84080        2.91370       12.12880
C          5.73120        4.00300       12.37120
C          2.03390       -1.54990        7.34290
C          1.76590       -2.70410        6.56120
N          2.06860       -3.98960        6.94010
C          3.20970       -4.24980        7.72460
C          3.16320       -5.17180        8.76630
C          4.24990       -5.33870        9.60300
C          5.39460       -4.57580        9.41940
S          6.79190       -4.63170       10.49450
C          6.14420       -5.42820       11.99130
C          5.47060       -3.70700        8.33020
C          4.39610       -3.55310        7.48540
C          1.22640       -5.05330        6.58890
C         -0.15720       -4.88470        6.54190
C         -0.97810       -5.96610        6.31150
C         -0.43740       -7.23700        6.13790
S         -1.57420       -8.57590        5.95800
C         -0.54400      -10.04380        6.24060
C          0.94110       -7.40010        6.12570
C          1.76310       -6.31440        6.34160
C          1.21480       -2.35190        5.31840
S          0.66280       -3.23550        3.92330
C          0.34950       -1.72680        3.07360
C          0.59510       -0.61920        3.87410
N          0.29390        0.68760        3.50080
C         -0.97710        0.95470        2.98480
C         -1.14040        1.89200        1.96790
C         -2.37500        2.09290        1.38680
C         -3.47410        1.36480        1.82050
S         -5.07020        1.51260        1.06410
C         -4.62900        1.82920       -0.67280
C         -3.33230        0.47590        2.88200
C         -2.09510        0.26400        3.45240
C          1.22410        1.69690        3.76130
C          2.58880        1.41260        3.71230
C          3.51350        2.38580        4.01810
C          3.09850        3.66800        4.36340
S          4.36040        4.83980        4.76160
C          3.50650        6.43710        4.61530
C          1.74300        3.96050        4.39940
C          0.81550        2.98260        4.10370
C          1.10510       -0.97770        5.13710
S          1.70510       -0.05690        6.46420
C         -0.00620       -1.61490        1.69100
C         -0.94410       -2.26610        0.90990
N         -1.72890       -3.34860        1.28770
C         -3.05400       -3.36260        0.81420
C         -3.80230       -2.19200        0.87730
C         -5.09830       -2.14680        0.40440
C         -5.67170       -3.28430       -0.14550
S         -7.31750       -3.35340       -0.77700
C         -7.93800       -1.66230       -0.55460
C         -4.92430       -4.45900       -0.21850
C         -3.63020       -4.50050        0.24980
C         -1.13990       -4.52540        1.75640
C         -1.89080       -5.41420        2.52580
C         -1.36570       -6.62940        2.90650
C         -0.07260       -6.97320        2.53460
S          0.61880       -8.55730        2.92380
C         -0.79820       -9.64790        2.56890
C          0.70550       -6.06840        1.82670
C          0.17720       -4.85570        1.43470
C         -1.03150       -1.67620       -0.37840
S         -2.01310       -1.99160       -1.76620
C         -1.16270       -0.74360       -2.66680
C         -0.12960       -0.16790       -1.94290
N          0.83780        0.68030       -2.44940
C          1.25910        0.59900       -3.78110
C          1.56630        1.76200       -4.49120
C          1.80540        1.70510       -5.84510
C          1.74940        0.48940       -6.52440
S          1.90890        0.55730       -8.28170
C          1.60810       -1.15030       -8.81420
C          1.55550       -0.68050       -5.80420
C          1.32070       -0.62450       -4.44420
C          1.38050        1.67540       -1.61360
C          2.75860        1.79790       -1.47590
C          3.29780        2.76720       -0.65370
C          2.46210        3.64050        0.03080
S          3.03600        4.91920        1.09810
C          4.81110        4.58750        1.25760
C          1.08220        3.53940       -0.13210
C          0.54410        2.55940       -0.93770
C         -0.11130       -0.67210       -0.61680
S          0.85880       -0.36910        0.77660
C         -1.51170       -0.48360       -4.03030
C         -1.76430       -1.39480       -5.00980
C         -1.86850       -0.82460       -6.30440
C         -2.00060       -1.48420       -7.53270
C         -2.21510       -2.96530       -7.62200
C         -3.68700       -3.30790       -7.38410
C         -1.95360       -0.68930       -8.66350
C         -1.77720        0.71970       -8.62620
C         -1.66450        1.38270       -7.39380
C         -1.52460        2.86990       -7.30310
C         -2.89660        3.54430       -7.37470
C         -1.72100        0.58710       -6.26960
S         -1.55160        1.16370       -4.63250
C         -1.74730        1.28020       -9.92040
C         -1.90150        0.36430      -10.92880
S         -2.05910       -1.26690      -10.30320
C         -1.88100        0.55440      -12.33310
C         -2.07600        1.69070      -13.05160
C         -1.60690        1.74100      -14.46600
O         -1.27890        0.79830      -15.14960
C         -1.57950        3.17250      -14.81880
C         -1.09520        3.74330      -15.99370
C         -1.17720        5.11460      -16.02560
C         -1.68690        5.87010      -14.96040
C         -2.17240        5.32170      -13.79750
C         -2.11620        3.92650      -13.75370
C         -2.58120        3.00580      -12.71890
C         -3.52730        3.30080      -11.77240
C         -4.15340        2.33550      -10.95820
N         -4.72470        1.59550      -10.29190
C         -4.05590        4.58890      -11.55250
N         -4.50940        5.61530      -11.30920
C         -1.46160        7.17830      -15.67560
C         -2.69620        7.87780      -16.29530
C         -3.69850        6.79010      -16.59330
C         -3.22770        6.07250      -17.60450
C         -1.89880        6.66190      -18.00870
C         -2.15950        8.14700      -17.71020
C         -0.90420        6.33620      -16.86640
H          2.39960       -2.59430        9.11000
H          4.23650        3.38460        9.58680
H          4.79220       -0.03050       13.28760
H          5.42080        3.12310       14.46460
H          7.74250        1.86330       14.11880
H          8.22370        4.22790       15.15980
H          7.95710        6.04590       13.24140
H          7.31350        4.80090       11.01830
H          8.92290        2.95070       12.01390
H          7.42990        2.15410       11.46650
H          5.15950        4.90450       12.58430
H          2.26010       -5.73240        8.94860
H          4.17480       -6.04380       10.41400
H          6.91520       -5.30320       12.74510
H          5.97190       -6.48560       11.81290
H          5.23550       -4.92610       12.31000
H          6.38010       -3.15040        8.16510
H          4.45560       -2.86740        6.65350
H         -0.58720       -3.91210        6.72770
H         -2.05000       -5.84190        6.29800
H          0.15440      -10.17670        5.41930
H         -0.02400       -9.94090        7.18820
H         -1.23110      -10.88340        6.28270
H          1.38820       -8.36270        5.94260
H          2.83450       -6.44670        6.33500
H         -0.27990        2.44160        1.62380
H         -2.47410        2.81500        0.59130
H         -4.32020        2.86170       -0.80740
H         -5.52860        1.64350       -1.25120
H         -3.84310        1.14250       -0.97410
H         -4.19940       -0.05240        3.24900
H         -1.98880       -0.44590        4.25900
H          2.91770        0.42360        3.42890
H          4.56940        2.16140        3.99540
H          4.28500        7.19350        4.63920
H          2.83150        6.58180        5.45390
H          2.97600        6.47520        3.66820
H          1.39360        4.94240        4.67400
H         -0.23800        3.21270        4.15880
H         -3.35780       -1.30680        1.30520
H         -5.64280       -1.22020        0.48030
H         -7.94810       -1.40270        0.49980
H         -7.32960       -0.96720       -1.12540
H         -8.95190       -1.67020       -0.94250
H         -5.37070       -5.33730       -0.65900
H         -3.05740       -5.41190        0.16920
H         -2.89780       -5.15020        2.81130
H         -1.96770       -7.30590        3.49150
H         -0.40070      -10.65680        2.52070
H         -1.54060       -9.57740        3.35800
H         -1.22500       -9.36870        1.61090
H          1.71720       -6.33300        1.56030
H          0.77500       -4.17500        0.84710
H          1.56560        2.71300       -3.98040
H          2.00160        2.60800       -6.40240
H          1.58580       -1.11930       -9.89920
H          2.41740       -1.79390       -8.48170
H          0.64870       -1.48930       -8.43400
H          1.56860       -1.64320       -6.28920
H          1.15580       -1.53980       -3.89540
H          3.40750        1.12510       -2.01670
H          4.36930        2.83260       -0.55810
H          4.95590        3.57110        1.61070
H          5.31180        4.75990        0.30920
H          5.17840        5.28640        2.00240
H          0.44540        4.25070        0.37300
H         -0.52500        2.47360       -1.06330
H         -1.79840       -2.45100       -4.81110
H         -1.59610       -3.47940       -6.88400
H         -1.92120       -3.31070       -8.61620
H         -3.99830       -2.98280       -6.39410
H         -3.84230       -4.38080       -7.46450
H         -4.31110       -2.81000       -8.12220
H         -0.88950        3.23210       -8.11320
H         -1.04450        3.12440       -6.35500
H         -2.78850        4.62590       -7.36080
H         -3.42000        3.25670       -8.28380
H         -3.50530        3.24490       -6.52490
H         -1.56910        2.32390      -10.10700
H         -1.60800       -0.31550      -12.92330
H         -0.70120        3.12820      -16.78750
H         -2.55520        5.91180      -12.98090
H         -0.78720        7.87910      -15.18750
H         -3.06520        8.72820      -15.72830
H         -4.59060        6.62490      -16.01810
H         -3.64850        5.18710      -18.04400
H         -1.54270        6.40590      -19.00310
H         -2.90900        8.58330      -18.36860
H         -1.25760        8.75740      -17.72370
H          0.13160        6.49180      -17.16210
