
  xtb     02152219393D
 energy: -439.096052154064 gnorm: 0.000424164039 xtb: 6.4.1 (unknown)
265289  0     0  0            999 V2000
   -0.9644   -2.7553   -8.0560 C   0  0  0  0  0  0  0  0  0  0  0  0
    0.1724   -2.2958   -8.6857 C   0  0  0  0  0  0  0  0  0  0  0  0
    1.1068   -1.3344   -8.0762 C   0  0  0  0  0  0  0  0  0  0  0  0
    1.0649   -0.8686   -6.9514 O   0  0  0  0  0  0  0  0  0  0  0  0
    2.0419   -0.9465   -9.1496 C   0  0  0  0  0  0  0  0  0  0  0  0
    3.1054   -0.0540   -9.0501 C   0  0  0  0  0  0  0  0  0  0  0  0
    3.8221    0.0890  -10.2150 C   0  0  0  0  0  0  0  0  0  0  0  0
    3.5013   -0.5980  -11.3922 C   0  0  0  0  0  0  0  0  0  0  0  0
    2.4505   -1.4789  -11.5036 C   0  0  0  0  0  0  0  0  0  0  0  0
    1.7112   -1.6396  -10.3301 C   0  0  0  0  0  0  0  0  0  0  0  0
    0.5618   -2.4977  -10.0525 C   0  0  0  0  0  0  0  0  0  0  0  0
    0.0417   -3.4476  -10.8976 C   0  0  0  0  0  0  0  0  0  0  0  0
    0.4796   -3.6799  -12.2146 C   0  0  0  0  0  0  0  0  0  0  0  0
    0.7796   -3.9382  -13.2934 N   0  0  0  0  0  0  0  0  0  0  0  0
   -0.9470   -4.3754  -10.5185 C   0  0  0  0  0  0  0  0  0  0  0  0
   -1.7087   -5.2008  -10.2737 N   0  0  0  0  0  0  0  0  0  0  0  0
    4.6341    0.0323  -12.1646 C   0  0  0  0  0  0  0  0  0  0  0  0
    4.2592    1.1746  -13.1320 C   0  0  0  0  0  0  0  0  0  0  0  0
    5.5669    1.8968  -13.3636 C   0  0  0  0  0  0  0  0  0  0  0  0
    5.8726    2.5459  -12.2475 C   0  0  0  0  0  0  0  0  0  0  0  0
    4.7767    2.2734  -11.2427 C   0  0  0  0  0  0  0  0  0  0  0  0
    3.5724    2.1695  -12.1874 C   0  0  0  0  0  0  0  0  0  0  0  0
    4.9938    0.7966  -10.8501 C   0  0  0  0  0  0  0  0  0  0  0  0
   -1.1338   -2.7975   -6.6688 C   0  0  0  0  0  0  0  0  0  0  0  0
   -0.1771   -2.8850   -5.6364 C   0  0  0  0  0  0  0  0  0  0  0  0
    1.1181   -3.2785   -5.7648 N   0  0  0  0  0  0  0  0  0  0  0  0
    1.6102   -3.9372   -6.9028 C   0  0  0  0  0  0  0  0  0  0  0  0
    2.8337   -3.5446   -7.4468 C   0  0  0  0  0  0  0  0  0  0  0  0
    3.2978   -4.1341   -8.6018 C   0  0  0  0  0  0  0  0  0  0  0  0
    2.5631   -5.1401   -9.2285 C   0  0  0  0  0  0  0  0  0  0  0  0
    3.2096   -5.7600  -10.7422 S   0  0  0  0  0  0  0  0  0  0  0  0
    1.9558   -6.9388  -11.3153 C   0  0  0  0  0  0  0  0  0  0  0  0
    1.3812   -5.5854   -8.6437 C   0  0  0  0  0  0  0  0  0  0  0  0
    0.9091   -4.9837   -7.4959 C   0  0  0  0  0  0  0  0  0  0  0  0
    2.0383   -3.0555   -4.7137 C   0  0  0  0  0  0  0  0  0  0  0  0
    2.2539   -1.7746   -4.2129 C   0  0  0  0  0  0  0  0  0  0  0  0
    3.1367   -1.5892   -3.1726 C   0  0  0  0  0  0  0  0  0  0  0  0
    3.8162   -2.6709   -2.6169 C   0  0  0  0  0  0  0  0  0  0  0  0
    4.8915   -2.3124   -1.2668 S   0  0  0  0  0  0  0  0  0  0  0  0
    5.7351   -3.8862   -0.9413 C   0  0  0  0  0  0  0  0  0  0  0  0
    3.6225   -3.9443   -3.1367 C   0  0  0  0  0  0  0  0  0  0  0  0
    2.7422   -4.1310   -4.1852 C   0  0  0  0  0  0  0  0  0  0  0  0
   -0.7899   -2.6407   -4.3836 C   0  0  0  0  0  0  0  0  0  0  0  0
   -0.1808   -2.4745   -2.7747 S   0  0  0  0  0  0  0  0  0  0  0  0
   -1.7967   -2.1421   -2.1890 C   0  0  0  0  0  0  0  0  0  0  0  0
   -2.7644   -2.2458   -3.1668 C   0  0  0  0  0  0  0  0  0  0  0  0
   -4.1280   -2.1736   -2.9077 N   0  0  0  0  0  0  0  0  0  0  0  0
   -4.9659   -1.4653   -3.7753 C   0  0  0  0  0  0  0  0  0  0  0  0
   -6.3107   -1.7975   -3.9217 C   0  0  0  0  0  0  0  0  0  0  0  0
   -7.1339   -1.0566   -4.7460 C   0  0  0  0  0  0  0  0  0  0  0  0
   -6.6261    0.0210   -5.4580 C   0  0  0  0  0  0  0  0  0  0  0  0
   -7.6035    1.0258   -6.5344 S   0  0  0  0  0  0  0  0  0  0  0  0
   -9.2796    0.8202   -5.8668 C   0  0  0  0  0  0  0  0  0  0  0  0
   -5.2737    0.3262   -5.3557 C   0  0  0  0  0  0  0  0  0  0  0  0
   -4.4580   -0.4036   -4.5224 C   0  0  0  0  0  0  0  0  0  0  0  0
   -4.6093   -2.8168   -1.7568 C   0  0  0  0  0  0  0  0  0  0  0  0
   -5.6791   -2.3030   -1.0222 C   0  0  0  0  0  0  0  0  0  0  0  0
   -6.1020   -2.9309    0.1292 C   0  0  0  0  0  0  0  0  0  0  0  0
   -5.4747   -4.0897    0.5787 C   0  0  0  0  0  0  0  0  0  0  0  0
   -6.0886   -4.8175    2.0657 S   0  0  0  0  0  0  0  0  0  0  0  0
   -4.7657   -5.9585    2.5578 C   0  0  0  0  0  0  0  0  0  0  0  0
   -4.4335   -4.6264   -0.1641 C   0  0  0  0  0  0  0  0  0  0  0  0
   -4.0114   -3.9971   -1.3176 C   0  0  0  0  0  0  0  0  0  0  0  0
   -2.1704   -2.5016   -4.4293 C   0  0  0  0  0  0  0  0  0  0  0  0
   -2.7829   -2.6581   -6.0329 S   0  0  0  0  0  0  0  0  0  0  0  0
   -1.9415   -1.6099   -0.8553 C   0  0  0  0  0  0  0  0  0  0  0  0
   -2.0787   -0.2647   -0.6015 C   0  0  0  0  0  0  0  0  0  0  0  0
   -2.1335    0.7033   -1.6206 N   0  0  0  0  0  0  0  0  0  0  0  0
   -3.3434    1.2947   -1.9492 C   0  0  0  0  0  0  0  0  0  0  0  0
   -4.5204    0.8303   -1.3560 C   0  0  0  0  0  0  0  0  0  0  0  0
   -5.7420    1.3509   -1.7148 C   0  0  0  0  0  0  0  0  0  0  0  0
   -5.8311    2.3544   -2.6738 C   0  0  0  0  0  0  0  0  0  0  0  0
   -7.4587    2.8894   -3.1068 S   0  0  0  0  0  0  0  0  0  0  0  0
   -7.1916    4.0063   -4.5104 C   0  0  0  0  0  0  0  0  0  0  0  0
   -4.6635    2.8746   -3.2112 C   0  0  0  0  0  0  0  0  0  0  0  0
   -3.4351    2.3600   -2.8440 C   0  0  0  0  0  0  0  0  0  0  0  0
   -0.9083    0.9727   -2.2629 C   0  0  0  0  0  0  0  0  0  0  0  0
    0.2350    1.1609   -1.4899 C   0  0  0  0  0  0  0  0  0  0  0  0
    1.4522    1.4469   -2.0753 C   0  0  0  0  0  0  0  0  0  0  0  0
    1.5509    1.5506   -3.4556 C   0  0  0  0  0  0  0  0  0  0  0  0
    3.0473    1.9389   -4.3069 S   0  0  0  0  0  0  0  0  0  0  0  0
    4.1297    2.5633   -2.9884 C   0  0  0  0  0  0  0  0  0  0  0  0
    0.4234    1.3127   -4.2394 C   0  0  0  0  0  0  0  0  0  0  0  0
   -0.7883    1.0238   -3.6512 C   0  0  0  0  0  0  0  0  0  0  0  0
   -1.9998    0.0056    0.7808 C   0  0  0  0  0  0  0  0  0  0  0  0
   -1.8731    1.4518    1.7100 S   0  0  0  0  0  0  0  0  0  0  0  0
   -1.4249    0.5230    3.1396 C   0  0  0  0  0  0  0  0  0  0  0  0
   -1.4613   -0.8320    2.9113 C   0  0  0  0  0  0  0  0  0  0  0  0
   -1.0721   -1.8150    3.8435 N   0  0  0  0  0  0  0  0  0  0  0  0
    0.1902   -2.3768    3.5817 C   0  0  0  0  0  0  0  0  0  0  0  0
    1.2434   -1.5352    3.2270 C   0  0  0  0  0  0  0  0  0  0  0  0
    2.4868   -2.0427    2.9052 C   0  0  0  0  0  0  0  0  0  0  0  0
    2.7087   -3.4110    2.9466 C   0  0  0  0  0  0  0  0  0  0  0  0
    4.2536   -4.1661    2.5356 S   0  0  0  0  0  0  0  0  0  0  0  0
    5.4227   -2.7759    2.5645 C   0  0  0  0  0  0  0  0  0  0  0  0
    1.6636   -4.2589    3.3039 C   0  0  0  0  0  0  0  0  0  0  0  0
    0.4190   -3.7529    3.6087 C   0  0  0  0  0  0  0  0  0  0  0  0
   -2.0840   -2.5460    4.4817 C   0  0  0  0  0  0  0  0  0  0  0  0
   -1.7936   -3.2621    5.6444 C   0  0  0  0  0  0  0  0  0  0  0  0
   -2.7724   -3.9983    6.2725 C   0  0  0  0  0  0  0  0  0  0  0  0
   -4.0723   -4.0221    5.7712 C   0  0  0  0  0  0  0  0  0  0  0  0
   -5.2457   -5.0212    6.6334 S   0  0  0  0  0  0  0  0  0  0  0  0
   -6.8360   -4.6086    5.8608 C   0  0  0  0  0  0  0  0  0  0  0  0
   -4.3768   -3.2779    4.6425 C   0  0  0  0  0  0  0  0  0  0  0  0
   -3.3906   -2.5527    4.0029 C   0  0  0  0  0  0  0  0  0  0  0  0
   -1.7754   -1.1182    1.5587 C   0  0  0  0  0  0  0  0  0  0  0  0
   -1.7136   -2.5569    0.6003 S   0  0  0  0  0  0  0  0  0  0  0  0
   -0.7922    1.2654    4.1920 C   0  0  0  0  0  0  0  0  0  0  0  0
   -0.8342    1.2288    5.5725 C   0  0  0  0  0  0  0  0  0  0  0  0
   -1.6537    0.4568    6.3738 N   0  0  0  0  0  0  0  0  0  0  0  0
   -2.9896    0.1788    6.1005 C   0  0  0  0  0  0  0  0  0  0  0  0
   -3.7012    0.8537    5.1103 C   0  0  0  0  0  0  0  0  0  0  0  0
   -5.0168    0.5320    4.8411 C   0  0  0  0  0  0  0  0  0  0  0  0
   -5.6592   -0.4518    5.5760 C   0  0  0  0  0  0  0  0  0  0  0  0
   -7.3328   -0.9397    5.2579 S   0  0  0  0  0  0  0  0  0  0  0  0
   -7.4494   -0.7302    3.4551 C   0  0  0  0  0  0  0  0  0  0  0  0
   -4.9784   -1.0820    6.6118 C   0  0  0  0  0  0  0  0  0  0  0  0
   -3.6588   -0.7834    6.8615 C   0  0  0  0  0  0  0  0  0  0  0  0
   -1.1057    0.1340    7.6403 C   0  0  0  0  0  0  0  0  0  0  0  0
   -1.7108    0.5636    8.8152 C   0  0  0  0  0  0  0  0  0  0  0  0
   -1.1064    0.3370   10.0350 C   0  0  0  0  0  0  0  0  0  0  0  0
    0.1194   -0.3128   10.0924 C   0  0  0  0  0  0  0  0  0  0  0  0
    0.9993   -0.5917   11.5910 S   0  0  0  0  0  0  0  0  0  0  0  0
    0.1556    0.4981   12.7746 C   0  0  0  0  0  0  0  0  0  0  0  0
    0.7070   -0.7808    8.9196 C   0  0  0  0  0  0  0  0  0  0  0  0
    0.0999   -0.5603    7.7027 C   0  0  0  0  0  0  0  0  0  0  0  0
    0.1016    2.1524    6.1250 C   0  0  0  0  0  0  0  0  0  0  0  0
    0.5684    2.5448    7.7405 S   0  0  0  0  0  0  0  0  0  0  0  0
    1.7052    3.7546    7.1370 C   0  0  0  0  0  0  0  0  0  0  0  0
    1.7683    3.7656    5.7203 C   0  0  0  0  0  0  0  0  0  0  0  0
    2.6703    4.4612    4.9630 N   0  0  0  0  0  0  0  0  0  0  0  0
    2.4241    4.6292    3.5847 C   0  0  0  0  0  0  0  0  0  0  0  0
    1.2074    5.1363    3.1369 C   0  0  0  0  0  0  0  0  0  0  0  0
    0.9282    5.1942    1.7844 C   0  0  0  0  0  0  0  0  0  0  0  0
    1.8644    4.7434    0.8635 C   0  0  0  0  0  0  0  0  0  0  0  0
    1.5600    4.6796   -0.8735 S   0  0  0  0  0  0  0  0  0  0  0  0
   -0.2489    4.5968   -0.9742 C   0  0  0  0  0  0  0  0  0  0  0  0
    3.1148    4.3155    1.3075 C   0  0  0  0  0  0  0  0  0  0  0  0
    3.3950    4.2608    2.6539 C   0  0  0  0  0  0  0  0  0  0  0  0
    3.9463    4.8267    5.4422 C   0  0  0  0  0  0  0  0  0  0  0  0
    4.6958    3.9566    6.2364 C   0  0  0  0  0  0  0  0  0  0  0  0
    5.8867    4.3781    6.7799 C   0  0  0  0  0  0  0  0  0  0  0  0
    6.3676    5.6633    6.5220 C   0  0  0  0  0  0  0  0  0  0  0  0
    7.8456    6.1394    7.3543 S   0  0  0  0  0  0  0  0  0  0  0  0
    7.8407    7.9481    7.2132 C   0  0  0  0  0  0  0  0  0  0  0  0
    5.6741    6.4880    5.6463 C   0  0  0  0  0  0  0  0  0  0  0  0
    4.4669    6.0739    5.1165 C   0  0  0  0  0  0  0  0  0  0  0  0
    0.8237    2.8720    5.1830 C   0  0  0  0  0  0  0  0  0  0  0  0
    0.3664    2.4430    3.5752 S   0  0  0  0  0  0  0  0  0  0  0  0
    2.4322    4.6199    7.9525 C   0  0  0  0  0  0  0  0  0  0  0  0
    2.7221    4.5448    9.2967 C   0  0  0  0  0  0  0  0  0  0  0  0
    2.3148    3.4816   10.2190 C   0  0  0  0  0  0  0  0  0  0  0  0
    1.4344    2.6520   10.0692 O   0  0  0  0  0  0  0  0  0  0  0  0
    3.1748    3.6335   11.4104 C   0  0  0  0  0  0  0  0  0  0  0  0
    3.2626    2.8330   12.5315 C   0  0  0  0  0  0  0  0  0  0  0  0
    4.1553    3.1905   13.5317 C   0  0  0  0  0  0  0  0  0  0  0  0
    4.9303    4.3308   13.3873 C   0  0  0  0  0  0  0  0  0  0  0  0
    6.2732    4.8568   14.9313 I   0  0  0  0  0  0  0  0  0  0  0  0
    4.8612    5.1400   12.2603 C   0  0  0  0  0  0  0  0  0  0  0  0
    3.9748    4.7795   11.2603 C   0  0  0  0  0  0  0  0  0  0  0  0
    3.6751    5.3958    9.9669 C   0  0  0  0  0  0  0  0  0  0  0  0
    4.2263    6.5628    9.4988 C   0  0  0  0  0  0  0  0  0  0  0  0
    3.8549    7.2245    8.3134 C   0  0  0  0  0  0  0  0  0  0  0  0
    3.6093    7.8518    7.3813 N   0  0  0  0  0  0  0  0  0  0  0  0
    5.2395    7.2897   10.1557 C   0  0  0  0  0  0  0  0  0  0  0  0
    6.0804    7.9268   10.6095 N   0  0  0  0  0  0  0  0  0  0  0  0
   -1.8187   -3.0475   -8.6549 H   0  0  0  0  0  0  0  0  0  0  0  0
    3.3219    0.4521   -8.1217 H   0  0  0  0  0  0  0  0  0  0  0  0
    2.2135   -2.0016  -12.4154 H   0  0  0  0  0  0  0  0  0  0  0  0
    5.3643   -0.6578  -12.5830 H   0  0  0  0  0  0  0  0  0  0  0  0
    3.7101    0.8610  -14.0156 H   0  0  0  0  0  0  0  0  0  0  0  0
    6.1439    1.8184  -14.2664 H   0  0  0  0  0  0  0  0  0  0  0  0
    6.7561    3.1180  -12.0317 H   0  0  0  0  0  0  0  0  0  0  0  0
    4.6984    2.9606  -10.4044 H   0  0  0  0  0  0  0  0  0  0  0  0
    2.6710    1.7833  -11.7154 H   0  0  0  0  0  0  0  0  0  0  0  0
    3.3505    3.1162  -12.6774 H   0  0  0  0  0  0  0  0  0  0  0  0
    5.9647    0.6161  -10.3921 H   0  0  0  0  0  0  0  0  0  0  0  0
    3.4000   -2.7591   -6.9696 H   0  0  0  0  0  0  0  0  0  0  0  0
    4.2266   -3.8098   -9.0451 H   0  0  0  0  0  0  0  0  0  0  0  0
    1.8997   -7.7842  -10.6358 H   0  0  0  0  0  0  0  0  0  0  0  0
    2.2978   -7.2697  -12.2910 H   0  0  0  0  0  0  0  0  0  0  0  0
    0.9937   -6.4454  -11.4157 H   0  0  0  0  0  0  0  0  0  0  0  0
    0.8130   -6.3912   -9.0779 H   0  0  0  0  0  0  0  0  0  0  0  0
   -0.0184   -5.3258   -7.0621 H   0  0  0  0  0  0  0  0  0  0  0  0
    1.7404   -0.9401   -4.6626 H   0  0  0  0  0  0  0  0  0  0  0  0
    3.3094   -0.6022   -2.7764 H   0  0  0  0  0  0  0  0  0  0  0  0
    5.0353   -4.6040   -0.5231 H   0  0  0  0  0  0  0  0  0  0  0  0
    6.5078   -3.6629   -0.2126 H   0  0  0  0  0  0  0  0  0  0  0  0
    6.1901   -4.2530   -1.8562 H   0  0  0  0  0  0  0  0  0  0  0  0
    4.1372   -4.7994   -2.7297 H   0  0  0  0  0  0  0  0  0  0  0  0
    2.5879   -5.1212   -4.5888 H   0  0  0  0  0  0  0  0  0  0  0  0
   -6.7166   -2.6466   -3.3930 H   0  0  0  0  0  0  0  0  0  0  0  0
   -8.1712   -1.3375   -4.8342 H   0  0  0  0  0  0  0  0  0  0  0  0
   -9.6743   -0.1579   -6.1265 H   0  0  0  0  0  0  0  0  0  0  0  0
   -9.8824    1.5923   -6.3347 H   0  0  0  0  0  0  0  0  0  0  0  0
   -9.2528    0.9665   -4.7911 H   0  0  0  0  0  0  0  0  0  0  0  0
   -4.8698    1.1482   -5.9268 H   0  0  0  0  0  0  0  0  0  0  0  0
   -3.4181   -0.1387   -4.4306 H   0  0  0  0  0  0  0  0  0  0  0  0
   -6.1756   -1.4060   -1.3551 H   0  0  0  0  0  0  0  0  0  0  0  0
   -6.9265   -2.5245    0.6956 H   0  0  0  0  0  0  0  0  0  0  0  0
   -5.0074   -6.2876    3.5638 H   0  0  0  0  0  0  0  0  0  0  0  0
   -3.8174   -5.4287    2.5628 H   0  0  0  0  0  0  0  0  0  0  0  0
   -4.7419   -6.8151    1.8903 H   0  0  0  0  0  0  0  0  0  0  0  0
   -3.9443   -5.5380    0.1383 H   0  0  0  0  0  0  0  0  0  0  0  0
   -3.2040   -4.4340   -1.8862 H   0  0  0  0  0  0  0  0  0  0  0  0
   -4.4698    0.0464   -0.6156 H   0  0  0  0  0  0  0  0  0  0  0  0
   -6.6490    0.9811   -1.2596 H   0  0  0  0  0  0  0  0  0  0  0  0
   -6.6655    3.4789   -5.3004 H   0  0  0  0  0  0  0  0  0  0  0  0
   -6.6502    4.8908   -4.1869 H   0  0  0  0  0  0  0  0  0  0  0  0
   -8.1823    4.2877   -4.8534 H   0  0  0  0  0  0  0  0  0  0  0  0
   -4.6915    3.6855   -3.9212 H   0  0  0  0  0  0  0  0  0  0  0  0
   -2.5402    2.7918   -3.2649 H   0  0  0  0  0  0  0  0  0  0  0  0
    0.1745    1.0946   -0.4139 H   0  0  0  0  0  0  0  0  0  0  0  0
    2.3094    1.5971   -1.4396 H   0  0  0  0  0  0  0  0  0  0  0  0
    3.6072    3.3324   -2.4268 H   0  0  0  0  0  0  0  0  0  0  0  0
    4.4531    1.7498   -2.3442 H   0  0  0  0  0  0  0  0  0  0  0  0
    4.9900    2.9907   -3.4939 H   0  0  0  0  0  0  0  0  0  0  0  0
    0.5105    1.3418   -5.3148 H   0  0  0  0  0  0  0  0  0  0  0  0
   -1.6459    0.8380   -4.2784 H   0  0  0  0  0  0  0  0  0  0  0  0
    1.0901   -0.4672    3.1893 H   0  0  0  0  0  0  0  0  0  0  0  0
    3.2680   -1.3584    2.6158 H   0  0  0  0  0  0  0  0  0  0  0  0
    6.4116   -3.2211    2.5128 H   0  0  0  0  0  0  0  0  0  0  0  0
    5.3141   -2.2307    3.4972 H   0  0  0  0  0  0  0  0  0  0  0  0
    5.2608   -2.1298    1.7056 H   0  0  0  0  0  0  0  0  0  0  0  0
    1.8341   -5.3245    3.3236 H   0  0  0  0  0  0  0  0  0  0  0  0
   -0.3858   -4.4280    3.8559 H   0  0  0  0  0  0  0  0  0  0  0  0
   -0.7934   -3.2367    6.0498 H   0  0  0  0  0  0  0  0  0  0  0  0
   -2.5420   -4.5595    7.1652 H   0  0  0  0  0  0  0  0  0  0  0  0
   -6.8561   -4.9393    4.8262 H   0  0  0  0  0  0  0  0  0  0  0  0
   -7.5827   -5.1499    6.4335 H   0  0  0  0  0  0  0  0  0  0  0  0
   -7.0181   -3.5401    5.9319 H   0  0  0  0  0  0  0  0  0  0  0  0
   -5.3754   -3.2678    4.2396 H   0  0  0  0  0  0  0  0  0  0  0  0
   -3.6499   -1.9917    3.1170 H   0  0  0  0  0  0  0  0  0  0  0  0
   -3.2409    1.6565    4.5569 H   0  0  0  0  0  0  0  0  0  0  0  0
   -5.5374    1.0681    4.0626 H   0  0  0  0  0  0  0  0  0  0  0  0
   -6.5366   -1.0969    2.9958 H   0  0  0  0  0  0  0  0  0  0  0  0
   -7.6223    0.3122    3.2027 H   0  0  0  0  0  0  0  0  0  0  0  0
   -8.2969   -1.3301    3.1383 H   0  0  0  0  0  0  0  0  0  0  0  0
   -5.4869   -1.8184    7.2141 H   0  0  0  0  0  0  0  0  0  0  0  0
   -3.1346   -1.3108    7.6424 H   0  0  0  0  0  0  0  0  0  0  0  0
   -2.6503    1.0942    8.7683 H   0  0  0  0  0  0  0  0  0  0  0  0
   -1.5928    0.6916   10.9283 H   0  0  0  0  0  0  0  0  0  0  0  0
    0.1104    1.5010   12.3596 H   0  0  0  0  0  0  0  0  0  0  0  0
   -0.8359    0.1159   13.0002 H   0  0  0  0  0  0  0  0  0  0  0  0
    0.7597    0.4859   13.6771 H   0  0  0  0  0  0  0  0  0  0  0  0
    1.6502   -1.3026    8.9748 H   0  0  0  0  0  0  0  0  0  0  0  0
    0.5643   -0.9000    6.7878 H   0  0  0  0  0  0  0  0  0  0  0  0
    0.4749    5.4766    3.8538 H   0  0  0  0  0  0  0  0  0  0  0  0
   -0.0247    5.5810    1.4613 H   0  0  0  0  0  0  0  0  0  0  0  0
   -0.4715    4.2591   -1.9816 H   0  0  0  0  0  0  0  0  0  0  0  0
   -0.6170    3.8740   -0.2523 H   0  0  0  0  0  0  0  0  0  0  0  0
   -0.6836    5.5785   -0.8097 H   0  0  0  0  0  0  0  0  0  0  0  0
    3.8520    4.0023    0.5843 H   0  0  0  0  0  0  0  0  0  0  0  0
    4.3531    3.9002    2.9973 H   0  0  0  0  0  0  0  0  0  0  0  0
    4.3226    2.9657    6.4487 H   0  0  0  0  0  0  0  0  0  0  0  0
    6.4593    3.7228    7.4183 H   0  0  0  0  0  0  0  0  0  0  0  0
    8.5913    8.2975    7.9150 H   0  0  0  0  0  0  0  0  0  0  0  0
    6.8649    8.3309    7.4971 H   0  0  0  0  0  0  0  0  0  0  0  0
    8.1081    8.2498    6.2045 H   0  0  0  0  0  0  0  0  0  0  0  0
    6.0453    7.4668    5.3930 H   0  0  0  0  0  0  0  0  0  0  0  0
    3.9088    6.7333    4.4701 H   0  0  0  0  0  0  0  0  0  0  0  0
    2.8956    5.4418    7.4227 H   0  0  0  0  0  0  0  0  0  0  0  0
    2.6592    1.9433   12.6160 H   0  0  0  0  0  0  0  0  0  0  0  0
    4.2472    2.5823   14.4182 H   0  0  0  0  0  0  0  0  0  0  0  0
    5.4865    6.0138   12.1768 H   0  0  0  0  0  0  0  0  0  0  0  0
  1  2  2  0  0  0  0
  2  3  1  0  0  0  0
  3  4  2  0  0  0  0
  3  5  1  0  0  0  0
  5  6  2  0  0  0  0
  6  7  1  0  0  0  0
  7  8  2  0  0  0  0
  8  9  1  0  0  0  0
  9 10  2  0  0  0  0
 10 11  1  0  0  0  0
 11 12  2  0  0  0  0
 12 13  1  0  0  0  0
 13 14  3  0  0  0  0
 12 15  1  0  0  0  0
 15 16  3  0  0  0  0
  8 17  1  0  0  0  0
 17 18  1  0  0  0  0
 18 19  1  0  0  0  0
 19 20  2  0  0  0  0
 20 21  1  0  0  0  0
 21 22  1  0  0  0  0
 21 23  1  0  0  0  0
  1 24  1  0  0  0  0
 24 25  2  0  0  0  0
 25 26  1  0  0  0  0
 26 27  1  0  0  0  0
 27 28  2  0  0  0  0
 28 29  1  0  0  0  0
 29 30  2  0  0  0  0
 30 31  1  0  0  0  0
 31 32  1  0  0  0  0
 30 33  1  0  0  0  0
 33 34  2  0  0  0  0
 26 35  1  0  0  0  0
 35 36  2  0  0  0  0
 36 37  1  0  0  0  0
 37 38  2  0  0  0  0
 38 39  1  0  0  0  0
 39 40  1  0  0  0  0
 38 41  1  0  0  0  0
 41 42  2  0  0  0  0
 25 43  1  0  0  0  0
 43 44  1  0  0  0  0
 44 45  1  0  0  0  0
 45 46  2  0  0  0  0
 46 47  1  0  0  0  0
 47 48  1  0  0  0  0
 48 49  2  0  0  0  0
 49 50  1  0  0  0  0
 50 51  2  0  0  0  0
 51 52  1  0  0  0  0
 52 53  1  0  0  0  0
 51 54  1  0  0  0  0
 54 55  2  0  0  0  0
 47 56  1  0  0  0  0
 56 57  2  0  0  0  0
 57 58  1  0  0  0  0
 58 59  2  0  0  0  0
 59 60  1  0  0  0  0
 60 61  1  0  0  0  0
 59 62  1  0  0  0  0
 62 63  2  0  0  0  0
 46 64  1  0  0  0  0
 64 65  1  0  0  0  0
 45 66  1  0  0  0  0
 66 67  2  0  0  0  0
 67 68  1  0  0  0  0
 68 69  1  0  0  0  0
 69 70  2  0  0  0  0
 70 71  1  0  0  0  0
 71 72  2  0  0  0  0
 72 73  1  0  0  0  0
 73 74  1  0  0  0  0
 72 75  1  0  0  0  0
 75 76  2  0  0  0  0
 68 77  1  0  0  0  0
 77 78  2  0  0  0  0
 78 79  1  0  0  0  0
 79 80  2  0  0  0  0
 80 81  1  0  0  0  0
 81 82  1  0  0  0  0
 80 83  1  0  0  0  0
 83 84  2  0  0  0  0
 67 85  1  0  0  0  0
 85 86  1  0  0  0  0
 86 87  1  0  0  0  0
 87 88  2  0  0  0  0
 88 89  1  0  0  0  0
 89 90  1  0  0  0  0
 90 91  2  0  0  0  0
 91 92  1  0  0  0  0
 92 93  2  0  0  0  0
 93 94  1  0  0  0  0
 94 95  1  0  0  0  0
 93 96  1  0  0  0  0
 96 97  2  0  0  0  0
 89 98  1  0  0  0  0
 98 99  2  0  0  0  0
 99100  1  0  0  0  0
100101  2  0  0  0  0
101102  1  0  0  0  0
102103  1  0  0  0  0
101104  1  0  0  0  0
104105  2  0  0  0  0
 88106  1  0  0  0  0
106107  1  0  0  0  0
 87108  1  0  0  0  0
108109  2  0  0  0  0
109110  1  0  0  0  0
110111  1  0  0  0  0
111112  2  0  0  0  0
112113  1  0  0  0  0
113114  2  0  0  0  0
114115  1  0  0  0  0
115116  1  0  0  0  0
114117  1  0  0  0  0
117118  2  0  0  0  0
110119  1  0  0  0  0
119120  2  0  0  0  0
120121  1  0  0  0  0
121122  2  0  0  0  0
122123  1  0  0  0  0
123124  1  0  0  0  0
122125  1  0  0  0  0
125126  2  0  0  0  0
109127  1  0  0  0  0
127128  1  0  0  0  0
128129  1  0  0  0  0
129130  2  0  0  0  0
130131  1  0  0  0  0
131132  1  0  0  0  0
132133  2  0  0  0  0
133134  1  0  0  0  0
134135  2  0  0  0  0
135136  1  0  0  0  0
136137  1  0  0  0  0
135138  1  0  0  0  0
138139  2  0  0  0  0
131140  1  0  0  0  0
140141  2  0  0  0  0
141142  1  0  0  0  0
142143  2  0  0  0  0
143144  1  0  0  0  0
144145  1  0  0  0  0
143146  1  0  0  0  0
146147  2  0  0  0  0
130148  1  0  0  0  0
148149  1  0  0  0  0
129150  1  0  0  0  0
150151  2  0  0  0  0
151152  1  0  0  0  0
152153  2  0  0  0  0
152154  1  0  0  0  0
154155  2  0  0  0  0
155156  1  0  0  0  0
156157  2  0  0  0  0
157158  1  0  0  0  0
157159  1  0  0  0  0
159160  2  0  0  0  0
160161  1  0  0  0  0
161162  2  0  0  0  0
162163  1  0  0  0  0
163164  3  0  0  0  0
162165  1  0  0  0  0
165166  3  0  0  0  0
 11  2  1  0  0  0  0
 23 17  1  0  0  0  0
 65 24  1  0  0  0  0
107 66  1  0  0  0  0
149108  1  0  0  0  0
161151  1  0  0  0  0
 10  5  1  0  0  0  0
 22 18  1  0  0  0  0
 34 27  1  0  0  0  0
 42 35  1  0  0  0  0
 64 43  2  0  0  0  0
 76 69  1  0  0  0  0
 84 77  1  0  0  0  0
106 85  2  0  0  0  0
118111  1  0  0  0  0
126119  1  0  0  0  0
148127  2  0  0  0  0
160154  1  0  0  0  0
 23  7  1  0  0  0  0
 55 48  1  0  0  0  0
 63 56  1  0  0  0  0
 97 90  1  0  0  0  0
105 98  1  0  0  0  0
139132  1  0  0  0  0
147140  1  0  0  0  0
  1167  1  0  0  0  0
  6168  1  0  0  0  0
  9169  1  0  0  0  0
 17170  1  0  0  0  0
 18171  1  0  0  0  0
 19172  1  0  0  0  0
 20173  1  0  0  0  0
 21174  1  0  0  0  0
 22175  1  0  0  0  0
 22176  1  0  0  0  0
 23177  1  0  0  0  0
 28178  1  0  0  0  0
 29179  1  0  0  0  0
 32180  1  0  0  0  0
 32181  1  0  0  0  0
 32182  1  0  0  0  0
 33183  1  0  0  0  0
 34184  1  0  0  0  0
 36185  1  0  0  0  0
 37186  1  0  0  0  0
 40187  1  0  0  0  0
 40188  1  0  0  0  0
 40189  1  0  0  0  0
 41190  1  0  0  0  0
 42191  1  0  0  0  0
 49192  1  0  0  0  0
 50193  1  0  0  0  0
 53194  1  0  0  0  0
 53195  1  0  0  0  0
 53196  1  0  0  0  0
 54197  1  0  0  0  0
 55198  1  0  0  0  0
 57199  1  0  0  0  0
 58200  1  0  0  0  0
 61201  1  0  0  0  0
 61202  1  0  0  0  0
 61203  1  0  0  0  0
 62204  1  0  0  0  0
 63205  1  0  0  0  0
 70206  1  0  0  0  0
 71207  1  0  0  0  0
 74208  1  0  0  0  0
 74209  1  0  0  0  0
 74210  1  0  0  0  0
 75211  1  0  0  0  0
 76212  1  0  0  0  0
 78213  1  0  0  0  0
 79214  1  0  0  0  0
 82215  1  0  0  0  0
 82216  1  0  0  0  0
 82217  1  0  0  0  0
 83218  1  0  0  0  0
 84219  1  0  0  0  0
 91220  1  0  0  0  0
 92221  1  0  0  0  0
 95222  1  0  0  0  0
 95223  1  0  0  0  0
 95224  1  0  0  0  0
 96225  1  0  0  0  0
 97226  1  0  0  0  0
 99227  1  0  0  0  0
100228  1  0  0  0  0
103229  1  0  0  0  0
103230  1  0  0  0  0
103231  1  0  0  0  0
104232  1  0  0  0  0
105233  1  0  0  0  0
112234  1  0  0  0  0
113235  1  0  0  0  0
116236  1  0  0  0  0
116237  1  0  0  0  0
116238  1  0  0  0  0
117239  1  0  0  0  0
118240  1  0  0  0  0
120241  1  0  0  0  0
121242  1  0  0  0  0
124243  1  0  0  0  0
124244  1  0  0  0  0
124245  1  0  0  0  0
125246  1  0  0  0  0
126247  1  0  0  0  0
133248  1  0  0  0  0
134249  1  0  0  0  0
137250  1  0  0  0  0
137251  1  0  0  0  0
137252  1  0  0  0  0
138253  1  0  0  0  0
139254  1  0  0  0  0
141255  1  0  0  0  0
142256  1  0  0  0  0
145257  1  0  0  0  0
145258  1  0  0  0  0
145259  1  0  0  0  0
146260  1  0  0  0  0
147261  1  0  0  0  0
150262  1  0  0  0  0
155263  1  0  0  0  0
156264  1  0  0  0  0
159265  1  0  0  0  0
M  END
