212

C         -5.47520       -0.47290       -2.91240
C         -5.89510       -0.38030       -4.22280
C         -5.45450        0.59990       -5.21340
O         -4.60890        1.47340       -5.08530
C         -6.24010        0.34370       -6.43280
C         -6.16200        1.03170       -7.64130
C         -7.00990        0.55370       -8.61130
C         -7.87640       -0.52410       -8.39220
C         -7.96960       -1.20490       -7.20060
C         -7.11080       -0.73920       -6.20130
C         -6.89620       -1.22140       -4.83530
C         -7.51980       -2.31260       -4.27740
C         -7.22070       -2.88010       -3.02420
N         -7.01360       -3.43530       -2.03820
C         -8.53410       -3.06020       -4.90820
N         -9.37390       -3.70670       -5.35170
C         -8.41930       -0.47740       -9.79920
C         -7.88650       -1.54600      -10.77710
C         -8.19990       -0.97600      -12.14160
C         -7.38070        0.04690      -12.34950
C         -6.49970        0.18520      -11.12890
C         -6.37470       -1.28960      -10.72550
C         -7.45350        0.72640      -10.04290
C         -4.47500        0.21610       -2.23280
C         -4.09750       -0.08090       -0.89590
N         -4.80220       -0.85870       -0.01820
C         -4.08880       -1.54860        0.98290
C         -4.49420       -1.49570        2.31250
C         -3.77800       -2.15380        3.29220
C         -2.64300       -2.88010        2.95220
S         -1.63820       -3.74000        4.11720
C         -2.65820       -3.79000        5.61760
C         -2.23810       -2.94030        1.61940
C         -2.95350       -2.28460        0.64350
C         -6.20640       -0.85820        0.03280
C         -6.93180        0.29430       -0.25920
C         -8.31110        0.28830       -0.20980
C         -8.98970       -0.87010        0.14930
S        -10.74550       -0.99870        0.24690
C        -11.34070        0.59870       -0.37970
C         -8.26470       -2.01580        0.47040
C         -6.88940       -2.01510        0.40920
C         -2.87520        0.53680       -0.57540
S         -1.83940        0.54040        0.81420
C         -0.73270        1.65540        0.01180
C         -1.18780        2.04200       -1.22650
N         -0.65120        3.09600       -1.99280
C         -0.61010        2.91380       -3.37310
C         -0.56750        3.99370       -4.25470
C         -0.60570        3.78420       -5.61690
C         -0.65970        2.49390       -6.12230
S         -0.84840        2.23610       -7.87250
C         -2.28930        1.12210       -7.84330
C         -0.57730        1.41280       -5.25920
C         -0.54660        1.62120       -3.89830
C         -1.07550        4.35470       -1.46290
C         -0.40650        4.91850       -0.38880
C         -0.83460        6.11140        0.16670
C         -1.94920        6.75500       -0.34960
S         -2.58850        8.28140        0.26320
C         -1.40980        8.76380        1.55700
C         -2.64210        6.17620       -1.41220
C         -2.21730        4.98500       -1.95640
C         -2.39050        1.37340       -1.56950
S         -3.39030        1.39770       -2.97520
C          0.47220        1.94110        0.73800
C          1.79410        1.72320        0.39990
N          2.29250        1.26320       -0.82370
C          2.35070        2.08880       -1.95290
C          2.38750        3.47600       -1.83430
C          2.46660        4.26930       -2.95660
C          2.54050        3.69710       -4.22450
S          2.66980        4.81220       -5.58470
C          2.71910        3.73800       -7.04470
C          2.52340        2.31500       -4.34810
C          2.41410        1.52220       -3.22310
C          3.16330        0.16360       -0.71260
C          2.81720       -0.89470        0.13030
C          3.68380       -1.94640        0.32720
C          4.91620       -1.96890       -0.32010
S          5.98970       -3.32800        0.04370
C          7.19260       -3.29470       -1.31990
C          5.25810       -0.93300       -1.17730
C          4.38980        0.12400       -1.36950
C          2.62740        1.83040        1.54670
S          4.32000        1.59950        1.80600
C          4.10360        1.82360        3.53570
C          2.79380        2.08360        3.87850
N          2.32080        2.17710        5.17270
C          3.21670        2.53000        6.19650
C          3.94680        3.71470        6.11280
C          4.87230        4.02620        7.08560
C          5.09180        3.15800        8.15310
S          6.34120        3.60800        9.31010
C          6.69760        2.04380       10.16010
C          4.33150        1.99890        8.26180
C          3.40060        1.69170        7.29260
C          1.08550        1.59920        5.50460
C          0.30660        2.18710        6.49660
C         -0.93620        1.67520        6.81400
C         -1.42300        0.56660        6.13540
S         -3.01650       -0.14130        6.42720
C         -3.69360        0.82480        7.80480
C         -0.63670       -0.04500        5.16300
C          0.60860        0.45810        4.85800
C          1.96160        2.09980        2.72630
S          0.26960        2.31000        2.44900
C          5.26820        1.67010        4.38760
C          5.84250        0.47670        4.64370
C          5.25350       -0.75230        4.23480
C          5.72450       -2.01340        4.38820
C          5.08210       -3.12410        3.62780
O          3.95930       -3.12900        3.17880
C          6.11760       -4.16380        3.51570
C          6.07320       -5.31610        2.73400
C          7.23470       -6.04850        2.75620
C          8.35980       -5.67110        3.50290
C          8.40960       -4.55190        4.29930
C          7.23800       -3.79020        4.28950
C          6.92130       -2.55320        5.00010
C          7.52530       -2.12370        6.15220
C          8.65600       -2.74440        6.72440
N          9.58250       -3.19560        7.22990
C          7.02820       -1.09930        6.98170
N          6.65090       -0.32120        7.73820
C          9.17900       -6.83660        3.00670
C         10.21740       -6.52120        1.90870
C         10.50930       -7.86830        1.28780
C          9.44240       -8.22920        0.58620
C          8.41140       -7.13230        0.72160
C          9.33540       -5.91070        0.81160
C          7.92270       -7.26050        2.18030
H         -5.97210       -1.22500       -2.31310
H         -5.48450        1.86180       -7.76620
H         -8.64710       -2.02820       -7.04880
H         -9.49120       -0.31300       -9.89120
H         -8.23060       -2.55720      -10.57770
H         -8.99630       -1.32840      -12.77060
H         -7.35580        0.71970      -13.18660
H         -5.58010        0.75140      -11.25170
H         -5.83260       -1.87480      -11.46660
H         -5.93150       -1.44520       -9.74350
H         -7.88170        1.69470      -10.29590
H         -5.36940       -0.92340        2.58160
H         -4.09990       -2.07320        4.31740
H         -2.12680       -4.43740        6.30830
H         -3.62900       -4.21510        5.38190
H         -2.75370       -2.79500        6.04270
H         -1.35950       -3.51170        1.36300
H         -2.64530       -2.34350       -0.38980
H         -6.41270        1.20230       -0.52900
H         -8.84170        1.19740       -0.44280
H        -10.96980        0.76220       -1.38730
H        -11.04000        1.40050        0.28850
H        -12.42330        0.51990       -0.39410
H         -8.79500       -2.91280        0.74820
H         -6.33720       -2.91240        0.63770
H         -0.52450        5.00240       -3.87470
H         -0.60900        4.62370       -6.29480
H         -2.94570        1.42710       -7.03350
H         -1.96600        0.09370       -7.70720
H         -2.78660        1.22640       -8.80260
H         -0.55200        0.40620       -5.64800
H         -0.47400        0.77380       -3.23370
H          0.45140        4.41830        0.02790
H         -0.28870        6.52070        1.00120
H         -1.75930        9.72310        1.92600
H         -0.41680        8.87230        1.13090
H         -1.41890        8.03450        2.36190
H         -3.52200        6.66960       -1.79590
H         -2.76930        4.53270       -2.76720
H          2.38180        3.92810       -0.85430
H          2.49150        5.34430       -2.86360
H          2.79640        4.40810       -7.89520
H          1.80100        3.16210       -7.11540
H          3.59310        3.09460       -7.00290
H          2.57620        1.84250       -5.31520
H          2.39110        0.44740       -3.32660
H          1.86430       -0.88310        0.63910
H          3.42080       -2.74730        1.00010
H          6.66590       -3.22590       -2.26660
H          7.88570       -2.46750       -1.19430
H          7.73090       -4.23540       -1.26110
H          6.21030       -0.91970       -1.68330
H          4.68040        0.93940       -2.01460
H          3.78850        4.37810        5.27500
H          5.44770        4.93740        7.02260
H          7.63390        2.20180       10.68650
H          5.91060        1.81650       10.87380
H          6.80830        1.25350        9.42360
H          4.47080        1.32070        9.08650
H          2.82330        0.78190        7.36760
H          0.67940        3.05660        7.01780
H         -1.51570        2.16080        7.58260
H         -3.82580        1.86000        7.50330
H         -3.04140        0.74320        8.66950
H         -4.65890        0.38070        8.02760
H         -1.00500       -0.91950        4.65000
H          1.21830       -0.04530        4.12320
H          5.71010        2.56950        4.79800
H          6.76140        0.45490        5.20790
H          4.32590       -0.68060        3.67690
H          5.19360       -5.56600        2.16350
H          9.28060       -4.26700        4.86700
H          9.55740       -7.51450        3.76900
H         11.07310       -5.94170        2.24440
H         11.41000       -8.42680        1.46290
H          9.27400       -9.14970        0.05860
H          7.61830       -7.10800       -0.02080
H          9.88920       -5.74380       -0.11160
H          8.82810       -4.99400        1.10670
H          7.45920       -8.22180        2.39220
