
  xtb     02052204143D
 energy: -254.943882189844 gnorm: 0.000213325741 xtb: 6.4.1 (unknown)
134154  0     0  0            999 V2000
   -7.9420   -3.9604    3.3740 C   0  0  0  0  0  0  0  0  0  0  0  0
   -8.9416   -3.1304    2.9685 C   0  0  0  0  0  0  0  0  0  0  0  0
   -8.7263   -1.8168    2.3044 C   0  0  0  0  0  0  0  0  0  0  0  0
   -7.6787   -1.2365    2.1120 O   0  0  0  0  0  0  0  0  0  0  0  0
  -10.0456   -1.4168    1.7824 C   0  0  0  0  0  0  0  0  0  0  0  0
  -10.3331   -0.2673    1.0486 C   0  0  0  0  0  0  0  0  0  0  0  0
  -11.6449   -0.1692    0.6533 C   0  0  0  0  0  0  0  0  0  0  0  0
  -12.6029   -1.1465    0.9571 C   0  0  0  0  0  0  0  0  0  0  0  0
  -12.3341   -2.2836    1.6810 C   0  0  0  0  0  0  0  0  0  0  0  0
  -11.0038   -2.4011    2.0978 C   0  0  0  0  0  0  0  0  0  0  0  0
  -10.3515   -3.4544    2.8688 C   0  0  0  0  0  0  0  0  0  0  0  0
  -10.9718   -4.5169    3.4713 C   0  0  0  0  0  0  0  0  0  0  0  0
  -10.3220   -5.4613    4.2948 C   0  0  0  0  0  0  0  0  0  0  0  0
   -9.8752   -6.2551    4.9937 N   0  0  0  0  0  0  0  0  0  0  0  0
  -12.3520   -4.7916    3.3816 C   0  0  0  0  0  0  0  0  0  0  0  0
  -13.4642   -5.0744    3.3432 N   0  0  0  0  0  0  0  0  0  0  0  0
  -13.6995   -0.4121    0.2262 C   0  0  0  0  0  0  0  0  0  0  0  0
  -14.0823   -0.9536   -1.1677 C   0  0  0  0  0  0  0  0  0  0  0  0
  -14.7997    0.2054   -1.8216 C   0  0  0  0  0  0  0  0  0  0  0  0
  -13.8939    1.1324   -2.1057 C   0  0  0  0  0  0  0  0  0  0  0  0
  -12.5489    0.6157   -1.6485 C   0  0  0  0  0  0  0  0  0  0  0  0
  -12.7405   -0.8841   -1.9084 C   0  0  0  0  0  0  0  0  0  0  0  0
  -12.6325    0.6791   -0.1084 C   0  0  0  0  0  0  0  0  0  0  0  0
   -6.5914   -3.5527    3.5767 C   0  0  0  0  0  0  0  0  0  0  0  0
   -6.2195   -2.3154    4.1352 C   0  0  0  0  0  0  0  0  0  0  0  0
   -4.8427   -1.8750    4.1764 C   0  0  0  0  0  0  0  0  0  0  0  0
   -4.7269   -0.6655    4.7288 N   0  0  0  0  0  0  0  0  0  0  0  0
   -6.1798   -0.1577    5.1734 S   0  0  0  0  0  4  0  0  0  0  0  0
   -7.0352   -1.4228    4.7013 N   0  0  0  0  0  0  0  0  0  0  0  0
   -3.7741   -2.6397    3.6681 C   0  0  0  0  0  0  0  0  0  0  0  0
   -4.1331   -3.9350    3.2340 C   0  0  0  0  0  0  0  0  0  0  0  0
   -3.3100   -4.8783    2.7671 N   0  0  0  0  0  0  0  0  0  0  0  0
   -4.1638   -6.1676    2.3489 S   0  0  0  0  0  0  0  0  0  0  0  0
   -5.6216   -5.6191    2.7193 N   0  0  0  0  0  0  0  0  0  0  0  0
   -5.5125   -4.3821    3.2111 C   0  0  0  0  0  0  0  0  0  0  0  0
   -2.4726   -2.0897    3.5197 C   0  0  0  0  0  0  0  0  0  0  0  0
   -1.3920   -2.6870    2.9131 C   0  0  0  0  0  0  0  0  0  0  0  0
   -0.2953   -1.8245    2.7543 C   0  0  0  0  0  0  0  0  0  0  0  0
    0.9091   -2.0850    2.0643 C   0  0  0  0  0  0  0  0  0  0  0  0
    1.1318   -3.3571    1.3997 C   0  0  0  0  0  0  0  0  0  0  0  0
    2.5716   -4.2828    1.6996 S   0  0  0  0  0  0  0  0  0  0  0  0
    2.0793   -5.5437    0.6225 C   0  0  0  0  0  0  0  0  0  0  0  0
    2.9590   -6.7153    0.3593 C   0  0  0  0  0  0  0  0  0  0  0  0
    4.0550   -6.3535   -0.6460 C   0  0  0  0  0  0  0  0  0  0  0  0
    0.8745   -5.2431    0.0599 C   0  0  0  0  0  0  0  0  0  0  0  0
    0.0644   -6.2512   -1.0676 Cl  0  0  0  0  0  0  0  0  0  0  0  0
    0.3310   -4.0070    0.5006 C   0  0  0  0  0  0  0  0  0  0  0  0
   -1.1401   -3.3786   -0.1230 Cl  0  0  0  0  0  0  0  0  0  0  0  0
    1.8431   -1.0662    2.0283 C   0  0  0  0  0  0  0  0  0  0  0  0
    1.6305    0.1979    2.6461 C   0  0  0  0  0  0  0  0  0  0  0  0
    0.4074    0.4755    3.3057 C   0  0  0  0  0  0  0  0  0  0  0  0
    0.1463    1.7763    3.8788 C   0  0  0  0  0  0  0  0  0  0  0  0
    0.4653    3.0096    3.3785 C   0  0  0  0  0  0  0  0  0  0  0  0
    0.0554    4.0722    4.2057 C   0  0  0  0  0  0  0  0  0  0  0  0
   -0.5698    3.6626    5.3447 C   0  0  0  0  0  0  0  0  0  0  0  0
   -1.1353    4.4673    6.4667 C   0  0  0  0  0  0  0  0  0  0  0  0
   -0.9107    5.9661    6.3066 C   0  0  0  0  0  0  0  0  0  0  0  0
   -0.6807    1.9332    5.4049 S   0  0  0  0  0  0  0  0  0  0  0  0
   -0.5268   -0.5517    3.3403 C   0  0  0  0  0  0  0  0  0  0  0  0
   -2.1371   -0.4483    4.0079 S   0  0  0  0  0  0  0  0  0  0  0  0
    2.7355    1.0469    2.4724 C   0  0  0  0  0  0  0  0  0  0  0  0
    3.7326    0.5054    1.6906 C   0  0  0  0  0  0  0  0  0  0  0  0
    3.3675   -1.1254    1.1834 S   0  0  0  0  0  0  0  0  0  0  0  0
    4.9056    1.1565    1.2312 C   0  0  0  0  0  0  0  0  0  0  0  0
    5.7621    0.5441    0.2934 C   0  0  0  0  0  0  0  0  0  0  0  0
    6.8472    1.2385   -0.3640 C   0  0  0  0  0  0  0  0  0  0  0  0
    7.4773    0.4429   -1.2332 N   0  0  0  0  0  0  0  0  0  0  0  0
    6.7800   -1.0040   -1.2299 S   0  0  0  0  0  4  0  0  0  0  0  0
    5.6489   -0.7137   -0.1337 N   0  0  0  0  0  0  0  0  0  0  0  0
    7.1617    2.5825   -0.0769 C   0  0  0  0  0  0  0  0  0  0  0  0
    6.3956    3.1501    0.9637 C   0  0  0  0  0  0  0  0  0  0  0  0
    6.5462    4.3888    1.4363 N   0  0  0  0  0  0  0  0  0  0  0  0
    5.4140    4.6752    2.5312 S   0  0  0  0  0  0  0  0  0  0  0  0
    4.6619    3.2600    2.4736 N   0  0  0  0  0  0  0  0  0  0  0  0
    5.2718    2.4746    1.5820 C   0  0  0  0  0  0  0  0  0  0  0  0
    8.1600    3.3493   -0.7371 C   0  0  0  0  0  0  0  0  0  0  0  0
    8.6451    3.2079   -1.9998 C   0  0  0  0  0  0  0  0  0  0  0  0
    9.9385    3.8425   -2.3763 C   0  0  0  0  0  0  0  0  0  0  0  0
   10.5510    4.6728   -1.7441 O   0  0  0  0  0  0  0  0  0  0  0  0
   10.3282    3.2074   -3.6510 C   0  0  0  0  0  0  0  0  0  0  0  0
   11.5141    3.3938   -4.3591 C   0  0  0  0  0  0  0  0  0  0  0  0
   11.5987    2.6556   -5.5153 C   0  0  0  0  0  0  0  0  0  0  0  0
   10.5825    1.7874   -5.9375 C   0  0  0  0  0  0  0  0  0  0  0  0
    9.4055    1.5974   -5.2540 C   0  0  0  0  0  0  0  0  0  0  0  0
    9.2959    2.3460   -4.0789 C   0  0  0  0  0  0  0  0  0  0  0  0
    8.1838    2.4483   -3.1385 C   0  0  0  0  0  0  0  0  0  0  0  0
    6.8864    2.0939   -3.4065 C   0  0  0  0  0  0  0  0  0  0  0  0
    5.7874    2.4650   -2.6079 C   0  0  0  0  0  0  0  0  0  0  0  0
    4.8480    2.7634   -2.0178 N   0  0  0  0  0  0  0  0  0  0  0  0
    6.4745    1.3702   -4.5425 C   0  0  0  0  0  0  0  0  0  0  0  0
    6.0762    0.7528   -5.4253 N   0  0  0  0  0  0  0  0  0  0  0  0
   11.3415    1.3687   -7.1717 C   0  0  0  0  0  0  0  0  0  0  0  0
   12.0314   -0.0110   -7.1253 C   0  0  0  0  0  0  0  0  0  0  0  0
   13.0593    0.0620   -8.2312 C   0  0  0  0  0  0  0  0  0  0  0  0
   14.0210    0.8857   -7.8344 C   0  0  0  0  0  0  0  0  0  0  0  0
   13.6596    1.3828   -6.4532 C   0  0  0  0  0  0  0  0  0  0  0  0
   12.9469    0.1405   -5.9035 C   0  0  0  0  0  0  0  0  0  0  0  0
   12.4736    2.3384   -6.7033 C   0  0  0  0  0  0  0  0  0  0  0  0
   -8.1302   -5.0206    3.4890 H   0  0  0  0  0  0  0  0  0  0  0  0
   -9.5640    0.4579    0.8333 H   0  0  0  0  0  0  0  0  0  0  0  0
  -13.0795   -3.0287    1.9040 H   0  0  0  0  0  0  0  0  0  0  0  0
  -14.5635   -0.1308    0.8251 H   0  0  0  0  0  0  0  0  0  0  0  0
  -14.6013   -1.9081   -1.1583 H   0  0  0  0  0  0  0  0  0  0  0  0
  -15.8644    0.2533   -1.9553 H   0  0  0  0  0  0  0  0  0  0  0  0
  -14.0506    2.1094   -2.5241 H   0  0  0  0  0  0  0  0  0  0  0  0
  -11.6705    1.0905   -2.0772 H   0  0  0  0  0  0  0  0  0  0  0  0
  -12.8441   -1.1078   -2.9689 H   0  0  0  0  0  0  0  0  0  0  0  0
  -11.9624   -1.5121   -1.4784 H   0  0  0  0  0  0  0  0  0  0  0  0
  -12.7838    1.6888    0.2688 H   0  0  0  0  0  0  0  0  0  0  0  0
   -1.4189   -3.7094    2.5873 H   0  0  0  0  0  0  0  0  0  0  0  0
    3.4186   -7.0416    1.2940 H   0  0  0  0  0  0  0  0  0  0  0  0
    2.3504   -7.5303   -0.0359 H   0  0  0  0  0  0  0  0  0  0  0  0
    4.6966   -7.2122   -0.8245 H   0  0  0  0  0  0  0  0  0  0  0  0
    4.6606   -5.5355   -0.2632 H   0  0  0  0  0  0  0  0  0  0  0  0
    3.6131   -6.0458   -1.5902 H   0  0  0  0  0  0  0  0  0  0  0  0
    0.9346    3.1547    2.4223 H   0  0  0  0  0  0  0  0  0  0  0  0
    0.2238    5.1031    3.9538 H   0  0  0  0  0  0  0  0  0  0  0  0
   -2.2084    4.2643    6.5393 H   0  0  0  0  0  0  0  0  0  0  0  0
   -0.6848    4.1283    7.4047 H   0  0  0  0  0  0  0  0  0  0  0  0
   -1.3902    6.3319    5.4021 H   0  0  0  0  0  0  0  0  0  0  0  0
   -1.3338    6.4953    7.1567 H   0  0  0  0  0  0  0  0  0  0  0  0
    0.1516    6.1914    6.2556 H   0  0  0  0  0  0  0  0  0  0  0  0
    2.8260    2.0299    2.8945 H   0  0  0  0  0  0  0  0  0  0  0  0
    8.6098    4.1378   -0.1422 H   0  0  0  0  0  0  0  0  0  0  0  0
   12.2716    4.0740   -4.0023 H   0  0  0  0  0  0  0  0  0  0  0  0
    8.6307    0.9264   -5.5865 H   0  0  0  0  0  0  0  0  0  0  0  0
   10.8463    1.5650   -8.1207 H   0  0  0  0  0  0  0  0  0  0  0  0
   11.3533   -0.8598   -7.1423 H   0  0  0  0  0  0  0  0  0  0  0  0
   12.9563   -0.4319   -9.1796 H   0  0  0  0  0  0  0  0  0  0  0  0
   14.8817    1.2171   -8.3853 H   0  0  0  0  0  0  0  0  0  0  0  0
   14.4659    1.8029   -5.8580 H   0  0  0  0  0  0  0  0  0  0  0  0
   13.6234   -0.7049   -5.7889 H   0  0  0  0  0  0  0  0  0  0  0  0
   12.4152    0.3111   -4.9692 H   0  0  0  0  0  0  0  0  0  0  0  0
   12.7330    3.1815   -7.3408 H   0  0  0  0  0  0  0  0  0  0  0  0
  1  2  2  0  0  0  0
  2  3  1  0  0  0  0
  3  4  2  0  0  0  0
  3  5  1  0  0  0  0
  5  6  2  0  0  0  0
  6  7  1  0  0  0  0
  7  8  2  0  0  0  0
  8  9  1  0  0  0  0
  9 10  2  0  0  0  0
 10 11  1  0  0  0  0
 11 12  2  0  0  0  0
 12 13  1  0  0  0  0
 13 14  3  0  0  0  0
 12 15  1  0  0  0  0
 15 16  3  0  0  0  0
  8 17  1  0  0  0  0
 17 18  1  0  0  0  0
 18 19  1  0  0  0  0
 19 20  2  0  0  0  0
 20 21  1  0  0  0  0
 21 22  1  0  0  0  0
 21 23  1  0  0  0  0
  1 24  1  0  0  0  0
 24 25  2  0  0  0  0
 25 26  1  0  0  0  0
 26 27  1  0  0  0  0
 27 28  2  0  0  0  0
 28 29  2  0  0  0  0
 26 30  2  0  0  0  0
 30 31  1  0  0  0  0
 31 32  2  0  0  0  0
 32 33  1  0  0  0  0
 33 34  1  0  0  0  0
 34 35  2  0  0  0  0
 30 36  1  0  0  0  0
 36 37  2  0  0  0  0
 37 38  1  0  0  0  0
 38 39  2  0  0  0  0
 39 40  1  0  0  0  0
 40 41  1  0  0  0  0
 41 42  1  0  0  0  0
 42 43  1  0  0  0  0
 43 44  1  0  0  0  0
 42 45  2  0  0  0  0
 45 46  1  0  0  0  0
 45 47  1  0  0  0  0
 47 48  1  0  0  0  0
 39 49  1  0  0  0  0
 49 50  2  0  0  0  0
 50 51  1  0  0  0  0
 51 52  1  0  0  0  0
 52 53  2  0  0  0  0
 53 54  1  0  0  0  0
 54 55  2  0  0  0  0
 55 56  1  0  0  0  0
 56 57  1  0  0  0  0
 55 58  1  0  0  0  0
 51 59  2  0  0  0  0
 59 60  1  0  0  0  0
 50 61  1  0  0  0  0
 61 62  2  0  0  0  0
 62 63  1  0  0  0  0
 62 64  1  0  0  0  0
 64 65  2  0  0  0  0
 65 66  1  0  0  0  0
 66 67  1  0  0  0  0
 67 68  2  0  0  0  0
 68 69  2  0  0  0  0
 66 70  2  0  0  0  0
 70 71  1  0  0  0  0
 71 72  2  0  0  0  0
 72 73  1  0  0  0  0
 73 74  1  0  0  0  0
 74 75  2  0  0  0  0
 70 76  1  0  0  0  0
 76 77  2  0  0  0  0
 77 78  1  0  0  0  0
 78 79  2  0  0  0  0
 78 80  1  0  0  0  0
 80 81  2  0  0  0  0
 81 82  1  0  0  0  0
 82 83  2  0  0  0  0
 83 84  1  0  0  0  0
 84 85  2  0  0  0  0
 85 86  1  0  0  0  0
 86 87  2  0  0  0  0
 87 88  1  0  0  0  0
 88 89  3  0  0  0  0
 87 90  1  0  0  0  0
 90 91  3  0  0  0  0
 83 92  1  0  0  0  0
 92 93  1  0  0  0  0
 93 94  1  0  0  0  0
 94 95  2  0  0  0  0
 95 96  1  0  0  0  0
 96 97  1  0  0  0  0
 96 98  1  0  0  0  0
 11  2  1  0  0  0  0
 23 17  1  0  0  0  0
 35 24  1  0  0  0  0
 60 36  1  0  0  0  0
 75 64  1  0  0  0  0
 86 77  1  0  0  0  0
 98 92  1  0  0  0  0
 10  5  1  0  0  0  0
 22 18  1  0  0  0  0
 29 25  1  0  0  0  0
 35 31  1  0  0  0  0
 59 38  1  0  0  0  0
 69 65  1  0  0  0  0
 75 71  1  0  0  0  0
 85 80  1  0  0  0  0
 97 93  1  0  0  0  0
 23  7  1  0  0  0  0
 47 40  2  0  0  0  0
 63 49  1  0  0  0  0
 98 82  1  0  0  0  0
 58 52  1  0  0  0  0
  1 99  1  0  0  0  0
  6100  1  0  0  0  0
  9101  1  0  0  0  0
 17102  1  0  0  0  0
 18103  1  0  0  0  0
 19104  1  0  0  0  0
 20105  1  0  0  0  0
 21106  1  0  0  0  0
 22107  1  0  0  0  0
 22108  1  0  0  0  0
 23109  1  0  0  0  0
 37110  1  0  0  0  0
 43111  1  0  0  0  0
 43112  1  0  0  0  0
 44113  1  0  0  0  0
 44114  1  0  0  0  0
 44115  1  0  0  0  0
 53116  1  0  0  0  0
 54117  1  0  0  0  0
 56118  1  0  0  0  0
 56119  1  0  0  0  0
 57120  1  0  0  0  0
 57121  1  0  0  0  0
 57122  1  0  0  0  0
 61123  1  0  0  0  0
 76124  1  0  0  0  0
 81125  1  0  0  0  0
 84126  1  0  0  0  0
 92127  1  0  0  0  0
 93128  1  0  0  0  0
 94129  1  0  0  0  0
 95130  1  0  0  0  0
 96131  1  0  0  0  0
 97132  1  0  0  0  0
 97133  1  0  0  0  0
 98134  1  0  0  0  0
M  END
