206

C          1.05890        7.98150       -3.11790
C          1.37730        8.83680       -2.11050
C          1.27490       10.30250       -2.36290
O          1.00580       10.82980       -3.41920
C          1.54100       10.95060       -1.06840
C          1.47390       12.31180       -0.77940
C          1.79790       12.62630        0.51830
C          2.17210       11.65840        1.46030
C          2.25400       10.31510        1.18400
C          1.91220        9.96970       -0.12620
C          1.89050        8.65790       -0.77280
C          2.47250        7.52450       -0.26320
C          2.58950        6.28540       -0.92230
N          2.75640        5.24050       -1.36990
C          3.09670        7.44920        0.99650
N          3.61740        7.30000        2.01050
C          2.37610       12.68160        2.54920
C          1.28340       12.82130        3.63730
C         -0.01170       12.37120        3.01010
C         -0.36590       13.28260        2.11420
C          0.68120       14.36940        2.12410
C          1.08210       14.34490        3.60810
C          1.96000       13.76010        1.49950
C          0.75670        6.59240       -3.10460
C         -0.18220        5.87640       -2.36870
N         -1.11950        6.39960       -1.48850
C         -0.72300        6.95860       -0.25140
C          0.00830        6.20130        0.65520
C          0.34830        6.72240        1.89120
C         -0.02280        8.01890        2.22060
S          0.36980        8.78560        3.75770
C          1.51900        7.62830        4.55260
C         -0.75520        8.77960        1.30760
C         -1.11350        8.25060        0.08730
C         -2.44960        5.98890       -1.63650
C         -3.27850        5.80590       -0.53320
C         -4.58600        5.38790       -0.69190
C         -5.09160        5.14120       -1.96010
S         -6.73230        4.58220       -2.28830
C         -7.51460        4.52760       -0.65210
C         -4.27070        5.34030       -3.06940
C         -2.97200        5.76430       -2.91290
C         -0.20800        4.52320       -2.77850
S         -1.04610        3.13620       -2.19490
C         -0.13500        2.08960       -3.28940
C          0.77650        2.80800       -4.05630
N          1.67600        2.31620       -4.98890
C          1.87510        3.08660       -6.14590
C          3.15170        3.32230       -6.64610
C          3.33400        4.09170       -7.77830
C          2.23950        4.64950       -8.42560
S          2.34530        5.65310       -9.87280
C          4.12680        5.76610      -10.20160
C          0.95910        4.41900       -7.92580
C          0.77720        3.64470       -6.80280
C          2.51410        1.23500       -4.70540
C          2.89900        0.94630       -3.39550
C          3.67900       -0.15850       -3.12960
C          4.10470       -0.98470       -4.16450
S          5.07120       -2.40100       -3.73710
C          6.01330       -2.72180       -5.25870
C          3.74600       -0.68890       -5.47270
C          2.95760        0.41030       -5.73870
C          0.69140        4.19570       -3.77290
S          1.54610        5.59120       -4.32160
C         -0.44250        0.70370       -3.19100
C         -1.37240        0.18320       -2.32920
C         -1.43750       -1.22570       -2.32600
C         -2.20440       -2.05350       -1.47790
C         -3.26720       -1.48960       -0.67870
C         -4.10690       -0.46930       -1.04190
C         -5.05910       -0.15890       -0.05460
Cl        -6.25200        1.05170       -0.29890
C         -4.94750       -0.91980        1.07890
S         -5.90690       -0.89850        2.54150
C         -5.70350        0.84680        3.06970
C         -4.25130        1.19810        3.31810
S         -3.64880       -2.06330        0.91840
C         -1.86570       -3.40210       -1.46900
C         -0.86970       -3.96260       -2.30710
C         -0.18460       -3.14990       -3.23510
C          0.84580       -3.64600       -4.11970
S          2.00220       -4.83880       -3.59340
C          2.85240       -4.76620       -5.10240
S          4.21860       -5.77790       -5.48200
C          4.75470       -6.23740       -3.79060
C          6.04260       -7.03150       -3.86380
C          2.25020       -3.87110       -5.94730
C          1.12870       -3.22940       -5.39190
Cl         2.82020       -3.57570       -7.54240
C         -0.49800       -1.79390       -3.21670
S          0.32880       -0.55970       -4.12760
C         -0.70180       -5.34830       -2.06690
C         -1.49480       -5.85160       -1.07870
S         -2.55760       -4.60780       -0.43060
C         -1.51610       -7.16360       -0.47200
C         -0.71080       -8.23500       -0.93210
O          0.01150       -8.00720       -2.05250
C          0.53820       -9.05780       -2.85260
C          0.78150       -8.48140       -4.24060
C         -0.68280       -9.43210       -0.20060
O          0.17340      -10.44360       -0.59310
C          1.19170      -10.80210        0.33000
C          1.98420       -9.61000        0.85120
C         -1.47550       -9.58970        0.94480
C         -2.30340       -8.54340        1.35240
C         -2.31350       -7.36230        0.65880
C         -1.49160      -10.83480        1.69100
C         -1.35290      -10.89290        3.03600
C         -0.83160       -9.76260        3.85910
O         -0.44470       -8.68300        3.46850
C         -0.76820      -10.27120        5.23890
C         -0.35710       -9.56120        6.36530
C         -0.39620      -10.28780        7.52970
C         -0.80380      -11.62920        7.57100
C         -1.19890      -12.34460        6.46670
C         -1.17490      -11.62100        5.26900
C         -1.52440      -12.04030        3.91570
C         -1.96890      -13.28220        3.55050
C         -2.14020      -14.36620        4.43790
N         -2.30030      -15.29110        5.09880
C         -2.31910      -13.66580        2.23790
N         -2.62350      -14.05610        1.20200
C         -0.60410      -11.72550        9.06280
C         -1.86320      -11.67370        9.96330
C         -2.90740      -10.89930        9.19760
C         -2.52270       -9.63070        9.15770
C         -1.21110       -9.52400        9.89590
C         -1.41730      -10.60240       10.97150
C         -0.15100      -10.23210        9.01610
H          1.00680        8.45030       -4.09930
H          1.19690       13.02580       -1.53930
H          2.55270        9.58750        1.91840
H          3.38100       12.73580        2.96360
H          1.53440       12.36400        4.59020
H         -0.48820       11.43870        3.24780
H         -1.20200       13.26470        1.43960
H          0.38400       15.32580        1.70150
H          0.28030       14.67570        4.26640
H          1.98960       14.90800        3.82180
H          2.69270       14.51910        1.23170
H          0.29500        5.19170        0.39850
H          0.90240        6.10760        2.58170
H          1.87070        8.13760        5.44450
H          0.99790        6.71710        4.83200
H          2.35420        7.42380        3.88690
H         -1.03570        9.78890        1.56640
H         -1.69010        8.83240       -0.61570
H         -2.89640        5.97950        0.46160
H         -5.19310        5.24740        0.18780
H         -8.53810        4.21170       -0.82890
H         -7.50480        5.51630       -0.20280
H         -7.01010        3.80020       -0.02310
H         -4.67040        5.16260       -4.05600
H         -2.35300        5.92860       -3.78230
H          4.00890        2.90660       -6.13810
H          4.33730        4.25610       -8.13650
H          4.53170        4.77930      -10.40650
H          4.22080        6.39230      -11.08350
H          4.63020        6.23520       -9.36130
H          0.11160        4.85120       -8.43500
H         -0.21880        3.46160       -6.42700
H          2.58360        1.59080       -2.58880
H          3.96920       -0.38880       -2.11590
H          6.80250       -3.41320       -4.98010
H          5.37920       -3.17720       -6.01340
H          6.44270       -1.79010       -5.61360
H          4.05690       -1.31930       -6.28930
H          2.65970        0.62120       -6.75450
H         -1.93970        0.80110       -1.65710
H         -4.08850        0.01140       -2.00260
H         -6.29200        0.90930        3.98420
H         -6.15050        1.48330        2.30850
H         -4.17880        2.21620        3.69580
H         -3.81480        0.52130        4.04910
H         -3.67650        1.13070        2.39620
H          3.95190       -6.82270       -3.34100
H          4.88660       -5.30790       -3.23620
H          5.90010       -7.94130       -4.44250
H          6.82710       -6.44360       -4.33440
H          6.36400       -7.30130       -2.86040
H          0.54270       -2.51100       -5.93400
H          0.00030       -5.95510       -2.60010
H         -0.16950       -9.89040       -2.90040
H          1.47990       -9.42300       -2.42790
H          1.48040       -7.65080       -4.18570
H          1.19410       -9.24880       -4.88890
H         -0.15080       -8.11970       -4.66650
H          0.76220      -11.35760        1.17500
H          1.83350      -11.48000       -0.23940
H          2.36790       -9.01510        0.02510
H          2.82060       -9.96500        1.44720
H          1.35490       -8.97600        1.47330
H         -2.93930       -8.67730        2.21300
H         -2.94260       -6.55500        1.00130
H         -1.65630      -11.73480        1.11090
H         -0.04800       -8.53070        6.28530
H         -1.50110      -13.37730        6.51550
H          0.11690      -12.46740        9.40000
H         -2.17410      -12.63650       10.35950
H         -3.76320      -11.34980        8.73000
H         -2.99250       -8.80890        8.64970
H         -0.92820       -8.52960       10.23100
H         -0.50470      -10.86230       11.50610
H         -2.19940      -10.34280       11.68320
H          0.86640       -9.99760        9.32310
