
  xtb     02082216193D
 energy: -300.274443423680 gnorm: 0.000534922945 xtb: 6.4.1 (unknown)
170190  0     0  0            999 V2000
    6.1861   -0.6863    1.0149 C   0  0  0  0  0  0  0  0  0  0  0  0
    6.8551   -1.7434    0.4424 C   0  0  0  0  0  0  0  0  0  0  0  0
    6.2282   -2.7383   -0.4453 C   0  0  0  0  0  0  0  0  0  0  0  0
    5.0607   -2.7900   -0.7841 O   0  0  0  0  0  0  0  0  0  0  0  0
    7.3380   -3.5714   -0.9553 C   0  0  0  0  0  0  0  0  0  0  0  0
    7.2451   -4.6628   -1.8134 C   0  0  0  0  0  0  0  0  0  0  0  0
    8.4516   -5.2614   -2.0904 C   0  0  0  0  0  0  0  0  0  0  0  0
    9.6671   -4.7936   -1.5767 C   0  0  0  0  0  0  0  0  0  0  0  0
    9.7746   -3.7113   -0.7363 C   0  0  0  0  0  0  0  0  0  0  0  0
    8.5561   -3.1038   -0.4247 C   0  0  0  0  0  0  0  0  0  0  0  0
    8.2716   -1.9807    0.4627 C   0  0  0  0  0  0  0  0  0  0  0  0
    9.1654   -1.3773    1.3143 C   0  0  0  0  0  0  0  0  0  0  0  0
    8.8018   -0.4337    2.2952 C   0  0  0  0  0  0  0  0  0  0  0  0
    8.5757    0.2951    3.1545 N   0  0  0  0  0  0  0  0  0  0  0  0
   10.5334   -1.6927    1.3970 C   0  0  0  0  0  0  0  0  0  0  0  0
   11.6526   -1.9109    1.5434 N   0  0  0  0  0  0  0  0  0  0  0  0
   10.4682   -5.8658   -2.2738 C   0  0  0  0  0  0  0  0  0  0  0  0
   10.9641   -7.0340   -1.3968 C   0  0  0  0  0  0  0  0  0  0  0  0
   11.2642   -8.1331   -2.3898 C   0  0  0  0  0  0  0  0  0  0  0  0
   10.1060   -8.5850   -2.8536 C   0  0  0  0  0  0  0  0  0  0  0  0
    9.0039   -7.7959   -2.1840 C   0  0  0  0  0  0  0  0  0  0  0  0
    9.6468   -7.5574   -0.8116 C   0  0  0  0  0  0  0  0  0  0  0  0
    9.1094   -6.3984   -2.8318 C   0  0  0  0  0  0  0  0  0  0  0  0
    4.8231   -0.6414    1.3291 C   0  0  0  0  0  0  0  0  0  0  0  0
    3.8873   -1.6549    1.6141 C   0  0  0  0  0  0  0  0  0  0  0  0
    4.1027   -3.0026    1.7186 N   0  0  0  0  0  0  0  0  0  0  0  0
    5.3290   -3.5892    2.0342 C   0  0  0  0  0  0  0  0  0  0  0  0
    6.2247   -2.9958    2.9218 C   0  0  0  0  0  0  0  0  0  0  0  0
    7.4597   -3.5645    3.1693 C   0  0  0  0  0  0  0  0  0  0  0  0
    7.8266   -4.7442    2.5331 C   0  0  0  0  0  0  0  0  0  0  0  0
    9.4008   -5.5176    2.6849 S   0  0  0  0  0  0  0  0  0  0  0  0
   10.2968   -4.4933    3.8835 C   0  0  0  0  0  0  0  0  0  0  0  0
    6.9091   -5.3740    1.6919 C   0  0  0  0  0  0  0  0  0  0  0  0
    5.6816   -4.8075    1.4441 C   0  0  0  0  0  0  0  0  0  0  0  0
    3.0102   -3.8561    1.4369 C   0  0  0  0  0  0  0  0  0  0  0  0
    2.2556   -3.6688    0.2793 C   0  0  0  0  0  0  0  0  0  0  0  0
    1.1749   -4.4821    0.0277 C   0  0  0  0  0  0  0  0  0  0  0  0
    0.8278   -5.4957    0.9207 C   0  0  0  0  0  0  0  0  0  0  0  0
   -0.5976   -6.4463    0.5030 S   0  0  0  0  0  0  0  0  0  0  0  0
   -0.7443   -7.6466    1.8573 C   0  0  0  0  0  0  0  0  0  0  0  0
    1.5969   -5.7003    2.0585 C   0  0  0  0  0  0  0  0  0  0  0  0
    2.6823   -4.8831    2.3130 C   0  0  0  0  0  0  0  0  0  0  0  0
    2.6098   -1.0882    1.8533 C   0  0  0  0  0  0  0  0  0  0  0  0
    1.0590   -1.7408    2.2722 S   0  0  0  0  0  0  0  0  0  0  0  0
    0.3552   -0.1506    2.2457 C   0  0  0  0  0  0  0  0  0  0  0  0
    1.2726    0.8376    1.9648 C   0  0  0  0  0  0  0  0  0  0  0  0
    0.9438    2.1838    1.8545 N   0  0  0  0  0  0  0  0  0  0  0  0
    1.3453    2.9368    0.7518 C   0  0  0  0  0  0  0  0  0  0  0  0
    1.4374    4.3223    0.8578 C   0  0  0  0  0  0  0  0  0  0  0  0
    1.8613    5.0850   -0.2128 C   0  0  0  0  0  0  0  0  0  0  0  0
    2.2170    4.4712   -1.4056 C   0  0  0  0  0  0  0  0  0  0  0  0
    2.7790    5.3444   -2.8366 S   0  0  0  0  0  0  0  0  0  0  0  0
    3.1429    7.0091   -2.2084 C   0  0  0  0  0  0  0  0  0  0  0  0
    2.1169    3.0866   -1.5181 C   0  0  0  0  0  0  0  0  0  0  0  0
    1.6811    2.3250   -0.4571 C   0  0  0  0  0  0  0  0  0  0  0  0
    0.0428    2.6745    2.8103 C   0  0  0  0  0  0  0  0  0  0  0  0
    0.3398    2.4875    4.1601 C   0  0  0  0  0  0  0  0  0  0  0  0
   -0.5822    2.8261    5.1210 C   0  0  0  0  0  0  0  0  0  0  0  0
   -1.8197    3.3483    4.7470 C   0  0  0  0  0  0  0  0  0  0  0  0
   -2.9959    3.5189    6.0573 S   0  0  0  0  0  0  0  0  0  0  0  0
   -4.5691    3.7785    5.2004 C   0  0  0  0  0  0  0  0  0  0  0  0
   -2.0953    3.6034    3.4116 C   0  0  0  0  0  0  0  0  0  0  0  0
   -1.1593    3.2752    2.4485 C   0  0  0  0  0  0  0  0  0  0  0  0
    2.5644    0.2945    1.7717 C   0  0  0  0  0  0  0  0  0  0  0  0
    4.1102    0.9755    1.4537 S   0  0  0  0  0  0  0  0  0  0  0  0
   -1.0980    0.0058    2.1800 C   0  0  0  0  0  0  0  0  0  0  0  0
   -1.6903   -0.0803    0.9387 C   0  0  0  0  0  0  0  0  0  0  0  0
   -1.0500   -0.3594   -0.3647 C   0  0  0  0  0  0  0  0  0  0  0  0
    0.1090   -0.5829   -0.6180 O   0  0  0  0  0  0  0  0  0  0  0  0
   -2.0685   -0.3100   -1.2996 N   0  0  0  0  0  0  0  0  0  0  0  0
   -1.8644   -0.5819   -2.7067 C   0  0  0  0  0  0  0  0  0  0  0  0
   -1.8338   -2.0821   -2.9755 C   0  0  0  0  0  0  0  0  0  0  0  0
   -3.3091   -0.0330   -0.7465 C   0  0  0  0  0  0  0  0  0  0  0  0
   -4.3354    0.0593   -1.3712 O   0  0  0  0  0  0  0  0  0  0  0  0
   -3.0694    0.1166    0.7093 C   0  0  0  0  0  0  0  0  0  0  0  0
   -3.9480    0.4434    1.7136 C   0  0  0  0  0  0  0  0  0  0  0  0
   -3.3905    0.4952    3.0125 C   0  0  0  0  0  0  0  0  0  0  0  0
   -1.9873    0.2500    3.2541 C   0  0  0  0  0  0  0  0  0  0  0  0
   -1.7030    0.2700    4.5591 N   0  0  0  0  0  0  0  0  0  0  0  0
   -3.0448    0.5702    5.3848 S   0  0  0  0  0  0  0  0  0  0  0  0
   -4.0625    0.6995    4.1491 N   0  0  0  0  0  0  0  0  0  0  0  0
   -5.3618    0.7220    1.4422 C   0  0  0  0  0  0  0  0  0  0  0  0
   -6.2092   -0.2341    0.9389 C   0  0  0  0  0  0  0  0  0  0  0  0
   -7.5263    0.0815    0.5819 C   0  0  0  0  0  0  0  0  0  0  0  0
   -8.2799   -0.9093    0.0751 F   0  0  0  0  0  0  0  0  0  0  0  0
   -8.0637    1.3523    0.6470 C   0  0  0  0  0  0  0  0  0  0  0  0
   -7.2265    2.3373    1.2224 C   0  0  0  0  0  0  0  0  0  0  0  0
   -5.8804    2.0228    1.6229 C   0  0  0  0  0  0  0  0  0  0  0  0
   -5.2507    3.0860    2.1242 N   0  0  0  0  0  0  0  0  0  0  0  0
   -6.2650    4.3350    2.1066 S   0  0  0  0  0  0  0  0  0  0  0  0
   -7.5436    3.6027    1.4809 N   0  0  0  0  0  0  0  0  0  0  0  0
   -9.3862    1.6543    0.1426 C   0  0  0  0  0  0  0  0  0  0  0  0
   -9.6550    2.6855   -0.6845 C   0  0  0  0  0  0  0  0  0  0  0  0
   -8.6223    3.4799   -1.4168 C   0  0  0  0  0  0  0  0  0  0  0  0
   -7.4230    3.4707   -1.2575 O   0  0  0  0  0  0  0  0  0  0  0  0
   -9.3621    4.2140   -2.4576 C   0  0  0  0  0  0  0  0  0  0  0  0
   -8.8112    5.0252   -3.4482 C   0  0  0  0  0  0  0  0  0  0  0  0
   -9.7333    5.5500   -4.3201 C   0  0  0  0  0  0  0  0  0  0  0  0
  -11.1077    5.2873   -4.2194 C   0  0  0  0  0  0  0  0  0  0  0  0
  -11.6658    4.4948   -3.2460 C   0  0  0  0  0  0  0  0  0  0  0  0
  -10.7433    3.9499   -2.3459 C   0  0  0  0  0  0  0  0  0  0  0  0
  -10.9606    3.0664   -1.2090 C   0  0  0  0  0  0  0  0  0  0  0  0
  -12.1669    2.7194   -0.6683 C   0  0  0  0  0  0  0  0  0  0  0  0
  -13.4178    3.1312   -1.1765 C   0  0  0  0  0  0  0  0  0  0  0  0
  -14.4639    3.4281   -1.5433 N   0  0  0  0  0  0  0  0  0  0  0  0
  -12.3239    1.9396    0.4991 C   0  0  0  0  0  0  0  0  0  0  0  0
  -12.5288    1.3357    1.4530 N   0  0  0  0  0  0  0  0  0  0  0  0
  -11.4348    6.1135   -5.4377 C   0  0  0  0  0  0  0  0  0  0  0  0
  -11.7358    5.3611   -6.7580 C   0  0  0  0  0  0  0  0  0  0  0  0
  -11.0070    4.0426   -6.6771 C   0  0  0  0  0  0  0  0  0  0  0  0
   -9.7076    4.2915   -6.7702 C   0  0  0  0  0  0  0  0  0  0  0  0
   -9.5341    5.7833   -6.9166 C   0  0  0  0  0  0  0  0  0  0  0  0
  -10.8041    6.1269   -7.7111 C   0  0  0  0  0  0  0  0  0  0  0  0
   -9.9054    6.4073   -5.5482 C   0  0  0  0  0  0  0  0  0  0  0  0
    6.7399    0.2210    1.2272 H   0  0  0  0  0  0  0  0  0  0  0  0
    6.2907   -4.9865   -2.1987 H   0  0  0  0  0  0  0  0  0  0  0  0
   10.7159   -3.3551   -0.3516 H   0  0  0  0  0  0  0  0  0  0  0  0
   11.2165   -5.5136   -2.9814 H   0  0  0  0  0  0  0  0  0  0  0  0
   11.7529   -6.7748   -0.6965 H   0  0  0  0  0  0  0  0  0  0  0  0
   12.2559   -8.4218   -2.6853 H   0  0  0  0  0  0  0  0  0  0  0  0
    9.9372   -9.3250   -3.6141 H   0  0  0  0  0  0  0  0  0  0  0  0
    8.0088   -8.2329   -2.2034 H   0  0  0  0  0  0  0  0  0  0  0  0
    9.1273   -6.8312   -0.1899 H   0  0  0  0  0  0  0  0  0  0  0  0
    9.7827   -8.4819   -0.2529 H   0  0  0  0  0  0  0  0  0  0  0  0
    8.9583   -6.4177   -3.9098 H   0  0  0  0  0  0  0  0  0  0  0  0
    5.9607   -2.0755    3.4209 H   0  0  0  0  0  0  0  0  0  0  0  0
    8.1310   -3.0652    3.8498 H   0  0  0  0  0  0  0  0  0  0  0  0
   10.4764   -3.5037    3.4739 H   0  0  0  0  0  0  0  0  0  0  0  0
   11.2450   -4.9976    4.0415 H   0  0  0  0  0  0  0  0  0  0  0  0
    9.7437   -4.4461    4.8168 H   0  0  0  0  0  0  0  0  0  0  0  0
    7.1837   -6.3040    1.2183 H   0  0  0  0  0  0  0  0  0  0  0  0
    4.9928   -5.2868    0.7657 H   0  0  0  0  0  0  0  0  0  0  0  0
    2.5361   -2.8938   -0.4159 H   0  0  0  0  0  0  0  0  0  0  0  0
    0.5850   -4.3455   -0.8653 H   0  0  0  0  0  0  0  0  0  0  0  0
    0.1347   -8.2836    1.8868 H   0  0  0  0  0  0  0  0  0  0  0  0
   -0.8901   -7.1273    2.8000 H   0  0  0  0  0  0  0  0  0  0  0  0
   -1.6221   -8.2416    1.6250 H   0  0  0  0  0  0  0  0  0  0  0  0
    1.3605   -6.4840    2.7598 H   0  0  0  0  0  0  0  0  0  0  0  0
    3.2759   -5.0386    3.2020 H   0  0  0  0  0  0  0  0  0  0  0  0
    1.1783    4.8042    1.7891 H   0  0  0  0  0  0  0  0  0  0  0  0
    1.9164    6.1556   -0.0981 H   0  0  0  0  0  0  0  0  0  0  0  0
    3.8105    6.9389   -1.3548 H   0  0  0  0  0  0  0  0  0  0  0  0
    2.2229    7.5254   -1.9492 H   0  0  0  0  0  0  0  0  0  0  0  0
    3.6369    7.5284   -3.0237 H   0  0  0  0  0  0  0  0  0  0  0  0
    2.3817    2.6151   -2.4520 H   0  0  0  0  0  0  0  0  0  0  0  0
    1.5884    1.2554   -0.5667 H   0  0  0  0  0  0  0  0  0  0  0  0
    1.2822    2.0431    4.4394 H   0  0  0  0  0  0  0  0  0  0  0  0
   -0.3741    2.6604    6.1666 H   0  0  0  0  0  0  0  0  0  0  0  0
   -4.7302    2.9707    4.4894 H   0  0  0  0  0  0  0  0  0  0  0  0
   -4.5700    4.7449    4.7055 H   0  0  0  0  0  0  0  0  0  0  0  0
   -5.3319    3.7580    5.9726 H   0  0  0  0  0  0  0  0  0  0  0  0
   -3.0451    4.0066    3.1009 H   0  0  0  0  0  0  0  0  0  0  0  0
   -1.3802    3.4426    1.4046 H   0  0  0  0  0  0  0  0  0  0  0  0
   -2.6873   -0.1090   -3.2471 H   0  0  0  0  0  0  0  0  0  0  0  0
   -0.9152   -0.1254   -2.9987 H   0  0  0  0  0  0  0  0  0  0  0  0
   -1.6744   -2.2630   -4.0346 H   0  0  0  0  0  0  0  0  0  0  0  0
   -2.7754   -2.5389   -2.6795 H   0  0  0  0  0  0  0  0  0  0  0  0
   -1.0246   -2.5444   -2.4153 H   0  0  0  0  0  0  0  0  0  0  0  0
   -5.8679   -1.2450    0.7819 H   0  0  0  0  0  0  0  0  0  0  0  0
  -10.1668    0.9539    0.4139 H   0  0  0  0  0  0  0  0  0  0  0  0
   -7.7470    5.1963   -3.4932 H   0  0  0  0  0  0  0  0  0  0  0  0
  -12.7227    4.2947   -3.1841 H   0  0  0  0  0  0  0  0  0  0  0  0
  -12.1064    6.9543   -5.2769 H   0  0  0  0  0  0  0  0  0  0  0  0
  -12.7894    5.3122   -7.0189 H   0  0  0  0  0  0  0  0  0  0  0  0
  -11.4927    3.0992   -6.5095 H   0  0  0  0  0  0  0  0  0  0  0  0
   -8.8908    3.5978   -6.6951 H   0  0  0  0  0  0  0  0  0  0  0  0
   -8.5832    6.1184   -7.3223 H   0  0  0  0  0  0  0  0  0  0  0  0
  -10.7965    5.7100   -8.7170 H   0  0  0  0  0  0  0  0  0  0  0  0
  -11.0121    7.1949   -7.7569 H   0  0  0  0  0  0  0  0  0  0  0  0
   -9.5766    7.4409   -5.4603 H   0  0  0  0  0  0  0  0  0  0  0  0
  1  2  2  0  0  0  0
  2  3  1  0  0  0  0
  3  4  2  0  0  0  0
  3  5  1  0  0  0  0
  5  6  2  0  0  0  0
  6  7  1  0  0  0  0
  7  8  2  0  0  0  0
  8  9  1  0  0  0  0
  9 10  2  0  0  0  0
 10 11  1  0  0  0  0
 11 12  2  0  0  0  0
 12 13  1  0  0  0  0
 13 14  3  0  0  0  0
 12 15  1  0  0  0  0
 15 16  3  0  0  0  0
  8 17  1  0  0  0  0
 17 18  1  0  0  0  0
 18 19  1  0  0  0  0
 19 20  2  0  0  0  0
 20 21  1  0  0  0  0
 21 22  1  0  0  0  0
 21 23  1  0  0  0  0
  1 24  1  0  0  0  0
 24 25  2  0  0  0  0
 25 26  1  0  0  0  0
 26 27  1  0  0  0  0
 27 28  2  0  0  0  0
 28 29  1  0  0  0  0
 29 30  2  0  0  0  0
 30 31  1  0  0  0  0
 31 32  1  0  0  0  0
 30 33  1  0  0  0  0
 33 34  2  0  0  0  0
 26 35  1  0  0  0  0
 35 36  2  0  0  0  0
 36 37  1  0  0  0  0
 37 38  2  0  0  0  0
 38 39  1  0  0  0  0
 39 40  1  0  0  0  0
 38 41  1  0  0  0  0
 41 42  2  0  0  0  0
 25 43  1  0  0  0  0
 43 44  1  0  0  0  0
 44 45  1  0  0  0  0
 45 46  2  0  0  0  0
 46 47  1  0  0  0  0
 47 48  1  0  0  0  0
 48 49  2  0  0  0  0
 49 50  1  0  0  0  0
 50 51  2  0  0  0  0
 51 52  1  0  0  0  0
 52 53  1  0  0  0  0
 51 54  1  0  0  0  0
 54 55  2  0  0  0  0
 47 56  1  0  0  0  0
 56 57  2  0  0  0  0
 57 58  1  0  0  0  0
 58 59  2  0  0  0  0
 59 60  1  0  0  0  0
 60 61  1  0  0  0  0
 59 62  1  0  0  0  0
 62 63  2  0  0  0  0
 46 64  1  0  0  0  0
 64 65  1  0  0  0  0
 45 66  1  0  0  0  0
 66 67  2  0  0  0  0
 67 68  1  0  0  0  0
 68 69  2  0  0  0  0
 68 70  1  0  0  0  0
 70 71  1  0  0  0  0
 71 72  1  0  0  0  0
 70 73  1  0  0  0  0
 73 74  2  0  0  0  0
 73 75  1  0  0  0  0
 75 76  2  0  0  0  0
 76 77  1  0  0  0  0
 77 78  1  0  0  0  0
 78 79  2  0  0  0  0
 79 80  1  0  0  0  0
 80 81  1  0  0  0  0
 76 82  1  0  0  0  0
 82 83  2  0  0  0  0
 83 84  1  0  0  0  0
 84 85  1  0  0  0  0
 84 86  2  0  0  0  0
 86 87  1  0  0  0  0
 87 88  1  0  0  0  0
 88 89  2  0  0  0  0
 89 90  1  0  0  0  0
 90 91  1  0  0  0  0
 86 92  1  0  0  0  0
 92 93  2  0  0  0  0
 93 94  1  0  0  0  0
 94 95  2  0  0  0  0
 94 96  1  0  0  0  0
 96 97  2  0  0  0  0
 97 98  1  0  0  0  0
 98 99  2  0  0  0  0
 99100  1  0  0  0  0
100101  2  0  0  0  0
101102  1  0  0  0  0
102103  2  0  0  0  0
103104  1  0  0  0  0
104105  3  0  0  0  0
103106  1  0  0  0  0
106107  3  0  0  0  0
 99108  1  0  0  0  0
108109  1  0  0  0  0
109110  1  0  0  0  0
110111  2  0  0  0  0
111112  1  0  0  0  0
112113  1  0  0  0  0
112114  1  0  0  0  0
 11  2  1  0  0  0  0
 23 17  1  0  0  0  0
 65 24  1  0  0  0  0
 78 66  1  0  0  0  0
 88 82  1  0  0  0  0
102 93  1  0  0  0  0
114108  1  0  0  0  0
 10  5  1  0  0  0  0
 22 18  1  0  0  0  0
 34 27  1  0  0  0  0
 42 35  1  0  0  0  0
 64 43  2  0  0  0  0
 75 67  1  0  0  0  0
 81 77  2  0  0  0  0
 91 87  2  0  0  0  0
101 96  1  0  0  0  0
113109  1  0  0  0  0
 23  7  1  0  0  0  0
 55 48  1  0  0  0  0
 63 56  1  0  0  0  0
114 98  1  0  0  0  0
  1115  1  0  0  0  0
  6116  1  0  0  0  0
  9117  1  0  0  0  0
 17118  1  0  0  0  0
 18119  1  0  0  0  0
 19120  1  0  0  0  0
 20121  1  0  0  0  0
 21122  1  0  0  0  0
 22123  1  0  0  0  0
 22124  1  0  0  0  0
 23125  1  0  0  0  0
 28126  1  0  0  0  0
 29127  1  0  0  0  0
 32128  1  0  0  0  0
 32129  1  0  0  0  0
 32130  1  0  0  0  0
 33131  1  0  0  0  0
 34132  1  0  0  0  0
 36133  1  0  0  0  0
 37134  1  0  0  0  0
 40135  1  0  0  0  0
 40136  1  0  0  0  0
 40137  1  0  0  0  0
 41138  1  0  0  0  0
 42139  1  0  0  0  0
 49140  1  0  0  0  0
 50141  1  0  0  0  0
 53142  1  0  0  0  0
 53143  1  0  0  0  0
 53144  1  0  0  0  0
 54145  1  0  0  0  0
 55146  1  0  0  0  0
 57147  1  0  0  0  0
 58148  1  0  0  0  0
 61149  1  0  0  0  0
 61150  1  0  0  0  0
 61151  1  0  0  0  0
 62152  1  0  0  0  0
 63153  1  0  0  0  0
 71154  1  0  0  0  0
 71155  1  0  0  0  0
 72156  1  0  0  0  0
 72157  1  0  0  0  0
 72158  1  0  0  0  0
 83159  1  0  0  0  0
 92160  1  0  0  0  0
 97161  1  0  0  0  0
100162  1  0  0  0  0
108163  1  0  0  0  0
109164  1  0  0  0  0
110165  1  0  0  0  0
111166  1  0  0  0  0
112167  1  0  0  0  0
113168  1  0  0  0  0
113169  1  0  0  0  0
114170  1  0  0  0  0
M  END
