206

C         -6.48450       -1.37310        5.48370
C         -7.12130       -0.46060        6.29320
C         -7.05640        1.00530        6.20750
O         -6.77530        1.69010        5.24060
C         -7.42710        1.50720        7.54490
C         -7.40570        2.82870        7.98390
C         -7.78390        2.98650        9.29610
C         -8.16240        1.91190       10.11150
C         -8.20710        0.60500        9.68510
C         -7.82140        0.42370        8.35470
C         -7.77320       -0.78810        7.54090
C         -8.38060       -1.98090        7.84810
C         -8.96080       -2.28280        9.09510
N         -9.42770       -2.59570       10.09680
C         -8.64480       -2.97990        6.89640
N         -9.00250       -3.77330        6.14530
C         -8.39720        2.79880       11.30910
C         -7.30100        2.79660       12.39570
C         -7.55630        4.07000       13.16930
C         -7.20230        5.08920       12.39680
C         -6.70150        4.52170       11.08830
C         -6.06470        3.22000       11.59190
C         -7.97920        3.99780       10.39880
C         -5.71020       -1.15190        4.33820
C         -4.79250       -2.07400        3.77980
N         -4.48680       -3.32420        4.26460
C         -3.15640       -3.77310        4.16810
C         -2.87180       -5.07310        3.76080
C         -1.56710       -5.51440        3.67450
C         -0.52080       -4.65710        3.98960
S          1.17790       -5.12150        3.89960
C          1.11480       -6.93770        3.92630
C         -0.79970       -3.35270        4.39120
C         -2.10210       -2.91610        4.48650
C         -5.46890       -4.23990        4.67380
C         -6.67530       -4.34660        3.98680
C         -7.61180       -5.28720        4.36110
C         -7.36050       -6.13260        5.43660
S         -8.48760       -7.36740        5.98360
C        -10.07860       -6.77920        5.33570
C         -6.15130       -6.03040        6.12190
C         -5.21370       -5.09540        5.74610
C         -4.12040       -1.51140        2.67950
S         -2.87250       -2.07350        1.62090
C         -2.89760       -0.54130        0.75170
C         -3.81690        0.35910        1.27430
N         -4.06480        1.65640        0.86190
C         -5.39010        2.11420        1.02770
C         -6.44400        1.34650        0.54400
C         -7.75300        1.74080        0.74230
C         -8.02500        2.91600        1.42880
S         -9.65110        3.51920        1.74490
C        -10.72240        2.11650        1.31830
C         -6.97010        3.69670        1.89870
C         -5.66690        3.30140        1.70420
C         -3.05830        2.57120        0.55580
C         -3.36110        3.68050       -0.23520
C         -2.40220        4.62940       -0.51820
C         -1.11150        4.48370       -0.02700
S          0.17560        5.65030       -0.35350
C         -0.74900        7.20330       -0.56680
C         -0.79380        3.36520        0.73540
C         -1.75450        2.42170        1.03060
C         -4.52460       -0.22420        2.35830
S         -5.71400        0.37800        3.45170
C         -1.93330       -0.46210       -0.29150
C         -1.61850        0.44440       -1.27230
C         -0.47520       -0.06480       -1.94720
C          0.33440        0.42290       -2.99540
C          0.13050        1.67200       -3.67870
C          0.71470        2.09270       -4.84770
C          0.30650        3.38600       -5.20840
F          0.74130        3.99350       -6.32660
C         -0.57330        3.98470       -4.35160
C         -1.13970        5.36110       -4.42840
C         -0.05150        6.40910       -4.18140
S         -0.92150        2.91190       -3.04670
C          1.40810       -0.41680       -3.31060
C          1.68460       -1.65270       -2.67010
C          0.85750       -2.15720       -1.64540
C          1.04840       -3.42100       -0.98350
S          2.56840       -4.27250       -1.03010
C          1.95370       -5.58780       -0.09310
C          2.80570       -6.74750        0.29010
C          3.93160       -6.31830        1.23190
C          0.64870       -5.34370        0.21910
C          0.12510       -4.13210       -0.26010
F         -0.09960       -6.22280        0.91610
C         -0.19660       -1.30780       -1.32100
O         -1.08560       -1.53120       -0.33250
C          2.86810       -2.13210       -3.27610
C          3.24400       -1.19580       -4.20530
O          2.35490       -0.16550       -4.23840
C          4.39400       -1.16990       -5.06890
C          4.50370       -0.28070       -6.12940
F          3.48940        0.54340       -6.42670
C          5.64010       -0.21750       -6.94240
F          5.61300        0.62310       -7.98410
C          6.72840       -1.05010       -6.74880
C          6.62200       -2.02220       -5.71510
N          7.63150       -2.89190       -5.54150
C          7.57090       -3.76780       -4.56850
C          8.74120       -4.69410       -4.44200
C          9.80710       -4.07460       -3.53390
C          6.46630       -3.76810       -3.67180
N          5.46740       -2.93860       -3.84680
C          5.48910       -2.06450       -4.86440
C          6.33020       -4.71000       -2.51310
C          5.56660       -5.96740       -2.93640
C          7.92070       -1.01310       -7.56070
C          8.55470        0.11760       -7.94440
C          8.28600        1.47100       -7.37180
O          7.51660        1.75170       -6.48120
C          9.24380        2.37630       -8.02760
C          9.35250        3.75200       -7.83080
C         10.34090        4.34720       -8.57560
C         11.17180        3.62580       -9.44540
C         11.08360        2.26900       -9.64050
C         10.07610        1.64150       -8.89740
C          9.68860        0.23630       -8.85030
C         10.26770       -0.78060       -9.56020
C          9.87150       -2.13510       -9.52070
N          9.61870       -3.25450       -9.55580
C         11.36050       -0.62330      -10.43970
N         12.24950       -0.57470      -11.16440
C         11.93030        4.85840       -9.87060
C         11.57120        5.44450      -11.25260
C         12.09120        6.86270      -11.19010
C         11.30430        7.54520      -10.36810
C         10.23920        6.59990       -9.86100
C         10.06770        5.70790      -11.09750
C         11.00370        5.66180       -8.90240
H         -6.50270       -2.40380        5.82470
H         -7.11380        3.62870        7.32180
H         -8.50610       -0.21370       10.31880
H         -9.40430        2.78320       11.72130
H         -7.23380        1.87840       12.97290
H         -8.00550        4.09970       14.14460
H         -7.29680        6.14020       12.59810
H         -6.08760        5.17540       10.47450
H         -5.79060        2.52510       10.80020
H         -5.20200        3.40380       12.23020
H         -8.70920        4.78090       10.20230
H         -3.67940       -5.74030        3.49970
H         -1.37890       -6.51940        3.33600
H          2.13970       -7.26890        4.06190
H          0.72480       -7.31430        2.98630
H          0.50470       -7.26390        4.76300
H          0.01670       -2.69110        4.63680
H         -2.31260       -1.90910        4.81610
H         -6.87060       -3.69100        3.15080
H         -8.53130       -5.35990        3.80540
H        -10.84220       -7.32250        5.88350
H        -10.15990       -6.99980        4.27500
H        -10.15660       -5.71490        5.53280
H         -5.96320       -6.68770        6.95670
H         -4.27940       -5.01280        6.28160
H         -6.23300        0.42880        0.01420
H         -8.54730        1.12330        0.35530
H        -10.70910        1.94260        0.24610
H        -11.72160        2.40530        1.62920
H        -10.40360        1.23550        1.86730
H         -7.19040        4.60590        2.43590
H         -4.85480        3.89710        2.09210
H         -4.35960        3.79710       -0.62900
H         -2.66910        5.47660       -1.12920
H         -0.01120        7.99770       -0.51270
H         -1.46750        7.30530        0.24050
H         -1.24090        7.22870       -1.53430
H          0.21230        3.25000        1.10790
H         -1.50170        1.57870        1.65430
H         -2.14700        1.34660       -1.48810
H          1.40080        1.51430       -5.43440
H         -1.57170        5.51930       -5.42060
H         -1.93570        5.45870       -3.68800
H          0.41950        6.24650       -3.21460
H         -0.47790        7.40940       -4.20680
H          0.71330        6.34110       -4.95050
H          3.23630       -7.19830       -0.60820
H          2.17580       -7.49500        0.77700
H          4.52210       -7.18070        1.53130
H          4.58290       -5.60330        0.73480
H          3.52050       -5.84710        2.12180
H         -0.88630       -3.82120       -0.08320
H          3.40030       -3.03420       -3.07160
H          8.42740       -5.65930       -4.04530
H          9.16570       -4.83910       -5.43600
H          9.41360       -3.89130       -2.53620
H         10.66190       -4.74120       -3.45350
H         10.14160       -3.12740       -3.94940
H          5.76240       -4.20220       -1.73210
H          7.30890       -4.98420       -2.12140
H          5.47770       -6.64810       -2.09350
H          4.56920       -5.69950       -3.27540
H          6.08000       -6.48210       -3.74570
H          8.32400       -1.98490       -7.81050
H          8.69430        4.26510       -7.14740
H         11.73590        1.72910      -10.30620
H         13.00140        4.84680       -9.67810
H         11.89070        4.84250      -12.09880
H         12.98060        7.19810      -11.69050
H         11.40500        8.56460      -10.04470
H          9.34470        7.05050       -9.43980
H          9.47500        4.81240      -10.92030
H          9.65670        6.25440      -11.94460
H         11.45590        6.18740       -8.06340
