
  xtb     02132200093D
 energy: -439.867356064583 gnorm: 0.000462394188 xtb: 6.4.1 (unknown)
266290  0     0  0            999 V2000
    6.1745    6.1377    2.0931 C   0  0  0  0  0  0  0  0  0  0  0  0
    6.0293    7.4590    2.4422 C   0  0  0  0  0  0  0  0  0  0  0  0
    4.8177    8.2707    2.2942 C   0  0  0  0  0  0  0  0  0  0  0  0
    3.7980    7.9893    1.6865 O   0  0  0  0  0  0  0  0  0  0  0  0
    5.0487    9.5037    3.0661 C   0  0  0  0  0  0  0  0  0  0  0  0
    4.1667   10.5687    3.2294 C   0  0  0  0  0  0  0  0  0  0  0  0
    4.6529   11.5768    4.0273 C   0  0  0  0  0  0  0  0  0  0  0  0
    5.9216   11.5286    4.6195 C   0  0  0  0  0  0  0  0  0  0  0  0
    6.8052   10.4871    4.4566 C   0  0  0  0  0  0  0  0  0  0  0  0
    6.3323    9.4525    3.6462 C   0  0  0  0  0  0  0  0  0  0  0  0
    6.9807    8.2109    3.2277 C   0  0  0  0  0  0  0  0  0  0  0  0
    8.2674    7.8443    3.5379 C   0  0  0  0  0  0  0  0  0  0  0  0
    8.9479    6.7262    3.0209 C   0  0  0  0  0  0  0  0  0  0  0  0
    9.5984    5.8591    2.6362 N   0  0  0  0  0  0  0  0  0  0  0  0
    9.1164    8.5477    4.4148 C   0  0  0  0  0  0  0  0  0  0  0  0
    9.8681    9.0325    5.1361 N   0  0  0  0  0  0  0  0  0  0  0  0
    5.7515   12.8731    5.2818 C   0  0  0  0  0  0  0  0  0  0  0  0
    6.4773   14.0861    4.6496 C   0  0  0  0  0  0  0  0  0  0  0  0
    6.6479   13.7668    3.1851 C   0  0  0  0  0  0  0  0  0  0  0  0
    5.4495   13.8123    2.6186 C   0  0  0  0  0  0  0  0  0  0  0  0
    4.4469   14.1643    3.6896 C   0  0  0  0  0  0  0  0  0  0  0  0
    5.3069   15.0798    4.5755 C   0  0  0  0  0  0  0  0  0  0  0  0
    4.3396   12.9287    4.6173 C   0  0  0  0  0  0  0  0  0  0  0  0
    5.2743    5.2613    1.4805 C   0  0  0  0  0  0  0  0  0  0  0  0
    5.4334    3.8538    1.4621 C   0  0  0  0  0  0  0  0  0  0  0  0
    6.3593    3.1563    2.1926 N   0  0  0  0  0  0  0  0  0  0  0  0
    6.8359    1.9192    1.7273 C   0  0  0  0  0  0  0  0  0  0  0  0
    7.2111    1.7602    0.3956 C   0  0  0  0  0  0  0  0  0  0  0  0
    7.7618    0.5704   -0.0354 C   0  0  0  0  0  0  0  0  0  0  0  0
    7.9401   -0.4740    0.8621 C   0  0  0  0  0  0  0  0  0  0  0  0
    8.6886   -2.0086    0.3910 S   0  0  0  0  0  0  0  0  0  0  0  0
   10.0168   -1.4461   -0.7182 C   0  0  0  0  0  0  0  0  0  0  0  0
    7.5232   -0.3356    2.1822 C   0  0  0  0  0  0  0  0  0  0  0  0
    6.9790    0.8534    2.6142 C   0  0  0  0  0  0  0  0  0  0  0  0
    6.8233    3.6249    3.4371 C   0  0  0  0  0  0  0  0  0  0  0  0
    8.1663    3.4973    3.7761 C   0  0  0  0  0  0  0  0  0  0  0  0
    8.6490    4.0525    4.9457 C   0  0  0  0  0  0  0  0  0  0  0  0
    7.7973    4.7589    5.7833 C   0  0  0  0  0  0  0  0  0  0  0  0
    8.3327    5.6147    7.2292 S   0  0  0  0  0  0  0  0  0  0  0  0
   10.1255    5.7615    6.9909 C   0  0  0  0  0  0  0  0  0  0  0  0
    6.4348    4.8146    5.4861 C   0  0  0  0  0  0  0  0  0  0  0  0
    5.9488    4.2430    4.3337 C   0  0  0  0  0  0  0  0  0  0  0  0
    4.4300    3.2452    0.6851 C   0  0  0  0  0  0  0  0  0  0  0  0
    3.9872    1.6029    0.3398 S   0  0  0  0  0  0  0  0  0  0  0  0
    2.5092    2.1510   -0.4476 C   0  0  0  0  0  0  0  0  0  0  0  0
    2.4118    3.5238   -0.4851 C   0  0  0  0  0  0  0  0  0  0  0  0
    1.3394    4.2360   -1.0176 N   0  0  0  0  0  0  0  0  0  0  0  0
    0.9658    4.0909   -2.3544 C   0  0  0  0  0  0  0  0  0  0  0  0
   -0.3321    4.4253   -2.7480 C   0  0  0  0  0  0  0  0  0  0  0  0
   -0.6974    4.3591   -4.0735 C   0  0  0  0  0  0  0  0  0  0  0  0
    0.2197    3.9498   -5.0393 C   0  0  0  0  0  0  0  0  0  0  0  0
   -0.3524    3.9148   -6.7105 S   0  0  0  0  0  0  0  0  0  0  0  0
    1.0334    3.2117   -7.6445 C   0  0  0  0  0  0  0  0  0  0  0  0
    1.5025    3.5949   -4.6515 C   0  0  0  0  0  0  0  0  0  0  0  0
    1.8708    3.6618   -3.3214 C   0  0  0  0  0  0  0  0  0  0  0  0
    0.9471    5.3749   -0.2877 C   0  0  0  0  0  0  0  0  0  0  0  0
    0.7801    6.6180   -0.8947 C   0  0  0  0  0  0  0  0  0  0  0  0
    0.5212    7.7320   -0.1269 C   0  0  0  0  0  0  0  0  0  0  0  0
    0.4319    7.6288    1.2572 C   0  0  0  0  0  0  0  0  0  0  0  0
    0.1773    9.1138    2.1783 S   0  0  0  0  0  0  0  0  0  0  0  0
    0.9678    8.7100    3.7649 C   0  0  0  0  0  0  0  0  0  0  0  0
    0.5383    6.3840    1.8606 C   0  0  0  0  0  0  0  0  0  0  0  0
    0.7922    5.2666    1.0919 C   0  0  0  0  0  0  0  0  0  0  0  0
    3.5128    4.1449    0.1604 C   0  0  0  0  0  0  0  0  0  0  0  0
    3.8270    5.7755    0.6170 S   0  0  0  0  0  0  0  0  0  0  0  0
    1.4354    1.2214   -0.7246 C   0  0  0  0  0  0  0  0  0  0  0  0
    1.0993    0.5150   -1.8536 C   0  0  0  0  0  0  0  0  0  0  0  0
    1.8143    0.5183   -3.0445 N   0  0  0  0  0  0  0  0  0  0  0  0
    3.1953    0.2759   -3.0133 C   0  0  0  0  0  0  0  0  0  0  0  0
    4.0188    0.7964   -4.0108 C   0  0  0  0  0  0  0  0  0  0  0  0
    5.3467    0.4348   -4.0768 C   0  0  0  0  0  0  0  0  0  0  0  0
    5.8749   -0.4411   -3.1370 C   0  0  0  0  0  0  0  0  0  0  0  0
    7.5347   -1.0157   -3.3606 S   0  0  0  0  0  0  0  0  0  0  0  0
    7.3440   -2.7730   -2.9240 C   0  0  0  0  0  0  0  0  0  0  0  0
    5.0914   -0.8773   -2.0794 C   0  0  0  0  0  0  0  0  0  0  0  0
    3.7585   -0.5263   -2.0234 C   0  0  0  0  0  0  0  0  0  0  0  0
    1.0915    0.3884   -4.2359 C   0  0  0  0  0  0  0  0  0  0  0  0
   -0.1626    0.9858   -4.3486 C   0  0  0  0  0  0  0  0  0  0  0  0
   -0.9079    0.8670   -5.5047 C   0  0  0  0  0  0  0  0  0  0  0  0
   -0.4012    0.1643   -6.5880 C   0  0  0  0  0  0  0  0  0  0  0  0
   -1.2390   -0.0134   -8.1329 S   0  0  0  0  0  0  0  0  0  0  0  0
   -2.6449    1.1248   -7.9911 C   0  0  0  0  0  0  0  0  0  0  0  0
    0.8480   -0.4447   -6.4790 C   0  0  0  0  0  0  0  0  0  0  0  0
    1.5812   -0.3451   -5.3173 C   0  0  0  0  0  0  0  0  0  0  0  0
   -0.0521   -0.2884   -1.6320 C   0  0  0  0  0  0  0  0  0  0  0  0
   -0.9465   -1.3941   -2.6116 S   0  0  0  0  0  0  0  0  0  0  0  0
   -1.9183   -1.8512   -1.2256 C   0  0  0  0  0  0  0  0  0  0  0  0
   -1.6178   -1.1200   -0.0991 C   0  0  0  0  0  0  0  0  0  0  0  0
   -2.2982   -1.2606    1.1161 N   0  0  0  0  0  0  0  0  0  0  0  0
   -3.6736   -0.9876    1.1219 C   0  0  0  0  0  0  0  0  0  0  0  0
   -4.1732    0.0417    0.3255 C   0  0  0  0  0  0  0  0  0  0  0  0
   -5.5066    0.3979    0.3718 C   0  0  0  0  0  0  0  0  0  0  0  0
   -6.3713   -0.2665    1.2294 C   0  0  0  0  0  0  0  0  0  0  0  0
   -8.0681    0.1741    1.4691 S   0  0  0  0  0  0  0  0  0  0  0  0
   -8.2323    1.7552    0.5952 C   0  0  0  0  0  0  0  0  0  0  0  0
   -5.8975   -1.3474    1.9686 C   0  0  0  0  0  0  0  0  0  0  0  0
   -4.5703   -1.7098    1.9108 C   0  0  0  0  0  0  0  0  0  0  0  0
   -1.5784   -1.6130    2.2579 C   0  0  0  0  0  0  0  0  0  0  0  0
   -2.0823   -1.4406    3.5455 C   0  0  0  0  0  0  0  0  0  0  0  0
   -1.3821   -1.8967    4.6458 C   0  0  0  0  0  0  0  0  0  0  0  0
   -0.1487   -2.5115    4.4894 C   0  0  0  0  0  0  0  0  0  0  0  0
    0.8079   -3.1654    5.8231 S   0  0  0  0  0  0  0  0  0  0  0  0
   -0.4002   -3.3266    7.1678 C   0  0  0  0  0  0  0  0  0  0  0  0
    0.4013   -2.6043    3.2159 C   0  0  0  0  0  0  0  0  0  0  0  0
   -0.3025   -2.1627    2.1204 C   0  0  0  0  0  0  0  0  0  0  0  0
   -0.5449   -0.2254   -0.3423 C   0  0  0  0  0  0  0  0  0  0  0  0
    0.3587    0.8724    0.6315 S   0  0  0  0  0  0  0  0  0  0  0  0
   -2.8106   -2.9871   -1.2452 C   0  0  0  0  0  0  0  0  0  0  0  0
   -2.5123   -4.1943   -0.6502 C   0  0  0  0  0  0  0  0  0  0  0  0
   -1.2581   -4.5229   -0.1295 N   0  0  0  0  0  0  0  0  0  0  0  0
   -0.1493   -4.3481   -0.9674 C   0  0  0  0  0  0  0  0  0  0  0  0
   -0.3041   -4.4942   -2.3464 C   0  0  0  0  0  0  0  0  0  0  0  0
    0.7339   -4.2392   -3.2203 C   0  0  0  0  0  0  0  0  0  0  0  0
    1.9691   -3.8414   -2.7322 C   0  0  0  0  0  0  0  0  0  0  0  0
    3.3515   -3.4375   -3.7566 S   0  0  0  0  0  0  0  0  0  0  0  0
    2.8029   -3.8932   -5.4261 C   0  0  0  0  0  0  0  0  0  0  0  0
    2.1517   -3.7454   -1.3552 C   0  0  0  0  0  0  0  0  0  0  0  0
    1.1136   -3.9970   -0.4842 C   0  0  0  0  0  0  0  0  0  0  0  0
   -1.1928   -5.0445    1.1646 C   0  0  0  0  0  0  0  0  0  0  0  0
   -0.1474   -5.8603    1.5866 C   0  0  0  0  0  0  0  0  0  0  0  0
   -0.0919   -6.3151    2.8900 C   0  0  0  0  0  0  0  0  0  0  0  0
   -1.0906   -5.9812    3.7929 C   0  0  0  0  0  0  0  0  0  0  0  0
   -1.1095   -6.5068    5.4791 S   0  0  0  0  0  0  0  0  0  0  0  0
    0.6252   -6.9345    5.8004 C   0  0  0  0  0  0  0  0  0  0  0  0
   -2.1666   -5.2123    3.3621 C   0  0  0  0  0  0  0  0  0  0  0  0
   -2.2142   -4.7494    2.0689 C   0  0  0  0  0  0  0  0  0  0  0  0
   -3.6125   -5.0831   -0.7075 C   0  0  0  0  0  0  0  0  0  0  0  0
   -3.9078   -6.6324   -0.0365 S   0  0  0  0  0  0  0  0  0  0  0  0
   -5.4917   -6.6874   -0.8191 C   0  0  0  0  0  0  0  0  0  0  0  0
   -5.7437   -5.5139   -1.5731 C   0  0  0  0  0  0  0  0  0  0  0  0
   -6.8554   -5.2633   -2.3340 N   0  0  0  0  0  0  0  0  0  0  0  0
   -7.2819   -3.9317   -2.5004 C   0  0  0  0  0  0  0  0  0  0  0  0
   -7.4364   -3.0996   -1.3928 C   0  0  0  0  0  0  0  0  0  0  0  0
   -7.8754   -1.8065   -1.5608 C   0  0  0  0  0  0  0  0  0  0  0  0
   -8.1537   -1.3122   -2.8327 C   0  0  0  0  0  0  0  0  0  0  0  0
   -8.6722    0.3718   -2.9273 S   0  0  0  0  0  0  0  0  0  0  0  0
   -9.2079    0.5752   -4.6484 C   0  0  0  0  0  0  0  0  0  0  0  0
   -8.0019   -2.1383   -3.9379 C   0  0  0  0  0  0  0  0  0  0  0  0
   -7.5748   -3.4401   -3.7687 C   0  0  0  0  0  0  0  0  0  0  0  0
   -7.4423   -6.2317   -3.1687 C   0  0  0  0  0  0  0  0  0  0  0  0
   -6.6611   -7.1362   -3.8822 C   0  0  0  0  0  0  0  0  0  0  0  0
   -7.2487   -8.0290   -4.7536 C   0  0  0  0  0  0  0  0  0  0  0  0
   -8.6299   -8.0375   -4.9193 C   0  0  0  0  0  0  0  0  0  0  0  0
   -9.4678   -9.1286   -6.0140 S   0  0  0  0  0  0  0  0  0  0  0  0
   -8.2808  -10.4868   -6.2198 C   0  0  0  0  0  0  0  0  0  0  0  0
   -9.4121   -7.1293   -4.2080 C   0  0  0  0  0  0  0  0  0  0  0  0
   -8.8264   -6.2340   -3.3421 C   0  0  0  0  0  0  0  0  0  0  0  0
   -4.6945   -4.5844   -1.4193 C   0  0  0  0  0  0  0  0  0  0  0  0
   -4.3972   -2.9679   -1.9893 S   0  0  0  0  0  0  0  0  0  0  0  0
   -6.3853   -7.7506   -0.6425 C   0  0  0  0  0  0  0  0  0  0  0  0
   -6.4066   -8.7092    0.3465 C   0  0  0  0  0  0  0  0  0  0  0  0
   -5.5882   -8.7503    1.5643 C   0  0  0  0  0  0  0  0  0  0  0  0
   -4.5241   -8.1925    1.8137 O   0  0  0  0  0  0  0  0  0  0  0  0
   -6.3036   -9.6124    2.4997 C   0  0  0  0  0  0  0  0  0  0  0  0
   -5.9497   -9.8929    3.8147 C   0  0  0  0  0  0  0  0  0  0  0  0
   -4.8504   -9.3812    4.3773 O   0  0  0  0  0  0  0  0  0  0  0  0
   -6.8019  -10.7439    4.5330 C   0  0  0  0  0  0  0  0  0  0  0  0
   -7.9289  -11.2705    3.9339 C   0  0  0  0  0  0  0  0  0  0  0  0
   -8.2699  -10.9990    2.6081 C   0  0  0  0  0  0  0  0  0  0  0  0
   -7.4435  -10.1598    1.8873 C   0  0  0  0  0  0  0  0  0  0  0  0
   -7.4537   -9.6990    0.4997 C   0  0  0  0  0  0  0  0  0  0  0  0
   -8.2239  -10.2308   -0.5034 C   0  0  0  0  0  0  0  0  0  0  0  0
   -7.9554  -10.0536   -1.8708 C   0  0  0  0  0  0  0  0  0  0  0  0
   -7.7185  -10.0537   -2.9956 N   0  0  0  0  0  0  0  0  0  0  0  0
   -9.2732  -11.1464   -0.2888 C   0  0  0  0  0  0  0  0  0  0  0  0
  -10.1543  -11.8731   -0.1716 N   0  0  0  0  0  0  0  0  0  0  0  0
    7.1119    5.6783    2.3783 H   0  0  0  0  0  0  0  0  0  0  0  0
    3.2002   10.5691    2.7497 H   0  0  0  0  0  0  0  0  0  0  0  0
    7.7795   10.4666    4.9161 H   0  0  0  0  0  0  0  0  0  0  0  0
    5.8037   12.8781    6.3688 H   0  0  0  0  0  0  0  0  0  0  0  0
    7.3715   14.4034    5.1794 H   0  0  0  0  0  0  0  0  0  0  0  0
    7.5853   13.4922    2.7377 H   0  0  0  0  0  0  0  0  0  0  0  0
    5.1849   13.5829    1.6030 H   0  0  0  0  0  0  0  0  0  0  0  0
    3.4926   14.5534    3.3443 H   0  0  0  0  0  0  0  0  0  0  0  0
    5.5765   16.0120    4.0816 H   0  0  0  0  0  0  0  0  0  0  0  0
    4.8571   15.2934    5.5443 H   0  0  0  0  0  0  0  0  0  0  0  0
    3.4700   12.9760    5.2703 H   0  0  0  0  0  0  0  0  0  0  0  0
    7.0922    2.5804   -0.2967 H   0  0  0  0  0  0  0  0  0  0  0  0
    8.0596    0.4670   -1.0666 H   0  0  0  0  0  0  0  0  0  0  0  0
   10.5379   -0.6181   -0.2486 H   0  0  0  0  0  0  0  0  0  0  0  0
   10.6858   -2.2928   -0.8342 H   0  0  0  0  0  0  0  0  0  0  0  0
    9.6150   -1.1565   -1.6844 H   0  0  0  0  0  0  0  0  0  0  0  0
    7.6431   -1.1628    2.8646 H   0  0  0  0  0  0  0  0  0  0  0  0
    6.6732    0.9717    3.6429 H   0  0  0  0  0  0  0  0  0  0  0  0
    8.8432    2.9922    3.1050 H   0  0  0  0  0  0  0  0  0  0  0  0
    9.6976    3.9550    5.1722 H   0  0  0  0  0  0  0  0  0  0  0  0
   10.6091    4.8036    7.1598 H   0  0  0  0  0  0  0  0  0  0  0  0
   10.3305    6.1397    5.9938 H   0  0  0  0  0  0  0  0  0  0  0  0
   10.4610    6.4806    7.7315 H   0  0  0  0  0  0  0  0  0  0  0  0
    5.7695    5.3201    6.1693 H   0  0  0  0  0  0  0  0  0  0  0  0
    4.8956    4.2994    4.1022 H   0  0  0  0  0  0  0  0  0  0  0  0
   -1.0440    4.7495   -2.0037 H   0  0  0  0  0  0  0  0  0  0  0  0
   -1.6983    4.6252   -4.3780 H   0  0  0  0  0  0  0  0  0  0  0  0
    1.2850    2.2320   -7.2472 H   0  0  0  0  0  0  0  0  0  0  0  0
    0.6790    3.1138   -8.6661 H   0  0  0  0  0  0  0  0  0  0  0  0
    1.8835    3.8872   -7.6136 H   0  0  0  0  0  0  0  0  0  0  0  0
    2.2332    3.2836   -5.3804 H   0  0  0  0  0  0  0  0  0  0  0  0
    2.8787    3.4016   -3.0331 H   0  0  0  0  0  0  0  0  0  0  0  0
    0.8907    6.7126   -1.9645 H   0  0  0  0  0  0  0  0  0  0  0  0
    0.4205    8.7010   -0.5906 H   0  0  0  0  0  0  0  0  0  0  0  0
    0.3220    8.0733    4.3631 H   0  0  0  0  0  0  0  0  0  0  0  0
    1.9198    8.2288    3.5619 H   0  0  0  0  0  0  0  0  0  0  0  0
    1.1233    9.6539    4.2782 H   0  0  0  0  0  0  0  0  0  0  0  0
    0.4330    6.2736    2.9281 H   0  0  0  0  0  0  0  0  0  0  0  0
    0.8924    4.2990    1.5634 H   0  0  0  0  0  0  0  0  0  0  0  0
    3.5993    1.4502   -4.7594 H   0  0  0  0  0  0  0  0  0  0  0  0
    5.9771    0.8057   -4.8705 H   0  0  0  0  0  0  0  0  0  0  0  0
    6.3916   -3.1233   -3.3094 H   0  0  0  0  0  0  0  0  0  0  0  0
    8.1647   -3.2970   -3.4037 H   0  0  0  0  0  0  0  0  0  0  0  0
    7.4008   -2.9054   -1.8474 H   0  0  0  0  0  0  0  0  0  0  0  0
    5.5067   -1.5144   -1.3148 H   0  0  0  0  0  0  0  0  0  0  0  0
    3.1399   -0.9094   -1.2261 H   0  0  0  0  0  0  0  0  0  0  0  0
   -0.5566    1.5604   -3.5241 H   0  0  0  0  0  0  0  0  0  0  0  0
   -1.8739    1.3415   -5.5483 H   0  0  0  0  0  0  0  0  0  0  0  0
   -2.2870    2.1170   -7.7313 H   0  0  0  0  0  0  0  0  0  0  0  0
   -3.3526    0.7525   -7.2559 H   0  0  0  0  0  0  0  0  0  0  0  0
   -3.1079    1.1407   -8.9729 H   0  0  0  0  0  0  0  0  0  0  0  0
    1.2338   -1.0008   -7.3208 H   0  0  0  0  0  0  0  0  0  0  0  0
    2.5397   -0.8350   -5.2427 H   0  0  0  0  0  0  0  0  0  0  0  0
   -3.5028    0.5881   -0.3217 H   0  0  0  0  0  0  0  0  0  0  0  0
   -5.8526    1.2057   -0.2523 H   0  0  0  0  0  0  0  0  0  0  0  0
   -9.2301    2.1130    0.8291 H   0  0  0  0  0  0  0  0  0  0  0  0
   -8.1400    1.6048   -0.4770 H   0  0  0  0  0  0  0  0  0  0  0  0
   -7.4900    2.4552    0.9669 H   0  0  0  0  0  0  0  0  0  0  0  0
   -6.5825   -1.8919    2.6008 H   0  0  0  0  0  0  0  0  0  0  0  0
   -4.2238   -2.5448    2.4993 H   0  0  0  0  0  0  0  0  0  0  0  0
   -3.0270   -0.9420    3.6975 H   0  0  0  0  0  0  0  0  0  0  0  0
   -1.8123   -1.7594    5.6250 H   0  0  0  0  0  0  0  0  0  0  0  0
   -0.6802   -2.3466    7.5432 H   0  0  0  0  0  0  0  0  0  0  0  0
   -1.2626   -3.8811    6.8103 H   0  0  0  0  0  0  0  0  0  0  0  0
    0.1019   -3.8877    7.9498 H   0  0  0  0  0  0  0  0  0  0  0  0
    1.3816   -3.0407    3.0958 H   0  0  0  0  0  0  0  0  0  0  0  0
    0.1300   -2.2518    1.1381 H   0  0  0  0  0  0  0  0  0  0  0  0
   -1.2586   -4.8015   -2.7468 H   0  0  0  0  0  0  0  0  0  0  0  0
    0.5570   -4.3489   -4.2776 H   0  0  0  0  0  0  0  0  0  0  0  0
    1.9578   -3.2779   -5.7221 H   0  0  0  0  0  0  0  0  0  0  0  0
    3.6498   -3.6954   -6.0764 H   0  0  0  0  0  0  0  0  0  0  0  0
    2.5542   -4.9501   -5.4554 H   0  0  0  0  0  0  0  0  0  0  0  0
    3.1213   -3.4651   -0.9722 H   0  0  0  0  0  0  0  0  0  0  0  0
    1.2875   -3.9202    0.5769 H   0  0  0  0  0  0  0  0  0  0  0  0
    0.6235   -6.1555    0.8911 H   0  0  0  0  0  0  0  0  0  0  0  0
    0.7343   -6.9418    3.1858 H   0  0  0  0  0  0  0  0  0  0  0  0
    0.7007   -7.0762    6.8740 H   0  0  0  0  0  0  0  0  0  0  0  0
    1.2596   -6.1104    5.4877 H   0  0  0  0  0  0  0  0  0  0  0  0
    0.8877   -7.8574    5.2915 H   0  0  0  0  0  0  0  0  0  0  0  0
   -2.9581   -4.9746    4.0564 H   0  0  0  0  0  0  0  0  0  0  0  0
   -3.0442   -4.1410    1.7479 H   0  0  0  0  0  0  0  0  0  0  0  0
   -7.2239   -3.4739   -0.4025 H   0  0  0  0  0  0  0  0  0  0  0  0
   -8.0234   -1.1728   -0.7031 H   0  0  0  0  0  0  0  0  0  0  0  0
   -9.6377    1.5704   -4.7065 H   0  0  0  0  0  0  0  0  0  0  0  0
   -8.3553    0.5036   -5.3177 H   0  0  0  0  0  0  0  0  0  0  0  0
   -9.9628   -0.1683   -4.8863 H   0  0  0  0  0  0  0  0  0  0  0  0
   -8.2049   -1.7838   -4.9355 H   0  0  0  0  0  0  0  0  0  0  0  0
   -7.4567   -4.0804   -4.6301 H   0  0  0  0  0  0  0  0  0  0  0  0
   -5.5883   -7.1289   -3.7572 H   0  0  0  0  0  0  0  0  0  0  0  0
   -6.6228   -8.7100   -5.3051 H   0  0  0  0  0  0  0  0  0  0  0  0
   -7.4906  -10.1985   -6.9073 H   0  0  0  0  0  0  0  0  0  0  0  0
   -7.8887  -10.7499   -5.2427 H   0  0  0  0  0  0  0  0  0  0  0  0
   -8.8456  -11.3150   -6.6361 H   0  0  0  0  0  0  0  0  0  0  0  0
  -10.4830   -7.1424   -4.3387 H   0  0  0  0  0  0  0  0  0  0  0  0
   -9.4324   -5.5322   -2.7882 H   0  0  0  0  0  0  0  0  0  0  0  0
   -7.2261   -7.7593   -1.3294 H   0  0  0  0  0  0  0  0  0  0  0  0
   -4.3864   -8.8237    3.7219 H   0  0  0  0  0  0  0  0  0  0  0  0
   -6.5564  -10.9764    5.5569 H   0  0  0  0  0  0  0  0  0  0  0  0
   -8.5701  -11.9204    4.5102 H   0  0  0  0  0  0  0  0  0  0  0  0
   -9.1573  -11.4332    2.1785 H   0  0  0  0  0  0  0  0  0  0  0  0
  1  2  2  0  0  0  0
  2  3  1  0  0  0  0
  3  4  2  0  0  0  0
  3  5  1  0  0  0  0
  5  6  2  0  0  0  0
  6  7  1  0  0  0  0
  7  8  2  0  0  0  0
  8  9  1  0  0  0  0
  9 10  2  0  0  0  0
 10 11  1  0  0  0  0
 11 12  2  0  0  0  0
 12 13  1  0  0  0  0
 13 14  3  0  0  0  0
 12 15  1  0  0  0  0
 15 16  3  0  0  0  0
  8 17  1  0  0  0  0
 17 18  1  0  0  0  0
 18 19  1  0  0  0  0
 19 20  2  0  0  0  0
 20 21  1  0  0  0  0
 21 22  1  0  0  0  0
 21 23  1  0  0  0  0
  1 24  1  0  0  0  0
 24 25  2  0  0  0  0
 25 26  1  0  0  0  0
 26 27  1  0  0  0  0
 27 28  2  0  0  0  0
 28 29  1  0  0  0  0
 29 30  2  0  0  0  0
 30 31  1  0  0  0  0
 31 32  1  0  0  0  0
 30 33  1  0  0  0  0
 33 34  2  0  0  0  0
 26 35  1  0  0  0  0
 35 36  2  0  0  0  0
 36 37  1  0  0  0  0
 37 38  2  0  0  0  0
 38 39  1  0  0  0  0
 39 40  1  0  0  0  0
 38 41  1  0  0  0  0
 41 42  2  0  0  0  0
 25 43  1  0  0  0  0
 43 44  1  0  0  0  0
 44 45  1  0  0  0  0
 45 46  2  0  0  0  0
 46 47  1  0  0  0  0
 47 48  1  0  0  0  0
 48 49  2  0  0  0  0
 49 50  1  0  0  0  0
 50 51  2  0  0  0  0
 51 52  1  0  0  0  0
 52 53  1  0  0  0  0
 51 54  1  0  0  0  0
 54 55  2  0  0  0  0
 47 56  1  0  0  0  0
 56 57  2  0  0  0  0
 57 58  1  0  0  0  0
 58 59  2  0  0  0  0
 59 60  1  0  0  0  0
 60 61  1  0  0  0  0
 59 62  1  0  0  0  0
 62 63  2  0  0  0  0
 46 64  1  0  0  0  0
 64 65  1  0  0  0  0
 45 66  1  0  0  0  0
 66 67  2  0  0  0  0
 67 68  1  0  0  0  0
 68 69  1  0  0  0  0
 69 70  2  0  0  0  0
 70 71  1  0  0  0  0
 71 72  2  0  0  0  0
 72 73  1  0  0  0  0
 73 74  1  0  0  0  0
 72 75  1  0  0  0  0
 75 76  2  0  0  0  0
 68 77  1  0  0  0  0
 77 78  2  0  0  0  0
 78 79  1  0  0  0  0
 79 80  2  0  0  0  0
 80 81  1  0  0  0  0
 81 82  1  0  0  0  0
 80 83  1  0  0  0  0
 83 84  2  0  0  0  0
 67 85  1  0  0  0  0
 85 86  1  0  0  0  0
 86 87  1  0  0  0  0
 87 88  2  0  0  0  0
 88 89  1  0  0  0  0
 89 90  1  0  0  0  0
 90 91  2  0  0  0  0
 91 92  1  0  0  0  0
 92 93  2  0  0  0  0
 93 94  1  0  0  0  0
 94 95  1  0  0  0  0
 93 96  1  0  0  0  0
 96 97  2  0  0  0  0
 89 98  1  0  0  0  0
 98 99  2  0  0  0  0
 99100  1  0  0  0  0
100101  2  0  0  0  0
101102  1  0  0  0  0
102103  1  0  0  0  0
101104  1  0  0  0  0
104105  2  0  0  0  0
 88106  1  0  0  0  0
106107  1  0  0  0  0
 87108  1  0  0  0  0
108109  2  0  0  0  0
109110  1  0  0  0  0
110111  1  0  0  0  0
111112  2  0  0  0  0
112113  1  0  0  0  0
113114  2  0  0  0  0
114115  1  0  0  0  0
115116  1  0  0  0  0
114117  1  0  0  0  0
117118  2  0  0  0  0
110119  1  0  0  0  0
119120  2  0  0  0  0
120121  1  0  0  0  0
121122  2  0  0  0  0
122123  1  0  0  0  0
123124  1  0  0  0  0
122125  1  0  0  0  0
125126  2  0  0  0  0
109127  1  0  0  0  0
127128  1  0  0  0  0
128129  1  0  0  0  0
129130  2  0  0  0  0
130131  1  0  0  0  0
131132  1  0  0  0  0
132133  2  0  0  0  0
133134  1  0  0  0  0
134135  2  0  0  0  0
135136  1  0  0  0  0
136137  1  0  0  0  0
135138  1  0  0  0  0
138139  2  0  0  0  0
131140  1  0  0  0  0
140141  2  0  0  0  0
141142  1  0  0  0  0
142143  2  0  0  0  0
143144  1  0  0  0  0
144145  1  0  0  0  0
143146  1  0  0  0  0
146147  2  0  0  0  0
130148  1  0  0  0  0
148149  1  0  0  0  0
129150  1  0  0  0  0
150151  2  0  0  0  0
151152  1  0  0  0  0
152153  2  0  0  0  0
152154  1  0  0  0  0
154155  2  0  0  0  0
155156  1  0  0  0  0
155157  1  0  0  0  0
157158  2  0  0  0  0
158159  1  0  0  0  0
159160  2  0  0  0  0
160161  1  0  0  0  0
161162  2  0  0  0  0
162163  1  0  0  0  0
163164  3  0  0  0  0
162165  1  0  0  0  0
165166  3  0  0  0  0
 11  2  1  0  0  0  0
 23 17  1  0  0  0  0
 65 24  1  0  0  0  0
107 66  1  0  0  0  0
149108  1  0  0  0  0
161151  1  0  0  0  0
 10  5  1  0  0  0  0
 22 18  1  0  0  0  0
 34 27  1  0  0  0  0
 42 35  1  0  0  0  0
 64 43  2  0  0  0  0
 76 69  1  0  0  0  0
 84 77  1  0  0  0  0
106 85  2  0  0  0  0
118111  1  0  0  0  0
126119  1  0  0  0  0
148127  2  0  0  0  0
160154  1  0  0  0  0
 23  7  1  0  0  0  0
 55 48  1  0  0  0  0
 63 56  1  0  0  0  0
 97 90  1  0  0  0  0
105 98  1  0  0  0  0
139132  1  0  0  0  0
147140  1  0  0  0  0
  1167  1  0  0  0  0
  6168  1  0  0  0  0
  9169  1  0  0  0  0
 17170  1  0  0  0  0
 18171  1  0  0  0  0
 19172  1  0  0  0  0
 20173  1  0  0  0  0
 21174  1  0  0  0  0
 22175  1  0  0  0  0
 22176  1  0  0  0  0
 23177  1  0  0  0  0
 28178  1  0  0  0  0
 29179  1  0  0  0  0
 32180  1  0  0  0  0
 32181  1  0  0  0  0
 32182  1  0  0  0  0
 33183  1  0  0  0  0
 34184  1  0  0  0  0
 36185  1  0  0  0  0
 37186  1  0  0  0  0
 40187  1  0  0  0  0
 40188  1  0  0  0  0
 40189  1  0  0  0  0
 41190  1  0  0  0  0
 42191  1  0  0  0  0
 49192  1  0  0  0  0
 50193  1  0  0  0  0
 53194  1  0  0  0  0
 53195  1  0  0  0  0
 53196  1  0  0  0  0
 54197  1  0  0  0  0
 55198  1  0  0  0  0
 57199  1  0  0  0  0
 58200  1  0  0  0  0
 61201  1  0  0  0  0
 61202  1  0  0  0  0
 61203  1  0  0  0  0
 62204  1  0  0  0  0
 63205  1  0  0  0  0
 70206  1  0  0  0  0
 71207  1  0  0  0  0
 74208  1  0  0  0  0
 74209  1  0  0  0  0
 74210  1  0  0  0  0
 75211  1  0  0  0  0
 76212  1  0  0  0  0
 78213  1  0  0  0  0
 79214  1  0  0  0  0
 82215  1  0  0  0  0
 82216  1  0  0  0  0
 82217  1  0  0  0  0
 83218  1  0  0  0  0
 84219  1  0  0  0  0
 91220  1  0  0  0  0
 92221  1  0  0  0  0
 95222  1  0  0  0  0
 95223  1  0  0  0  0
 95224  1  0  0  0  0
 96225  1  0  0  0  0
 97226  1  0  0  0  0
 99227  1  0  0  0  0
100228  1  0  0  0  0
103229  1  0  0  0  0
103230  1  0  0  0  0
103231  1  0  0  0  0
104232  1  0  0  0  0
105233  1  0  0  0  0
112234  1  0  0  0  0
113235  1  0  0  0  0
116236  1  0  0  0  0
116237  1  0  0  0  0
116238  1  0  0  0  0
117239  1  0  0  0  0
118240  1  0  0  0  0
120241  1  0  0  0  0
121242  1  0  0  0  0
124243  1  0  0  0  0
124244  1  0  0  0  0
124245  1  0  0  0  0
125246  1  0  0  0  0
126247  1  0  0  0  0
133248  1  0  0  0  0
134249  1  0  0  0  0
137250  1  0  0  0  0
137251  1  0  0  0  0
137252  1  0  0  0  0
138253  1  0  0  0  0
139254  1  0  0  0  0
141255  1  0  0  0  0
142256  1  0  0  0  0
145257  1  0  0  0  0
145258  1  0  0  0  0
145259  1  0  0  0  0
146260  1  0  0  0  0
147261  1  0  0  0  0
150262  1  0  0  0  0
156263  1  0  0  0  0
157264  1  0  0  0  0
158265  1  0  0  0  0
159266  1  0  0  0  0
M  END
