268

C          7.31100       -5.41550       -0.91760
C          7.77600       -6.06940       -2.03800
C          6.94990       -6.91540       -2.91290
O          5.76880       -7.18300       -2.76950
C          7.87940       -7.48720       -3.91040
C          7.56640       -8.32150       -4.97970
C          8.64490       -8.65980       -5.76340
C          9.94800       -8.22840       -5.48770
C         10.27400       -7.41440       -4.42950
C          9.18680       -7.03790       -3.63810
C          9.13870       -6.14440       -2.48490
C         10.16940       -5.35550       -2.03320
C         10.02780       -4.36140       -1.04480
N          9.97780       -3.49740       -0.28880
C         11.46960       -5.35050       -2.56880
N         12.54220       -5.26420       -2.97330
C         10.52910       -8.95600       -6.67460
C         10.89320       -8.09410       -7.90130
C         10.96080       -9.08820       -9.03750
C          9.72120       -9.47670       -9.30750
C          8.79500       -8.75310       -8.35630
C          9.54960       -7.42510       -8.21410
C          9.07250       -9.42310       -6.99320
C          6.01030       -4.95040       -0.71180
C          4.97490       -4.61870       -1.60760
N          4.99930       -4.62150       -2.97680
C          3.76080       -4.78670       -3.63820
C          2.93520       -5.85870       -3.30360
C          1.70500       -5.99290       -3.90450
C          1.27760       -5.06320       -4.85310
S         -0.32970       -5.32140       -5.52720
C         -0.58790       -3.89500       -6.61910
C          2.11630       -4.01620       -5.21340
C          3.35100       -3.88010       -4.60810
C          6.14040       -4.42040       -3.75160
C          6.23750       -5.03770       -5.00300
C          7.36990       -4.88980       -5.76720
C          8.44640       -4.13070       -5.30600
S          9.87670       -4.09840       -6.33000
C         11.02100       -2.97810       -5.47950
C          8.33400       -3.47100       -4.08820
C          7.19270       -3.61300       -3.32290
C          3.84450       -4.14620       -0.89850
S          2.34660       -3.45110       -1.41010
C          1.91480       -3.09500        0.25450
C          2.90430       -3.46830        1.15540
N          2.85170       -3.20760        2.51260
C          3.50090       -4.00050        3.46210
C          3.78270       -5.34100        3.21780
C          4.40360       -6.12850        4.16770
C          4.75820       -5.58890        5.39380
S          5.53080       -6.50080        6.69400
C          5.88460       -8.11250        5.93730
C          4.48850       -4.24480        5.64470
C          3.87510       -3.45990        4.69510
C          2.25470       -1.99180        2.91350
C          1.24380       -1.96860        3.86630
C          0.63490       -0.77860        4.21560
C          1.04990        0.41080        3.63130
S          0.31460        1.98430        3.94850
C         -0.72620        1.68880        5.40100
C          2.09770        0.39500        2.71380
C          2.68470       -0.79440        2.34640
C          3.99420       -4.07110        0.47800
S          5.57030       -4.58100        0.96570
C          0.73800       -2.29520        0.47600
C         -0.38610       -2.49510        1.25160
N         -0.85090       -3.68840        1.78740
C         -0.01650       -4.85010        1.70800
C          0.30830       -5.39580        0.47210
C          1.10200       -6.52320        0.38820
C          1.53960       -7.14370        1.55030
S          2.61190       -8.54720        1.55540
C          3.36240       -8.50730       -0.09780
C          1.14370       -6.64490        2.79040
C          0.38650       -5.49490        2.86830
C         -2.19170       -4.04620        1.45950
C         -2.83730       -5.00130        2.23640
C         -4.06840       -5.50630        1.86380
C         -4.68160       -5.05740        0.70270
S         -6.21160       -5.67200        0.07700
C         -6.69900       -6.95120        1.26290
C         -4.05940       -4.06730       -0.05330
C         -2.82880       -3.57220        0.31440
C         -1.14300       -1.29310        1.35770
S         -2.47610       -0.78540        2.34230
C         -2.43960        0.80790        1.60570
C         -1.46830        0.91180        0.63880
N         -1.41860        2.00590       -0.24790
C         -2.19970        1.92250       -1.39580
C         -3.13510        0.89670       -1.55400
C         -3.94040        0.82620       -2.67370
C         -3.83650        1.78240       -3.66980
S         -4.86400        1.82490       -5.10980
C         -6.17790        0.62950       -4.74060
C         -2.86560        2.77280       -3.55320
C         -2.05170        2.83600       -2.44460
C         -0.58450        3.09580        0.05040
C         -1.03420        4.40940       -0.05190
C         -0.18380        5.46910        0.20490
C          1.12940        5.22840        0.58780
S          2.30790        6.49850        0.93970
C          1.58760        7.98700        0.19890
C          1.56830        3.91460        0.73580
C          0.72310        2.86210        0.47010
C         -0.69780       -0.26860        0.54300
S          0.74000       -0.70190       -0.29760
C         -3.26700        1.93780        1.97680
C         -4.52490        2.27780        1.52920
N         -5.37780        1.42810        0.83430
C         -6.11750        1.95600       -0.23220
C         -5.55370        2.94280       -1.03810
C         -6.24860        3.47520       -2.10550
C         -7.52670        3.02070       -2.39750
S         -8.49530        3.58850       -3.75950
C         -7.34900        4.63370       -4.70070
C         -8.10760        2.05440       -1.57690
C         -7.41970        1.53500       -0.50320
C         -5.65080        0.17440        1.39410
C         -5.56790       -0.00470        2.77470
C         -5.84030       -1.22810        3.34840
C         -6.21930       -2.29780        2.55190
S         -6.63150       -3.87300        3.23870
C         -5.56270       -3.94640        4.70760
C         -6.32070       -2.12710        1.17560
C         -6.02060       -0.91060        0.60010
C         -4.86100        3.60150        1.90810
S         -6.23020        4.60190        1.60160
C         -5.45870        5.93180        2.47240
C         -4.26220        5.54450        3.09810
N         -3.60830        6.23760        4.08150
C         -2.28720        5.88110        4.43870
C         -1.28120        5.80530        3.48360
C          0.01060        5.48420        3.85270
C          0.31470        5.23930        5.18530
S          1.92160        4.82970        5.76620
C          2.89190        4.61610        4.25120
C         -0.69450        5.32670        6.14650
C         -1.98180        5.64440        5.77860
C         -4.20900        7.25320        4.84940
C         -3.44050        8.35320        5.23670
C         -4.02710        9.42270        5.87490
C         -5.39690        9.42720        6.12990
S         -6.10810       10.89670        6.79660
C         -7.79810       10.84100        6.13570
C         -6.14180        8.28940        5.84550
C         -5.54950        7.20930        5.22240
C         -3.90620        4.23080        2.69110
S         -2.53580        3.20710        2.94630
C         -6.07670        7.19640        2.43470
C         -5.41890        8.38900        2.44520
S         -3.70410        8.59100        2.14000
C         -3.84880       10.32200        2.31250
C         -2.77250       11.14380        2.08290
C         -1.53550       10.55450        1.77090
N         -0.53600       10.04710        1.52180
C         -2.81210       12.54830        2.07670
N         -2.78390       13.69500        2.02610
N         -5.11260       10.69110        2.63940
C         -5.48020       12.01400        3.01970
C         -4.87640       12.60460        4.12040
C         -5.27600       13.86740        4.51440
C         -6.27430       14.52870        3.81950
C         -6.87880       13.92750        2.72870
C         -6.48590       12.66490        2.32290
C         -6.05340        9.66390        2.70680
O         -7.21370        9.84120        3.01370
H          8.00150       -5.23130       -0.10320
H          6.55160       -8.64410       -5.15420
H         11.28160       -7.09450       -4.22190
H         11.27780       -9.71230       -6.44620
H         11.75290       -7.44480       -7.76290
H         11.87690       -9.43670       -9.47740
H          9.39540      -10.21520      -10.01670
H          7.74570       -8.70730       -8.63640
H          9.18750       -6.78410       -7.41370
H          9.57630       -6.86230       -9.14550
H          8.85430      -10.48970       -6.99250
H          3.29050       -6.58450       -2.58920
H          1.05560       -6.81800       -3.65400
H         -0.51520       -2.97420       -6.04790
H          0.12800       -3.91420       -7.43560
H         -1.59410       -4.00740       -7.01100
H          1.81900       -3.29290       -5.95490
H          3.99740       -3.05860       -4.87970
H          5.42410       -5.65320       -5.35510
H          7.44320       -5.37720       -6.72690
H         11.33180       -3.40550       -4.53070
H         10.55780       -2.00470       -5.34860
H         11.88060       -2.89180       -6.13680
H          9.13240       -2.85000       -3.71400
H          7.12330       -3.08850       -2.38180
H          3.50090       -5.78760        2.28140
H          4.58920       -7.16320        3.93050
H          6.42820       -8.67560        6.68960
H          6.50490       -7.97630        5.05650
H          4.95820       -8.62420        5.69250
H          4.77460       -3.82090        6.59510
H          3.69040       -2.41750        4.90500
H          0.92770       -2.89200        4.32560
H         -0.16770       -0.79400        4.93480
H         -1.09480        2.66710        5.69560
H         -1.55940        1.04250        5.13870
H         -0.12420        1.26210        6.19730
H          2.44600        1.32650        2.29700
H          3.48650       -0.80490        1.62290
H         -0.06550       -4.93900       -0.43260
H          1.36000       -6.91020       -0.58430
H          3.76620       -7.51860       -0.29540
H          2.63810       -8.79840       -0.85280
H          4.17090       -9.23110       -0.07320
H          1.46060       -7.15300        3.68760
H          0.10810       -5.09520        3.83120
H         -2.35460       -5.37830        3.12520
H         -4.53260       -6.25750        2.48160
H         -7.62650       -7.36490        0.87950
H         -5.93830       -7.72530        1.30540
H         -6.87050       -6.49830        2.23490
H         -4.53540       -3.71660       -0.95600
H         -2.34690       -2.83970       -0.31630
H         -3.25490        0.14040       -0.79390
H         -4.65080        0.01850       -2.74820
H         -6.91700        0.75300       -5.52610
H         -5.78130       -0.38170       -4.76400
H         -6.62160        0.86000       -3.77610
H         -2.75220        3.49490       -4.34780
H         -1.29010        3.59800       -2.39150
H         -2.05850        4.60650       -0.33580
H         -0.55330        6.47870        0.10850
H          1.28800        7.76950       -0.82210
H          2.38300        8.72590        0.20070
H          0.75570        8.35240        0.79330
H          2.59020        3.73670        1.03600
H          1.07720        1.84780        0.55490
H         -4.55180        3.29070       -0.83760
H         -5.77260        4.23150       -2.70760
H         -7.09620        5.52080       -4.12720
H         -6.46340        4.06180       -4.96440
H         -7.88690        4.91850       -5.59950
H         -9.11140        1.72030       -1.79110
H         -7.89370        0.80260        0.13220
H         -5.30470        0.82690        3.41130
H         -5.77710       -1.32920        4.42020
H         -5.97710       -3.34570        5.51200
H         -5.53590       -4.98820        5.01140
H         -4.56710       -3.60980        4.43390
H         -6.63760       -2.95490        0.56170
H         -6.07680       -0.79380       -0.47130
H         -1.50750        6.01460        2.44920
H          0.77120        5.43660        3.09440
H          2.42350        3.85290        3.63700
H          2.97700        5.55850        3.71810
H          3.87320        4.28570        4.57740
H         -0.45150        5.14140        7.18180
H         -2.76140        5.71240        6.52330
H         -2.38820        8.37900        4.99450
H         -3.43330       10.27830        6.15850
H         -7.76780       10.53370        5.09340
H         -8.41480       10.17060        6.72730
H         -8.17800       11.85490        6.21350
H         -7.18850        8.24180        6.09740
H         -6.14080        6.33190        5.00980
H         -7.15680        7.24010        2.36210
H         -4.10690       12.07830        4.66370
H         -4.80860       14.32890        5.36990
H         -6.58320       15.51500        4.13020
H         -7.65880       14.44120        2.18780
H         -6.95380       12.18360        1.47810
