213

C         -8.52650       -1.38040        6.06560
C         -9.21130       -2.54330        6.21940
C         -9.58280       -3.00920        7.58570
O         -9.58100       -2.34920        8.59930
C         -9.87860       -4.44690        7.43660
C        -10.13060       -5.36700        8.45270
C        -10.32730       -6.65250        8.00800
C        -10.27510       -7.00520        6.65210
C        -10.04060       -6.10800        5.63750
C         -9.84230       -4.79370        6.06910
C         -9.58950       -3.58580        5.28930
C         -9.90160       -3.41580        3.96620
C         -9.86340       -2.17260        3.30040
N         -9.89210       -1.18680        2.71350
C        -10.37490       -4.43800        3.12400
N        -10.74490       -5.22550        2.37350
C        -10.53640       -8.46260        6.93840
C         -9.31640       -9.40670        6.88210
C         -9.76730      -10.62550        7.65440
C         -9.82250      -10.29250        8.93760
C         -9.40920       -8.84300        9.05450
C         -8.38100       -8.77000        7.91820
C        -10.59990       -8.06920        8.44920
C         -7.73370       -0.98220        4.96030
C         -7.15050       -1.77310        4.00420
C         -6.32910       -1.07270        3.10000
C         -5.56760       -1.60890        2.03780
C         -5.62990       -3.00550        1.67540
C         -4.60080       -3.82240        1.28900
C         -5.00540       -5.12020        0.94470
C         -6.35570       -5.30590        1.04790
S         -7.17830       -6.81450        0.75780
C         -8.76690       -6.25830        0.04340
C         -8.57620       -5.52640       -1.26850
S         -7.14950       -3.86850        1.62410
C         -4.71860       -0.72020        1.38660
C         -4.64610        0.65460        1.71180
C         -5.45800        1.20310        2.72460
C         -5.33920        2.60610        3.06030
C         -5.21650        3.66720        2.20590
C         -4.98560        4.89390        2.85220
C         -4.91440        4.76840        4.20920
S         -4.57590        5.98990        5.41570
C         -3.28610        6.97540        4.56400
C         -2.04730        6.16020        4.25110
S         -5.17860        3.13090        4.71540
C         -6.26280        0.30870        3.41510
S         -7.26560        0.69750        4.78130
C         -3.60360        1.30550        1.01380
C         -2.89530        0.48560        0.18750
S         -3.56400       -1.13250        0.14380
C         -1.62330        0.81400       -0.37820
C         -0.63430        1.51240        0.30090
N         -0.67410        1.87920        1.63850
C         -0.03680        3.05930        2.03840
C         -0.07620        4.19530        1.22830
C          0.57660        5.34580        1.61140
C          1.27310        5.39440        2.81610
S          2.08090        6.91900        3.19910
C          2.70040        6.67550        4.88810
C          1.30260        4.27290        3.63350
C          0.65650        3.11700        3.24460
C         -1.28940        1.04830        2.58720
C         -1.99220        1.59800        3.65560
C         -2.68590        0.79300        4.53770
C         -2.71160       -0.58120        4.35150
S         -3.67380       -1.69320        5.32580
C         -4.33370       -0.65090        6.65700
C         -1.96130       -1.14210        3.31960
C         -1.24720       -0.34130        2.45820
C          0.49110        1.71670       -0.53100
S          2.01010        2.50090       -0.30520
C          2.51060        2.03420       -1.92480
C          1.56310        1.24810       -2.57540
N          1.70020        0.60880       -3.79620
C          0.56880        0.55130       -4.62870
C          0.24330       -0.61560       -5.32010
C         -0.85590       -0.64400       -6.14660
C         -1.66220        0.48460       -6.29620
S         -3.02950        0.32660       -7.39850
C         -3.86390        1.93580       -7.30000
C         -1.35010        1.64230       -5.59770
C         -0.24080        1.67350       -4.77510
C          2.90670        0.02840       -4.20480
C          3.84380       -0.42000       -3.27680
C          5.08720       -0.86890       -3.67890
C          5.41490       -0.90230       -5.02700
S          6.99330       -1.36880       -5.66090
C          7.87820       -2.02490       -4.22180
C          4.45550       -0.52340       -5.96510
C          3.22570       -0.05680       -5.56370
C          0.39560        1.12120       -1.77790
S         -1.12180        0.31120       -1.98200
C          3.79580        2.45610       -2.35770
C          4.30940        2.49360       -3.62360
C          5.68200        2.81830       -3.67510
C          6.54440        2.73930       -4.79250
C          6.06370        2.44770       -6.12270
C          6.67160        1.73900       -7.12430
C          5.92500        1.66980       -8.31070
C          4.74020        2.34780       -8.23680
S          3.57530        2.46550       -9.53120
C          2.26060        3.51660       -8.81630
C          1.32120        2.75110       -7.90470
S          4.53260        3.07930       -6.67970
C          7.89630        2.92830       -4.52490
C          8.40600        3.30230       -3.25340
C          7.53720        3.39690       -2.14190
C          8.00620        3.72240       -0.81750
C          9.15890        3.34890       -0.17720
C          9.25630        3.82800        1.13800
C          8.17330        4.57670        1.51330
S          7.95580        5.31610        3.07630
C          6.18900        5.79750        3.05480
C          5.94760        7.13400        2.38240
S          7.01610        4.70700        0.23010
C          6.19960        3.11550       -2.39180
S          4.97210        2.95970       -1.16500
C          9.79490        3.53640       -3.28850
C         10.37630        3.23290       -4.49250
S          9.17820        2.77010       -5.68930
C         11.76130        3.23330       -4.79520
C         12.37590        2.45210       -5.72270
C         13.73200        2.76800       -6.23210
O         14.52400        3.54520       -5.75860
C         13.86080        1.97100       -7.47920
C         14.85460        2.01390       -8.44170
Cl        16.24990        2.97360       -8.23540
C         14.68490        1.24960       -9.60620
Cl        15.89810        1.25590      -10.81060
C         13.51680        0.51330       -9.80170
Cl        13.29730       -0.34070      -11.26640
C         12.51310        0.46960       -8.82130
Cl        11.03750       -0.33200       -9.17090
C         12.71720        1.15960       -7.63550
C         11.90820        1.27180       -6.42590
C         11.13530        0.29150       -5.86460
C         10.92770       -1.01180       -6.36420
N         10.74600       -2.11520       -6.62210
C         10.59110        0.38680       -4.56390
N         10.16190        0.37010       -3.49890
H         -8.52000       -0.72140        6.92780
H        -10.16130       -5.05800        9.48570
H         -9.99650       -6.38800        4.59740
H        -11.42350       -8.88580        6.47140
H         -8.91860       -9.57780        5.88550
H        -10.04380      -11.55720        7.19690
H        -10.15430      -10.89030        9.76620
H         -9.09580       -8.50130       10.03730
H         -7.50570       -9.38660        8.11530
H         -8.06460       -7.75870        7.66930
H        -11.53080       -8.22800        8.99000
H         -7.24700       -2.84320        4.00450
H         -3.57450       -3.50520        1.27660
H         -4.33810       -5.89570        0.61720
H         -9.32720       -7.18210       -0.09580
H         -9.27700       -5.64550        0.78750
H         -9.54790       -5.25910       -1.67790
H         -8.00250       -4.61290       -1.12450
H         -8.05300       -6.15500       -1.98620
H         -5.33060        3.57670        1.14030
H         -4.87530        5.82780        2.33130
H         -3.06440        7.77370        5.27130
H         -3.72470        7.40920        3.66670
H         -1.28380        6.80060        3.81430
H         -1.64940        5.70890        5.15750
H         -2.27310        5.36740        3.54000
H         -3.34930        2.33920        1.15640
H         -0.62420        4.16970        0.29790
H          0.55160        6.22250        0.98250
H          3.44240        5.88260        4.90350
H          1.87310        6.45550        5.55630
H          3.16180        7.61710        5.16900
H          1.83620        4.27790        4.56990
H          0.69690        2.24270        3.87680
H         -2.01520        2.66990        3.78680
H         -3.22520        1.25530        5.34730
H         -3.51480       -0.22330        7.22770
H         -4.97590        0.12390        6.24860
H         -4.91540       -1.31700        7.28690
H         -1.95100       -2.21500        3.20280
H         -0.66780       -0.78830        1.66430
H          0.85770       -1.49500       -5.20130
H         -1.11090       -1.54420       -6.68410
H         -4.18660        2.12440       -6.28040
H         -4.72880        1.85510       -7.95090
H         -3.20530        2.72080       -7.66030
H         -1.95380        2.53060       -5.68970
H          0.00790        2.58220       -4.24580
H          3.60530       -0.40520       -2.22390
H          5.79570       -1.17770       -2.92730
H          8.79950       -2.44200       -4.61820
H          8.11000       -1.22410       -3.52460
H          7.28840       -2.80790       -3.75490
H          4.69850       -0.57680       -7.01490
H          2.50880        0.25950       -6.30630
H          3.71990        2.27700       -4.49060
H          7.60610        1.22400       -7.00170
H          6.23960        1.13840       -9.18960
H          2.74780        4.34070       -8.29580
H          1.73020        3.90250       -9.68660
H          1.84620        2.38630       -7.02560
H          0.88340        1.90370       -8.42750
H          0.51910        3.40660       -7.57200
H          9.88470        2.68890       -0.61710
H         10.07920        3.62260        1.79740
H          5.91710        5.83730        4.10970
H          5.63880        4.99320        2.56630
H          6.50550        7.91970        2.88630
H          6.25320        7.10280        1.33970
H          4.88690        7.37380        2.42110
H         10.36690        3.87480       -2.44450
H         12.38240        3.95220       -4.27240
