
  xtb     02092213313D
 energy: -432.329505391924 gnorm: 0.000630277875 xtb: 6.4.1 (unknown)
256282  0     0  0            999 V2000
   -8.7583   -4.4480   -5.6780 C   0  0  0  0  0  0  0  0  0  0  0  0
   -9.0057   -5.6686   -6.2314 C   0  0  0  0  0  0  0  0  0  0  0  0
   -8.0864   -6.8310   -6.3361 C   0  0  0  0  0  0  0  0  0  0  0  0
   -7.0259   -7.0113   -5.7755 O   0  0  0  0  0  0  0  0  0  0  0  0
   -8.7118   -7.7489   -7.3047 C   0  0  0  0  0  0  0  0  0  0  0  0
   -8.1719   -8.9404   -7.7846 C   0  0  0  0  0  0  0  0  0  0  0  0
   -8.9702   -9.5894   -8.6947 C   0  0  0  0  0  0  0  0  0  0  0  0
  -10.2129   -9.0865   -9.1053 C   0  0  0  0  0  0  0  0  0  0  0  0
  -10.7569   -7.9135   -8.6398 C   0  0  0  0  0  0  0  0  0  0  0  0
   -9.9641   -7.2419   -7.7040 C   0  0  0  0  0  0  0  0  0  0  0  0
  -10.2065   -5.9938   -6.9884 C   0  0  0  0  0  0  0  0  0  0  0  0
  -11.3908   -5.3063   -6.9708 C   0  0  0  0  0  0  0  0  0  0  0  0
  -11.6641   -4.1626   -6.1891 C   0  0  0  0  0  0  0  0  0  0  0  0
  -11.9826   -3.2508   -5.5683 N   0  0  0  0  0  0  0  0  0  0  0  0
  -12.5398   -5.6811   -7.6993 C   0  0  0  0  0  0  0  0  0  0  0  0
  -13.5093   -5.9216   -8.2652 N   0  0  0  0  0  0  0  0  0  0  0  0
  -10.4663  -10.2492  -10.0316 C   0  0  0  0  0  0  0  0  0  0  0  0
  -11.4555  -11.3430   -9.5589 C   0  0  0  0  0  0  0  0  0  0  0  0
  -11.4294  -11.3221   -8.0506 C   0  0  0  0  0  0  0  0  0  0  0  0
  -10.2552  -11.7988   -7.6593 C   0  0  0  0  0  0  0  0  0  0  0  0
   -9.4661  -12.1511   -8.8962 C   0  0  0  0  0  0  0  0  0  0  0  0
  -10.6055  -12.5953   -9.8272 C   0  0  0  0  0  0  0  0  0  0  0  0
   -9.0839  -10.8107   -9.5718 C   0  0  0  0  0  0  0  0  0  0  0  0
   -7.6535   -3.9958   -4.9160 C   0  0  0  0  0  0  0  0  0  0  0  0
   -6.5867   -4.6165   -4.3039 C   0  0  0  0  0  0  0  0  0  0  0  0
   -5.8429   -3.6069   -3.6539 C   0  0  0  0  0  0  0  0  0  0  0  0
   -4.6424   -3.6344   -2.9194 C   0  0  0  0  0  0  0  0  0  0  0  0
   -3.9001   -4.8868   -2.7607 C   0  0  0  0  0  0  0  0  0  0  0  0
   -4.5492   -6.0609   -2.3898 C   0  0  0  0  0  0  0  0  0  0  0  0
   -3.8644   -7.2572   -2.4277 C   0  0  0  0  0  0  0  0  0  0  0  0
   -4.5188   -8.3781   -2.0671 F   0  0  0  0  0  0  0  0  0  0  0  0
   -2.5401   -7.3670   -2.8413 C   0  0  0  0  0  0  0  0  0  0  0  0
   -1.8743   -8.7013   -2.9954 C   0  0  0  0  0  0  0  0  0  0  0  0
   -2.3269   -9.3722   -4.2943 C   0  0  0  0  0  0  0  0  0  0  0  0
   -1.9171   -6.1655   -3.1539 C   0  0  0  0  0  0  0  0  0  0  0  0
   -0.6193   -6.1887   -3.5360 F   0  0  0  0  0  0  0  0  0  0  0  0
   -2.5535   -4.9419   -3.1057 C   0  0  0  0  0  0  0  0  0  0  0  0
   -4.2043   -2.3887   -2.5044 C   0  0  0  0  0  0  0  0  0  0  0  0
   -4.8582   -1.1665   -2.8321 C   0  0  0  0  0  0  0  0  0  0  0  0
   -6.0513   -1.1372   -3.5713 C   0  0  0  0  0  0  0  0  0  0  0  0
   -6.7377    0.1004   -3.9456 C   0  0  0  0  0  0  0  0  0  0  0  0
   -8.1281    0.1759   -3.9010 C   0  0  0  0  0  0  0  0  0  0  0  0
   -8.7572    1.3514   -4.2553 C   0  0  0  0  0  0  0  0  0  0  0  0
   -8.0739    2.4905   -4.6705 C   0  0  0  0  0  0  0  0  0  0  0  0
   -8.7919    3.7395   -5.0874 C   0  0  0  0  0  0  0  0  0  0  0  0
   -9.2436    3.6362   -6.5461 C   0  0  0  0  0  0  0  0  0  0  0  0
   -6.6904    2.3685   -4.7184 C   0  0  0  0  0  0  0  0  0  0  0  0
   -6.0176    1.2160   -4.3658 C   0  0  0  0  0  0  0  0  0  0  0  0
   -5.9612    3.4307   -5.1239 F   0  0  0  0  0  0  0  0  0  0  0  0
  -10.1015    1.4051   -4.1838 F   0  0  0  0  0  0  0  0  0  0  0  0
   -6.5246   -2.3913   -3.9375 C   0  0  0  0  0  0  0  0  0  0  0  0
   -7.6207   -2.6430   -4.6788 O   0  0  0  0  0  0  0  0  0  0  0  0
   -4.0656   -0.1548   -2.2314 C   0  0  0  0  0  0  0  0  0  0  0  0
   -3.0434   -0.7904   -1.5804 C   0  0  0  0  0  0  0  0  0  0  0  0
   -3.1136   -2.1401   -1.7382 O   0  0  0  0  0  0  0  0  0  0  0  0
   -2.0041   -0.1944   -0.7909 C   0  0  0  0  0  0  0  0  0  0  0  0
   -1.5185   -0.5716    0.4473 C   0  0  0  0  0  0  0  0  0  0  0  0
   -1.9274   -1.6645    1.1956 N   0  0  0  0  0  0  0  0  0  0  0  0
   -1.7926   -2.9722    0.7061 C   0  0  0  0  0  0  0  0  0  0  0  0
   -0.8037   -3.2983   -0.2146 C   0  0  0  0  0  0  0  0  0  0  0  0
   -0.5458   -4.6181   -0.5242 C   0  0  0  0  0  0  0  0  0  0  0  0
   -1.2750   -5.6281    0.0873 C   0  0  0  0  0  0  0  0  0  0  0  0
   -0.8879   -7.3402   -0.0829 S   0  0  0  0  0  0  0  0  0  0  0  0
    0.8532   -7.3007   -0.6017 C   0  0  0  0  0  0  0  0  0  0  0  0
   -2.3478   -5.2987    0.9112 C   0  0  0  0  0  0  0  0  0  0  0  0
   -2.6072   -3.9821    1.2162 C   0  0  0  0  0  0  0  0  0  0  0  0
   -2.0062   -1.4598    2.5848 C   0  0  0  0  0  0  0  0  0  0  0  0
   -1.4673   -2.3693    3.4953 C   0  0  0  0  0  0  0  0  0  0  0  0
   -1.4942   -2.0956    4.8439 C   0  0  0  0  0  0  0  0  0  0  0  0
   -2.0470   -0.9079    5.3192 C   0  0  0  0  0  0  0  0  0  0  0  0
   -1.9787   -0.6370    7.0618 S   0  0  0  0  0  0  0  0  0  0  0  0
   -2.2705    1.1472    7.2213 C   0  0  0  0  0  0  0  0  0  0  0  0
   -2.6194   -0.0184    4.4204 C   0  0  0  0  0  0  0  0  0  0  0  0
   -2.6020   -0.2969    3.0681 C   0  0  0  0  0  0  0  0  0  0  0  0
   -0.5661    0.3693    0.9177 C   0  0  0  0  0  0  0  0  0  0  0  0
    0.3778    0.4705    2.3581 S   0  0  0  0  0  0  0  0  0  0  0  0
    1.1897    1.8877    1.7289 C   0  0  0  0  0  0  0  0  0  0  0  0
    0.6895    2.3041    0.5136 C   0  0  0  0  0  0  0  0  0  0  0  0
    1.1175    3.4558   -0.1505 N   0  0  0  0  0  0  0  0  0  0  0  0
    1.2293    4.6378    0.5921 C   0  0  0  0  0  0  0  0  0  0  0  0
    2.2851    5.5296    0.4093 C   0  0  0  0  0  0  0  0  0  0  0  0
    2.4111    6.6531    1.2024 C   0  0  0  0  0  0  0  0  0  0  0  0
    1.4707    6.9235    2.1860 C   0  0  0  0  0  0  0  0  0  0  0  0
    1.5806    8.3122    3.2768 S   0  0  0  0  0  0  0  0  0  0  0  0
    2.5585    9.5125    2.3277 C   0  0  0  0  0  0  0  0  0  0  0  0
    0.3939    6.0580    2.3529 C   0  0  0  0  0  0  0  0  0  0  0  0
    0.2738    4.9325    1.5676 C   0  0  0  0  0  0  0  0  0  0  0  0
    1.6018    3.3485   -1.4579 C   0  0  0  0  0  0  0  0  0  0  0  0
    1.5830    4.4423   -2.3246 C   0  0  0  0  0  0  0  0  0  0  0  0
    2.1247    4.3364   -3.5854 C   0  0  0  0  0  0  0  0  0  0  0  0
    2.6818    3.1359   -4.0240 C   0  0  0  0  0  0  0  0  0  0  0  0
    3.3838    3.1387   -5.6453 S   0  0  0  0  0  0  0  0  0  0  0  0
    4.1053    1.4837   -5.8177 C   0  0  0  0  0  0  0  0  0  0  0  0
    2.6523    2.0305   -3.1875 C   0  0  0  0  0  0  0  0  0  0  0  0
    2.1176    2.1413   -1.9194 C   0  0  0  0  0  0  0  0  0  0  0  0
   -0.3120    1.4150    0.0478 C   0  0  0  0  0  0  0  0  0  0  0  0
   -1.2758    1.2935   -1.3811 S   0  0  0  0  0  0  0  0  0  0  0  0
    2.3208    2.4849    2.4013 C   0  0  0  0  0  0  0  0  0  0  0  0
    3.6377    2.2581    2.0569 C   0  0  0  0  0  0  0  0  0  0  0  0
    4.0309    1.2708    1.1518 N   0  0  0  0  0  0  0  0  0  0  0  0
    3.5268   -0.0209    1.3763 C   0  0  0  0  0  0  0  0  0  0  0  0
    3.4375   -0.4990    2.6822 C   0  0  0  0  0  0  0  0  0  0  0  0
    2.8824   -1.7341    2.9532 C   0  0  0  0  0  0  0  0  0  0  0  0
    2.4128   -2.5265    1.9154 C   0  0  0  0  0  0  0  0  0  0  0  0
    1.6593   -4.1080    2.1344 S   0  0  0  0  0  0  0  0  0  0  0  0
    1.7571   -4.3947    3.9233 C   0  0  0  0  0  0  0  0  0  0  0  0
    2.5311   -2.0699    0.6050 C   0  0  0  0  0  0  0  0  0  0  0  0
    3.0754   -0.8336    0.3362 C   0  0  0  0  0  0  0  0  0  0  0  0
    4.7887    1.6048    0.0321 C   0  0  0  0  0  0  0  0  0  0  0  0
    5.5344    0.6443   -0.6541 C   0  0  0  0  0  0  0  0  0  0  0  0
    6.2113    0.9841   -1.8033 C   0  0  0  0  0  0  0  0  0  0  0  0
    6.1823    2.2899   -2.2896 C   0  0  0  0  0  0  0  0  0  0  0  0
    7.0524    2.5911   -3.7990 S   0  0  0  0  0  0  0  0  0  0  0  0
    6.6340    4.3070   -4.2127 C   0  0  0  0  0  0  0  0  0  0  0  0
    5.4969    3.2617   -1.5773 C   0  0  0  0  0  0  0  0  0  0  0  0
    4.8092    2.9179   -0.4308 C   0  0  0  0  0  0  0  0  0  0  0  0
    4.5032    3.1020    2.7903 C   0  0  0  0  0  0  0  0  0  0  0  0
    6.2043    3.3764    2.8044 S   0  0  0  0  0  0  0  0  0  0  0  0
    6.0229    4.6013    4.0665 C   0  0  0  0  0  0  0  0  0  0  0  0
    4.6787    4.8217    4.3888 C   0  0  0  0  0  0  0  0  0  0  0  0
    4.1942    5.7403    5.2841 N   0  0  0  0  0  0  0  0  0  0  0  0
    4.6987    7.0433    5.3277 C   0  0  0  0  0  0  0  0  0  0  0  0
    5.1625    7.6608    4.1638 C   0  0  0  0  0  0  0  0  0  0  0  0
    5.6577    8.9438    4.2078 C   0  0  0  0  0  0  0  0  0  0  0  0
    5.6912    9.6487    5.4101 C   0  0  0  0  0  0  0  0  0  0  0  0
    6.3204   11.2929    5.3383 S   0  0  0  0  0  0  0  0  0  0  0  0
    6.5491   11.7444    7.0810 C   0  0  0  0  0  0  0  0  0  0  0  0
    5.2213    9.0417    6.5679 C   0  0  0  0  0  0  0  0  0  0  0  0
    4.7360    7.7499    6.5265 C   0  0  0  0  0  0  0  0  0  0  0  0
    3.0890    5.3754    6.0762 C   0  0  0  0  0  0  0  0  0  0  0  0
    3.0450    4.1063    6.6558 C   0  0  0  0  0  0  0  0  0  0  0  0
    1.9545    3.7333    7.4087 C   0  0  0  0  0  0  0  0  0  0  0  0
    0.8951    4.6178    7.6057 C   0  0  0  0  0  0  0  0  0  0  0  0
   -0.4517    4.0231    8.5800 S   0  0  0  0  0  0  0  0  0  0  0  0
   -1.5201    5.4755    8.7921 C   0  0  0  0  0  0  0  0  0  0  0  0
    0.9441    5.8839    7.0380 C   0  0  0  0  0  0  0  0  0  0  0  0
    2.0345    6.2589    6.2773 C   0  0  0  0  0  0  0  0  0  0  0  0
    3.8428    3.9152    3.6959 C   0  0  0  0  0  0  0  0  0  0  0  0
    2.1414    3.6347    3.7055 S   0  0  0  0  0  0  0  0  0  0  0  0
    7.1566    5.2055    4.6460 C   0  0  0  0  0  0  0  0  0  0  0  0
    8.4031    4.6682    4.7852 C   0  0  0  0  0  0  0  0  0  0  0  0
    9.5733    5.5486    5.0196 C   0  0  0  0  0  0  0  0  0  0  0  0
    9.5493    6.7234    5.3181 O   0  0  0  0  0  0  0  0  0  0  0  0
   10.7557    4.7003    4.7656 C   0  0  0  0  0  0  0  0  0  0  0  0
   12.0918    5.0949    4.7434 C   0  0  0  0  0  0  0  0  0  0  0  0
   12.9718    4.0796    4.4531 C   0  0  0  0  0  0  0  0  0  0  0  0
   12.5581    2.7651    4.1991 C   0  0  0  0  0  0  0  0  0  0  0  0
   11.2455    2.3574    4.2278 C   0  0  0  0  0  0  0  0  0  0  0  0
   10.3359    3.3748    4.5251 C   0  0  0  0  0  0  0  0  0  0  0  0
    8.8854    3.3120    4.6866 C   0  0  0  0  0  0  0  0  0  0  0  0
    8.1680    2.1770    4.9767 C   0  0  0  0  0  0  0  0  0  0  0  0
    8.6962    0.8724    4.9488 C   0  0  0  0  0  0  0  0  0  0  0  0
    9.0618   -0.2163    4.9282 N   0  0  0  0  0  0  0  0  0  0  0  0
    6.8405    2.2000    5.4448 C   0  0  0  0  0  0  0  0  0  0  0  0
    5.7794    2.1755    5.8864 N   0  0  0  0  0  0  0  0  0  0  0  0
   13.9667    2.2814    3.9617 C   0  0  0  0  0  0  0  0  0  0  0  0
   14.3861    2.0721    2.4913 C   0  0  0  0  0  0  0  0  0  0  0  0
   15.8967    2.0731    2.5429 C   0  0  0  0  0  0  0  0  0  0  0  0
   16.2912    3.3162    2.7875 C   0  0  0  0  0  0  0  0  0  0  0  0
   15.0536    4.1764    2.9045 C   0  0  0  0  0  0  0  0  0  0  0  0
   14.1416    3.4651    1.8967 C   0  0  0  0  0  0  0  0  0  0  0  0
   14.4294    3.7458    4.2488 C   0  0  0  0  0  0  0  0  0  0  0  0
   -9.4815   -3.6603   -5.8543 H   0  0  0  0  0  0  0  0  0  0  0  0
   -7.2083   -9.2869   -7.4453 H   0  0  0  0  0  0  0  0  0  0  0  0
  -11.7097   -7.5367   -8.9719 H   0  0  0  0  0  0  0  0  0  0  0  0
  -10.5922  -10.0020  -11.0838 H   0  0  0  0  0  0  0  0  0  0  0  0
  -12.4370  -11.2942  -10.0226 H   0  0  0  0  0  0  0  0  0  0  0  0
  -12.2203  -10.9214   -7.4441 H   0  0  0  0  0  0  0  0  0  0  0  0
   -9.8684  -11.8761   -6.6601 H   0  0  0  0  0  0  0  0  0  0  0  0
   -8.6361  -12.8389   -8.7568 H   0  0  0  0  0  0  0  0  0  0  0  0
  -11.0891  -13.5119   -9.4928 H   0  0  0  0  0  0  0  0  0  0  0  0
  -10.3008  -12.6984  -10.8678 H   0  0  0  0  0  0  0  0  0  0  0  0
   -8.3066  -10.9320  -10.3239 H   0  0  0  0  0  0  0  0  0  0  0  0
   -6.3677   -5.6622   -4.3423 H   0  0  0  0  0  0  0  0  0  0  0  0
   -5.5791   -6.0495   -2.0720 H   0  0  0  0  0  0  0  0  0  0  0  0
   -2.1409   -9.3336   -2.1470 H   0  0  0  0  0  0  0  0  0  0  0  0
   -0.7919   -8.5742   -3.0079 H   0  0  0  0  0  0  0  0  0  0  0  0
   -3.4041   -9.5187   -4.2909 H   0  0  0  0  0  0  0  0  0  0  0  0
   -1.8450  -10.3409   -4.4000 H   0  0  0  0  0  0  0  0  0  0  0  0
   -2.0638   -8.7569   -5.1522 H   0  0  0  0  0  0  0  0  0  0  0  0
   -2.0146   -4.0490   -3.3780 H   0  0  0  0  0  0  0  0  0  0  0  0
   -8.7222   -0.6656   -3.5851 H   0  0  0  0  0  0  0  0  0  0  0  0
   -9.6664    3.8819   -4.4498 H   0  0  0  0  0  0  0  0  0  0  0  0
   -8.1276    4.5970   -4.9706 H   0  0  0  0  0  0  0  0  0  0  0  0
   -9.9191    2.7937   -6.6744 H   0  0  0  0  0  0  0  0  0  0  0  0
   -8.3855    3.4980   -7.2003 H   0  0  0  0  0  0  0  0  0  0  0  0
   -9.7625    4.5447   -6.8408 H   0  0  0  0  0  0  0  0  0  0  0  0
   -4.9436    1.1860   -4.4510 H   0  0  0  0  0  0  0  0  0  0  0  0
   -4.2417    0.9007   -2.2315 H   0  0  0  0  0  0  0  0  0  0  0  0
   -0.2060   -2.5147   -0.6554 H   0  0  0  0  0  0  0  0  0  0  0  0
    0.2495   -4.8495   -1.2137 H   0  0  0  0  0  0  0  0  0  0  0  0
    0.9336   -7.0065   -1.6437 H   0  0  0  0  0  0  0  0  0  0  0  0
    1.2228   -8.3136   -0.4761 H   0  0  0  0  0  0  0  0  0  0  0  0
    1.3986   -6.6182    0.0434 H   0  0  0  0  0  0  0  0  0  0  0  0
   -2.9485   -6.0885    1.3353 H   0  0  0  0  0  0  0  0  0  0  0  0
   -3.4114   -3.7271    1.8900 H   0  0  0  0  0  0  0  0  0  0  0  0
   -1.0118   -3.2781    3.1341 H   0  0  0  0  0  0  0  0  0  0  0  0
   -1.0709   -2.7921    5.5520 H   0  0  0  0  0  0  0  0  0  0  0  0
   -3.3151    1.3783    7.0332 H   0  0  0  0  0  0  0  0  0  0  0  0
   -1.6158    1.6834    6.5413 H   0  0  0  0  0  0  0  0  0  0  0  0
   -2.0164    1.3994    8.2460 H   0  0  0  0  0  0  0  0  0  0  0  0
   -3.0840    0.8931    4.7606 H   0  0  0  0  0  0  0  0  0  0  0  0
   -3.0477    0.4006    2.3732 H   0  0  0  0  0  0  0  0  0  0  0  0
    3.0221    5.3419   -0.3564 H   0  0  0  0  0  0  0  0  0  0  0  0
    3.2549    7.3080    1.0491 H   0  0  0  0  0  0  0  0  0  0  0  0
    2.4392   10.4622    2.8395 H   0  0  0  0  0  0  0  0  0  0  0  0
    3.6069    9.2312    2.3280 H   0  0  0  0  0  0  0  0  0  0  0  0
    2.1638    9.5793    1.3187 H   0  0  0  0  0  0  0  0  0  0  0  0
   -0.3432    6.2753    3.1099 H   0  0  0  0  0  0  0  0  0  0  0  0
   -0.5626    4.2649    1.7102 H   0  0  0  0  0  0  0  0  0  0  0  0
    1.1428    5.3743   -2.0042 H   0  0  0  0  0  0  0  0  0  0  0  0
    2.1201    5.1856   -4.2521 H   0  0  0  0  0  0  0  0  0  0  0  0
    4.5881    1.4786   -6.7900 H   0  0  0  0  0  0  0  0  0  0  0  0
    3.3219    0.7319   -5.7912 H   0  0  0  0  0  0  0  0  0  0  0  0
    4.8455    1.3194   -5.0401 H   0  0  0  0  0  0  0  0  0  0  0  0
    3.0568    1.0817   -3.5006 H   0  0  0  0  0  0  0  0  0  0  0  0
    2.1108    1.2812   -1.2692 H   0  0  0  0  0  0  0  0  0  0  0  0
    3.8013    0.1074    3.4985 H   0  0  0  0  0  0  0  0  0  0  0  0
    2.8251   -2.0607    3.9782 H   0  0  0  0  0  0  0  0  0  0  0  0
    1.2880   -5.3598    4.0898 H   0  0  0  0  0  0  0  0  0  0  0  0
    2.7967   -4.4299    4.2357 H   0  0  0  0  0  0  0  0  0  0  0  0
    1.2097   -3.6201    4.4525 H   0  0  0  0  0  0  0  0  0  0  0  0
    2.1851   -2.6979   -0.2014 H   0  0  0  0  0  0  0  0  0  0  0  0
    3.1524   -0.4972   -0.6865 H   0  0  0  0  0  0  0  0  0  0  0  0
    5.5813   -0.3678   -0.2825 H   0  0  0  0  0  0  0  0  0  0  0  0
    6.7771    0.2375   -2.3401 H   0  0  0  0  0  0  0  0  0  0  0  0
    5.5560    4.4171   -4.2858 H   0  0  0  0  0  0  0  0  0  0  0  0
    7.0563    4.9822   -3.4739 H   0  0  0  0  0  0  0  0  0  0  0  0
    7.0879    4.4906   -5.1815 H   0  0  0  0  0  0  0  0  0  0  0  0
    5.4757    4.2871   -1.9100 H   0  0  0  0  0  0  0  0  0  0  0  0
    4.2683    3.6761    0.1126 H   0  0  0  0  0  0  0  0  0  0  0  0
    5.1320    7.1204    3.2286 H   0  0  0  0  0  0  0  0  0  0  0  0
    6.0293    9.4208    3.3133 H   0  0  0  0  0  0  0  0  0  0  0  0
    7.0664   12.6988    7.0706 H   0  0  0  0  0  0  0  0  0  0  0  0
    7.1631   10.9956    7.5723 H   0  0  0  0  0  0  0  0  0  0  0  0
    5.5865   11.8546    7.5724 H   0  0  0  0  0  0  0  0  0  0  0  0
    5.2339    9.5618    7.5118 H   0  0  0  0  0  0  0  0  0  0  0  0
    4.3848    7.2786    7.4321 H   0  0  0  0  0  0  0  0  0  0  0  0
    3.8692    3.4226    6.5174 H   0  0  0  0  0  0  0  0  0  0  0  0
    1.9137    2.7539    7.8597 H   0  0  0  0  0  0  0  0  0  0  0  0
   -2.3168    5.1573    9.4575 H   0  0  0  0  0  0  0  0  0  0  0  0
   -1.9376    5.7775    7.8360 H   0  0  0  0  0  0  0  0  0  0  0  0
   -0.9570    6.2829    9.2506 H   0  0  0  0  0  0  0  0  0  0  0  0
    0.1376    6.5871    7.1664 H   0  0  0  0  0  0  0  0  0  0  0  0
    2.0568    7.2366    5.8210 H   0  0  0  0  0  0  0  0  0  0  0  0
    7.0542    6.2303    4.9891 H   0  0  0  0  0  0  0  0  0  0  0  0
   12.3717    6.1167    4.9467 H   0  0  0  0  0  0  0  0  0  0  0  0
   10.9348    1.3447    4.0295 H   0  0  0  0  0  0  0  0  0  0  0  0
   14.3122    1.4866    4.6201 H   0  0  0  0  0  0  0  0  0  0  0  0
   13.9132    1.2267    1.9990 H   0  0  0  0  0  0  0  0  0  0  0  0
   16.5006    1.1890    2.4553 H   0  0  0  0  0  0  0  0  0  0  0  0
   17.2904    3.6777    2.9450 H   0  0  0  0  0  0  0  0  0  0  0  0
   15.1901    5.2482    2.7878 H   0  0  0  0  0  0  0  0  0  0  0  0
   14.5123    3.5477    0.8762 H   0  0  0  0  0  0  0  0  0  0  0  0
   13.1026    3.7872    1.9337 H   0  0  0  0  0  0  0  0  0  0  0  0
   15.0830    3.9273    5.1000 H   0  0  0  0  0  0  0  0  0  0  0  0
  1  2  2  0  0  0  0
  2  3  1  0  0  0  0
  3  4  2  0  0  0  0
  3  5  1  0  0  0  0
  5  6  2  0  0  0  0
  6  7  1  0  0  0  0
  7  8  2  0  0  0  0
  8  9  1  0  0  0  0
  9 10  2  0  0  0  0
 10 11  1  0  0  0  0
 11 12  2  0  0  0  0
 12 13  1  0  0  0  0
 13 14  3  0  0  0  0
 12 15  1  0  0  0  0
 15 16  3  0  0  0  0
  8 17  1  0  0  0  0
 17 18  1  0  0  0  0
 18 19  1  0  0  0  0
 19 20  2  0  0  0  0
 20 21  1  0  0  0  0
 21 22  1  0  0  0  0
 21 23  1  0  0  0  0
  1 24  1  0  0  0  0
 24 25  2  0  0  0  0
 25 26  1  0  0  0  0
 26 27  2  0  0  0  0
 27 28  1  0  0  0  0
 28 29  2  0  0  0  0
 29 30  1  0  0  0  0
 30 31  1  0  0  0  0
 30 32  2  0  0  0  0
 32 33  1  0  0  0  0
 33 34  1  0  0  0  0
 32 35  1  0  0  0  0
 35 36  1  0  0  0  0
 35 37  2  0  0  0  0
 27 38  1  0  0  0  0
 38 39  2  0  0  0  0
 39 40  1  0  0  0  0
 40 41  1  0  0  0  0
 41 42  2  0  0  0  0
 42 43  1  0  0  0  0
 43 44  2  0  0  0  0
 44 45  1  0  0  0  0
 45 46  1  0  0  0  0
 44 47  1  0  0  0  0
 47 48  2  0  0  0  0
 47 49  1  0  0  0  0
 43 50  1  0  0  0  0
 40 51  2  0  0  0  0
 51 52  1  0  0  0  0
 39 53  1  0  0  0  0
 53 54  2  0  0  0  0
 54 55  1  0  0  0  0
 54 56  1  0  0  0  0
 56 57  2  0  0  0  0
 57 58  1  0  0  0  0
 58 59  1  0  0  0  0
 59 60  2  0  0  0  0
 60 61  1  0  0  0  0
 61 62  2  0  0  0  0
 62 63  1  0  0  0  0
 63 64  1  0  0  0  0
 62 65  1  0  0  0  0
 65 66  2  0  0  0  0
 58 67  1  0  0  0  0
 67 68  2  0  0  0  0
 68 69  1  0  0  0  0
 69 70  2  0  0  0  0
 70 71  1  0  0  0  0
 71 72  1  0  0  0  0
 70 73  1  0  0  0  0
 73 74  2  0  0  0  0
 57 75  1  0  0  0  0
 75 76  1  0  0  0  0
 76 77  1  0  0  0  0
 77 78  2  0  0  0  0
 78 79  1  0  0  0  0
 79 80  1  0  0  0  0
 80 81  2  0  0  0  0
 81 82  1  0  0  0  0
 82 83  2  0  0  0  0
 83 84  1  0  0  0  0
 84 85  1  0  0  0  0
 83 86  1  0  0  0  0
 86 87  2  0  0  0  0
 79 88  1  0  0  0  0
 88 89  2  0  0  0  0
 89 90  1  0  0  0  0
 90 91  2  0  0  0  0
 91 92  1  0  0  0  0
 92 93  1  0  0  0  0
 91 94  1  0  0  0  0
 94 95  2  0  0  0  0
 78 96  1  0  0  0  0
 96 97  1  0  0  0  0
 77 98  1  0  0  0  0
 98 99  2  0  0  0  0
 99100  1  0  0  0  0
100101  1  0  0  0  0
101102  2  0  0  0  0
102103  1  0  0  0  0
103104  2  0  0  0  0
104105  1  0  0  0  0
105106  1  0  0  0  0
104107  1  0  0  0  0
107108  2  0  0  0  0
100109  1  0  0  0  0
109110  2  0  0  0  0
110111  1  0  0  0  0
111112  2  0  0  0  0
112113  1  0  0  0  0
113114  1  0  0  0  0
112115  1  0  0  0  0
115116  2  0  0  0  0
 99117  1  0  0  0  0
117118  1  0  0  0  0
118119  1  0  0  0  0
119120  2  0  0  0  0
120121  1  0  0  0  0
121122  1  0  0  0  0
122123  2  0  0  0  0
123124  1  0  0  0  0
124125  2  0  0  0  0
125126  1  0  0  0  0
126127  1  0  0  0  0
125128  1  0  0  0  0
128129  2  0  0  0  0
121130  1  0  0  0  0
130131  2  0  0  0  0
131132  1  0  0  0  0
132133  2  0  0  0  0
133134  1  0  0  0  0
134135  1  0  0  0  0
133136  1  0  0  0  0
136137  2  0  0  0  0
120138  1  0  0  0  0
138139  1  0  0  0  0
119140  1  0  0  0  0
140141  2  0  0  0  0
141142  1  0  0  0  0
142143  2  0  0  0  0
142144  1  0  0  0  0
144145  2  0  0  0  0
145146  1  0  0  0  0
146147  2  0  0  0  0
147148  1  0  0  0  0
148149  2  0  0  0  0
149150  1  0  0  0  0
150151  2  0  0  0  0
151152  1  0  0  0  0
152153  3  0  0  0  0
151154  1  0  0  0  0
154155  3  0  0  0  0
147156  1  0  0  0  0
156157  1  0  0  0  0
157158  1  0  0  0  0
158159  2  0  0  0  0
159160  1  0  0  0  0
160161  1  0  0  0  0
160162  1  0  0  0  0
 11  2  1  0  0  0  0
 23 17  1  0  0  0  0
 52 24  1  0  0  0  0
 97 56  1  0  0  0  0
139 98  1  0  0  0  0
150141  1  0  0  0  0
162156  1  0  0  0  0
 10  5  1  0  0  0  0
 22 18  1  0  0  0  0
 51 26  1  0  0  0  0
 66 59  1  0  0  0  0
 74 67  1  0  0  0  0
 96 75  2  0  0  0  0
108101  1  0  0  0  0
116109  1  0  0  0  0
138117  2  0  0  0  0
149144  1  0  0  0  0
161157  1  0  0  0  0
 23  7  1  0  0  0  0
 37 28  1  0  0  0  0
 55 38  1  0  0  0  0
 87 80  1  0  0  0  0
 95 88  1  0  0  0  0
129122  1  0  0  0  0
137130  1  0  0  0  0
162146  1  0  0  0  0
 48 41  1  0  0  0  0
  1163  1  0  0  0  0
  6164  1  0  0  0  0
  9165  1  0  0  0  0
 17166  1  0  0  0  0
 18167  1  0  0  0  0
 19168  1  0  0  0  0
 20169  1  0  0  0  0
 21170  1  0  0  0  0
 22171  1  0  0  0  0
 22172  1  0  0  0  0
 23173  1  0  0  0  0
 25174  1  0  0  0  0
 29175  1  0  0  0  0
 33176  1  0  0  0  0
 33177  1  0  0  0  0
 34178  1  0  0  0  0
 34179  1  0  0  0  0
 34180  1  0  0  0  0
 37181  1  0  0  0  0
 42182  1  0  0  0  0
 45183  1  0  0  0  0
 45184  1  0  0  0  0
 46185  1  0  0  0  0
 46186  1  0  0  0  0
 46187  1  0  0  0  0
 48188  1  0  0  0  0
 53189  1  0  0  0  0
 60190  1  0  0  0  0
 61191  1  0  0  0  0
 64192  1  0  0  0  0
 64193  1  0  0  0  0
 64194  1  0  0  0  0
 65195  1  0  0  0  0
 66196  1  0  0  0  0
 68197  1  0  0  0  0
 69198  1  0  0  0  0
 72199  1  0  0  0  0
 72200  1  0  0  0  0
 72201  1  0  0  0  0
 73202  1  0  0  0  0
 74203  1  0  0  0  0
 81204  1  0  0  0  0
 82205  1  0  0  0  0
 85206  1  0  0  0  0
 85207  1  0  0  0  0
 85208  1  0  0  0  0
 86209  1  0  0  0  0
 87210  1  0  0  0  0
 89211  1  0  0  0  0
 90212  1  0  0  0  0
 93213  1  0  0  0  0
 93214  1  0  0  0  0
 93215  1  0  0  0  0
 94216  1  0  0  0  0
 95217  1  0  0  0  0
102218  1  0  0  0  0
103219  1  0  0  0  0
106220  1  0  0  0  0
106221  1  0  0  0  0
106222  1  0  0  0  0
107223  1  0  0  0  0
108224  1  0  0  0  0
110225  1  0  0  0  0
111226  1  0  0  0  0
114227  1  0  0  0  0
114228  1  0  0  0  0
114229  1  0  0  0  0
115230  1  0  0  0  0
116231  1  0  0  0  0
123232  1  0  0  0  0
124233  1  0  0  0  0
127234  1  0  0  0  0
127235  1  0  0  0  0
127236  1  0  0  0  0
128237  1  0  0  0  0
129238  1  0  0  0  0
131239  1  0  0  0  0
132240  1  0  0  0  0
135241  1  0  0  0  0
135242  1  0  0  0  0
135243  1  0  0  0  0
136244  1  0  0  0  0
137245  1  0  0  0  0
140246  1  0  0  0  0
145247  1  0  0  0  0
148248  1  0  0  0  0
156249  1  0  0  0  0
157250  1  0  0  0  0
158251  1  0  0  0  0
159252  1  0  0  0  0
160253  1  0  0  0  0
161254  1  0  0  0  0
161255  1  0  0  0  0
162256  1  0  0  0  0
M  END
