
  xtb     02092214583D
 energy: -382.012595808837 gnorm: 0.000407800585 xtb: 6.4.1 (unknown)
211232  0     0  0            999 V2000
   -4.2032    6.1535    3.7373 C   0  0  0  0  0  0  0  0  0  0  0  0
   -5.5415    5.9644    3.9551 C   0  0  0  0  0  0  0  0  0  0  0  0
   -6.1423    6.2798    5.2724 C   0  0  0  0  0  0  0  0  0  0  0  0
   -5.6952    7.0138    6.1268 O   0  0  0  0  0  0  0  0  0  0  0  0
   -7.3603    5.4402    5.3460 C   0  0  0  0  0  0  0  0  0  0  0  0
   -8.1859    5.2361    6.4493 C   0  0  0  0  0  0  0  0  0  0  0  0
   -9.2081    4.3423    6.2283 C   0  0  0  0  0  0  0  0  0  0  0  0
   -9.4099    3.7073    4.9962 C   0  0  0  0  0  0  0  0  0  0  0  0
   -8.6183    3.9136    3.8925 C   0  0  0  0  0  0  0  0  0  0  0  0
   -7.5629    4.8014    4.1044 C   0  0  0  0  0  0  0  0  0  0  0  0
   -6.5234    5.2457    3.1840 C   0  0  0  0  0  0  0  0  0  0  0  0
   -6.5876    5.2047    1.8102 C   0  0  0  0  0  0  0  0  0  0  0  0
   -5.7024    5.9524    1.0086 C   0  0  0  0  0  0  0  0  0  0  0  0
   -5.0250    6.6058    0.3498 N   0  0  0  0  0  0  0  0  0  0  0  0
   -7.5343    4.4674    1.0837 C   0  0  0  0  0  0  0  0  0  0  0  0
   -8.2591    3.8424    0.4461 N   0  0  0  0  0  0  0  0  0  0  0  0
  -10.5921    2.9206    5.5003 C   0  0  0  0  0  0  0  0  0  0  0  0
  -10.3304    1.4361    5.8329 C   0  0  0  0  0  0  0  0  0  0  0  0
  -11.4874    1.0589    6.7287 C   0  0  0  0  0  0  0  0  0  0  0  0
  -11.3056    1.6613    7.8971 C   0  0  0  0  0  0  0  0  0  0  0  0
  -10.0208    2.4536    7.8113 C   0  0  0  0  0  0  0  0  0  0  0  0
   -9.2125    1.5439    6.8773 C   0  0  0  0  0  0  0  0  0  0  0  0
  -10.3717    3.6296    6.8752 C   0  0  0  0  0  0  0  0  0  0  0  0
   -3.3760    5.4051    2.8838 C   0  0  0  0  0  0  0  0  0  0  0  0
   -1.9871    5.5492    2.7178 C   0  0  0  0  0  0  0  0  0  0  0  0
   -1.2609    6.6304    3.1375 N   0  0  0  0  0  0  0  0  0  0  0  0
   -1.7972    7.9319    3.1153 C   0  0  0  0  0  0  0  0  0  0  0  0
   -2.6625    8.3264    2.0993 C   0  0  0  0  0  0  0  0  0  0  0  0
   -3.1905    9.6014    2.0853 C   0  0  0  0  0  0  0  0  0  0  0  0
   -2.8525   10.5081    3.0822 C   0  0  0  0  0  0  0  0  0  0  0  0
   -3.4607   12.1609    3.1630 S   0  0  0  0  0  0  0  0  0  0  0  0
   -4.7044   12.2318    1.8428 C   0  0  0  0  0  0  0  0  0  0  0  0
   -1.9708   10.1199    4.0896 C   0  0  0  0  0  0  0  0  0  0  0  0
   -1.4493    8.8456    4.1093 C   0  0  0  0  0  0  0  0  0  0  0  0
    0.0775    6.4368    3.5174 C   0  0  0  0  0  0  0  0  0  0  0  0
    1.0739    7.3281    3.1215 C   0  0  0  0  0  0  0  0  0  0  0  0
    2.3821    7.1053    3.4863 C   0  0  0  0  0  0  0  0  0  0  0  0
    2.7264    5.9907    4.2506 C   0  0  0  0  0  0  0  0  0  0  0  0
    4.4351    5.7992    4.6404 S   0  0  0  0  0  0  0  0  0  0  0  0
    4.5199    4.1589    5.4156 C   0  0  0  0  0  0  0  0  0  0  0  0
    1.7332    5.1144    4.6663 C   0  0  0  0  0  0  0  0  0  0  0  0
    0.4205    5.3403    4.3036 C   0  0  0  0  0  0  0  0  0  0  0  0
   -1.4326    4.4272    2.0549 C   0  0  0  0  0  0  0  0  0  0  0  0
    0.1598    3.9596    1.5374 S   0  0  0  0  0  0  0  0  0  0  0  0
   -0.4706    2.4743    0.8822 C   0  0  0  0  0  0  0  0  0  0  0  0
   -1.8413    2.3712    0.9930 C   0  0  0  0  0  0  0  0  0  0  0  0
   -2.5794    1.3484    0.4236 N   0  0  0  0  0  0  0  0  0  0  0  0
   -3.8400    1.0494    0.9517 C   0  0  0  0  0  0  0  0  0  0  0  0
   -4.0060    0.9547    2.3344 C   0  0  0  0  0  0  0  0  0  0  0  0
   -5.2630    0.7874    2.8720 C   0  0  0  0  0  0  0  0  0  0  0  0
   -6.3779    0.6996    2.0417 C   0  0  0  0  0  0  0  0  0  0  0  0
   -7.9480    0.5546    2.8355 S   0  0  0  0  0  0  0  0  0  0  0  0
   -9.1398    0.8023    1.4867 C   0  0  0  0  0  0  0  0  0  0  0  0
   -6.2084    0.7229    0.6638 C   0  0  0  0  0  0  0  0  0  0  0  0
   -4.9491    0.8972    0.1244 C   0  0  0  0  0  0  0  0  0  0  0  0
   -2.2170    0.9253   -0.8714 C   0  0  0  0  0  0  0  0  0  0  0  0
   -2.1054   -0.4298   -1.1667 C   0  0  0  0  0  0  0  0  0  0  0  0
   -1.6936   -0.8371   -2.4212 C   0  0  0  0  0  0  0  0  0  0  0  0
   -1.3983    0.1052   -3.3978 C   0  0  0  0  0  0  0  0  0  0  0  0
   -0.8765   -0.3388   -5.0337 S   0  0  0  0  0  0  0  0  0  0  0  0
    0.3057   -1.6802   -4.7108 C   0  0  0  0  0  0  0  0  0  0  0  0
   -1.5535    1.4585   -3.1192 C   0  0  0  0  0  0  0  0  0  0  0  0
   -1.9526    1.8660   -1.8650 C   0  0  0  0  0  0  0  0  0  0  0  0
   -2.3749    3.4800    1.6850 C   0  0  0  0  0  0  0  0  0  0  0  0
   -3.9714    3.9195    2.1415 S   0  0  0  0  0  0  0  0  0  0  0  0
    0.3490    1.3816    0.3697 C   0  0  0  0  0  0  0  0  0  0  0  0
    0.3715    0.1977    1.0852 C   0  0  0  0  0  0  0  0  0  0  0  0
   -0.3104    0.1655    2.2739 O   0  0  0  0  0  0  0  0  0  0  0  0
    0.4499   -0.0189    3.4621 C   0  0  0  0  0  0  0  0  0  0  0  0
    1.4344    1.1206    3.7062 C   0  0  0  0  0  0  0  0  0  0  0  0
    0.9827   -0.9901    0.5651 C   0  0  0  0  0  0  0  0  0  0  0  0
    0.9697   -2.0463    1.4154 O   0  0  0  0  0  0  0  0  0  0  0  0
    1.9211   -3.0915    1.3002 C   0  0  0  0  0  0  0  0  0  0  0  0
    2.2640   -3.5762    2.7028 C   0  0  0  0  0  0  0  0  0  0  0  0
    1.5018   -1.0086   -0.7183 C   0  0  0  0  0  0  0  0  0  0  0  0
    1.5353    0.2116   -1.4333 C   0  0  0  0  0  0  0  0  0  0  0  0
    0.9958    1.4187   -0.8804 C   0  0  0  0  0  0  0  0  0  0  0  0
    1.0895    2.4454   -1.7233 N   0  0  0  0  0  0  0  0  0  0  0  0
    1.7712    1.9324   -3.0829 S   0  0  0  0  0  0  0  0  0  0  0  0
    1.9679    0.3889   -2.6821 N   0  0  0  0  0  0  0  0  0  0  0  0
    1.8848   -2.2058   -1.4680 C   0  0  0  0  0  0  0  0  0  0  0  0
    3.1240   -2.2400   -2.1598 C   0  0  0  0  0  0  0  0  0  0  0  0
    4.0825   -1.3398   -1.8918 N   0  0  0  0  0  0  0  0  0  0  0  0
    5.1903   -1.3531   -2.5894 C   0  0  0  0  0  0  0  0  0  0  0  0
    6.2458   -0.4012   -2.2169 C   0  0  0  0  0  0  0  0  0  0  0  0
    5.9527    0.9299   -1.9341 C   0  0  0  0  0  0  0  0  0  0  0  0
    6.9412    1.8659   -1.6526 C   0  0  0  0  0  0  0  0  0  0  0  0
    8.2969    1.5210   -1.6347 C   0  0  0  0  0  0  0  0  0  0  0  0
    9.3574    2.2918   -1.3748 O   0  0  0  0  0  0  0  0  0  0  0  0
    9.2718    3.7149   -1.3501 C   0  0  0  0  0  0  0  0  0  0  0  0
    9.0628    4.3031   -2.7389 C   0  0  0  0  0  0  0  0  0  0  0  0
    8.5811    0.1650   -1.8836 C   0  0  0  0  0  0  0  0  0  0  0  0
    7.5938   -0.7605   -2.1589 C   0  0  0  0  0  0  0  0  0  0  0  0
    7.9545   -2.0401   -2.3475 F   0  0  0  0  0  0  0  0  0  0  0  0
    9.8620   -0.2289   -1.8508 F   0  0  0  0  0  0  0  0  0  0  0  0
    6.5347    3.1256   -1.3962 F   0  0  0  0  0  0  0  0  0  0  0  0
    4.6899    1.3604   -1.9511 F   0  0  0  0  0  0  0  0  0  0  0  0
    5.3538   -2.2819   -3.6651 C   0  0  0  0  0  0  0  0  0  0  0  0
    6.4618   -2.2806   -4.6276 C   0  0  0  0  0  0  0  0  0  0  0  0
    6.9502   -1.1340   -5.2397 C   0  0  0  0  0  0  0  0  0  0  0  0
    6.4252    0.0669   -4.9348 F   0  0  0  0  0  0  0  0  0  0  0  0
    7.9636   -1.1683   -6.1886 C   0  0  0  0  0  0  0  0  0  0  0  0
    8.3610    0.0158   -6.7017 F   0  0  0  0  0  0  0  0  0  0  0  0
    8.5444   -2.3751   -6.5932 C   0  0  0  0  0  0  0  0  0  0  0  0
    9.5325   -2.5762   -7.4696 O   0  0  0  0  0  0  0  0  0  0  0  0
    9.9486   -1.5687   -8.3867 C   0  0  0  0  0  0  0  0  0  0  0  0
    8.9037   -1.3049   -9.4627 C   0  0  0  0  0  0  0  0  0  0  0  0
    8.0504   -3.5328   -5.9618 C   0  0  0  0  0  0  0  0  0  0  0  0
    8.5900   -4.7093   -6.3011 F   0  0  0  0  0  0  0  0  0  0  0  0
    7.0425   -3.4924   -5.0190 C   0  0  0  0  0  0  0  0  0  0  0  0
    6.6579   -4.6327   -4.4445 F   0  0  0  0  0  0  0  0  0  0  0  0
    4.4773   -3.2361   -3.8384 N   0  0  0  0  0  0  0  0  0  0  0  0
    3.3743   -3.2825   -3.0869 C   0  0  0  0  0  0  0  0  0  0  0  0
    2.4468   -4.3576   -3.2654 C   0  0  0  0  0  0  0  0  0  0  0  0
    1.2832   -4.3215   -2.5115 C   0  0  0  0  0  0  0  0  0  0  0  0
    1.0085   -3.2600   -1.6490 C   0  0  0  0  0  0  0  0  0  0  0  0
    2.8273   -5.3181   -4.2578 C   0  0  0  0  0  0  0  0  0  0  0  0
    2.2938   -6.4826   -4.7058 C   0  0  0  0  0  0  0  0  0  0  0  0
    1.1380   -7.2704   -4.2040 C   0  0  0  0  0  0  0  0  0  0  0  0
    0.2925   -6.9434   -3.3963 O   0  0  0  0  0  0  0  0  0  0  0  0
    1.2153   -8.5733   -4.8846 C   0  0  0  0  0  0  0  0  0  0  0  0
    0.3816   -9.6697   -4.6697 C   0  0  0  0  0  0  0  0  0  0  0  0
    0.6982  -10.7707   -5.4267 C   0  0  0  0  0  0  0  0  0  0  0  0
    1.7674  -10.7822   -6.3343 C   0  0  0  0  0  0  0  0  0  0  0  0
    2.5906   -9.7064   -6.5634 C   0  0  0  0  0  0  0  0  0  0  0  0
    2.2849   -8.5727   -5.8031 C   0  0  0  0  0  0  0  0  0  0  0  0
    2.9203   -7.2611   -5.7738 C   0  0  0  0  0  0  0  0  0  0  0  0
    3.8772   -6.8209   -6.6478 C   0  0  0  0  0  0  0  0  0  0  0  0
    4.4215   -7.6106   -7.6855 C   0  0  0  0  0  0  0  0  0  0  0  0
    4.9021   -8.1885   -8.5528 N   0  0  0  0  0  0  0  0  0  0  0  0
    4.4350   -5.5236   -6.7198 C   0  0  0  0  0  0  0  0  0  0  0  0
    4.9345   -4.5068   -6.9128 N   0  0  0  0  0  0  0  0  0  0  0  0
    1.5195  -12.2156   -6.7300 C   0  0  0  0  0  0  0  0  0  0  0  0
    2.4567  -13.2978   -6.1387 C   0  0  0  0  0  0  0  0  0  0  0  0
    2.9672  -12.7546   -4.8271 C   0  0  0  0  0  0  0  0  0  0  0  0
    1.9541  -12.7448   -3.9711 C   0  0  0  0  0  0  0  0  0  0  0  0
    0.7398  -13.2804   -4.6887 C   0  0  0  0  0  0  0  0  0  0  0  0
    1.4074  -14.2980   -5.6276 C   0  0  0  0  0  0  0  0  0  0  0  0
    0.3274  -12.2023   -5.7218 C   0  0  0  0  0  0  0  0  0  0  0  0
   -3.7077    6.8411    4.4139 H   0  0  0  0  0  0  0  0  0  0  0  0
   -8.0039    5.7482    7.3813 H   0  0  0  0  0  0  0  0  0  0  0  0
   -8.7758    3.4207    2.9490 H   0  0  0  0  0  0  0  0  0  0  0  0
  -11.5325    3.0811    4.9761 H   0  0  0  0  0  0  0  0  0  0  0  0
  -10.1410    0.8018    4.9715 H   0  0  0  0  0  0  0  0  0  0  0  0
  -12.3215    0.4594    6.4136 H   0  0  0  0  0  0  0  0  0  0  0  0
  -11.9571    1.6653    8.7515 H   0  0  0  0  0  0  0  0  0  0  0  0
   -9.5612    2.7423    8.7530 H   0  0  0  0  0  0  0  0  0  0  0  0
   -8.2972    1.9925    6.4972 H   0  0  0  0  0  0  0  0  0  0  0  0
   -8.9842    0.5822    7.3335 H   0  0  0  0  0  0  0  0  0  0  0  0
  -11.1642    4.2651    7.2663 H   0  0  0  0  0  0  0  0  0  0  0  0
   -2.9370    7.6353    1.3171 H   0  0  0  0  0  0  0  0  0  0  0  0
   -3.8580    9.8702    1.2837 H   0  0  0  0  0  0  0  0  0  0  0  0
   -5.4515   11.4597    2.0002 H   0  0  0  0  0  0  0  0  0  0  0  0
   -5.1625   13.2126    1.9256 H   0  0  0  0  0  0  0  0  0  0  0  0
   -4.2278   12.1295    0.8722 H   0  0  0  0  0  0  0  0  0  0  0  0
   -1.7101   10.8275    4.8613 H   0  0  0  0  0  0  0  0  0  0  0  0
   -0.7779    8.5472    4.9006 H   0  0  0  0  0  0  0  0  0  0  0  0
    0.8153    8.1851    2.5187 H   0  0  0  0  0  0  0  0  0  0  0  0
    3.1585    7.7864    3.1741 H   0  0  0  0  0  0  0  0  0  0  0  0
    5.5761    3.9658    5.5758 H   0  0  0  0  0  0  0  0  0  0  0  0
    4.1040    3.4141    4.7434 H   0  0  0  0  0  0  0  0  0  0  0  0
    4.0008    4.1667    6.3697 H   0  0  0  0  0  0  0  0  0  0  0  0
    1.9636    4.2585    5.2794 H   0  0  0  0  0  0  0  0  0  0  0  0
   -0.3519    4.6641    4.6404 H   0  0  0  0  0  0  0  0  0  0  0  0
   -3.1393    1.0235    2.9743 H   0  0  0  0  0  0  0  0  0  0  0  0
   -5.3988    0.7348    3.9416 H   0  0  0  0  0  0  0  0  0  0  0  0
   -8.9130    1.7272    0.9615 H   0  0  0  0  0  0  0  0  0  0  0  0
   -9.1238   -0.0504    0.8139 H   0  0  0  0  0  0  0  0  0  0  0  0
  -10.1128    0.8735    1.9638 H   0  0  0  0  0  0  0  0  0  0  0  0
   -7.0505    0.6322   -0.0022 H   0  0  0  0  0  0  0  0  0  0  0  0
   -4.8264    0.9433   -0.9477 H   0  0  0  0  0  0  0  0  0  0  0  0
   -2.3367   -1.1562   -0.4020 H   0  0  0  0  0  0  0  0  0  0  0  0
   -1.6048   -1.8898   -2.6404 H   0  0  0  0  0  0  0  0  0  0  0  0
   -0.2058   -2.5736   -4.3653 H   0  0  0  0  0  0  0  0  0  0  0  0
    0.7941   -1.8814   -5.6589 H   0  0  0  0  0  0  0  0  0  0  0  0
    1.0330   -1.3332   -3.9819 H   0  0  0  0  0  0  0  0  0  0  0  0
   -1.3536    2.1842   -3.8923 H   0  0  0  0  0  0  0  0  0  0  0  0
   -2.0522    2.9184   -1.6455 H   0  0  0  0  0  0  0  0  0  0  0  0
    0.9756   -0.9777    3.4381 H   0  0  0  0  0  0  0  0  0  0  0  0
   -0.3037   -0.0492    4.2528 H   0  0  0  0  0  0  0  0  0  0  0  0
    0.9137    2.0754    3.7311 H   0  0  0  0  0  0  0  0  0  0  0  0
    1.9399    0.9656    4.6562 H   0  0  0  0  0  0  0  0  0  0  0  0
    2.1786    1.1574    2.9121 H   0  0  0  0  0  0  0  0  0  0  0  0
    1.4959   -3.9180    0.7172 H   0  0  0  0  0  0  0  0  0  0  0  0
    2.8198   -2.7303    0.7876 H   0  0  0  0  0  0  0  0  0  0  0  0
    1.3560   -3.8660    3.2249 H   0  0  0  0  0  0  0  0  0  0  0  0
    2.9255   -4.4352    2.6381 H   0  0  0  0  0  0  0  0  0  0  0  0
    2.7596   -2.7917    3.2696 H   0  0  0  0  0  0  0  0  0  0  0  0
   10.2459    4.0145   -0.9564 H   0  0  0  0  0  0  0  0  0  0  0  0
    8.4949    4.0497   -0.6578 H   0  0  0  0  0  0  0  0  0  0  0  0
    9.1314    5.3853   -2.6829 H   0  0  0  0  0  0  0  0  0  0  0  0
    9.8282    3.9346   -3.4177 H   0  0  0  0  0  0  0  0  0  0  0  0
    8.0861    4.0401   -3.1366 H   0  0  0  0  0  0  0  0  0  0  0  0
   10.2194   -0.6475   -7.8637 H   0  0  0  0  0  0  0  0  0  0  0  0
   10.8496   -1.9959   -8.8333 H   0  0  0  0  0  0  0  0  0  0  0  0
    8.6250   -2.2388   -9.9447 H   0  0  0  0  0  0  0  0  0  0  0  0
    9.3170   -0.6314  -10.2075 H   0  0  0  0  0  0  0  0  0  0  0  0
    8.0111   -0.8491   -9.0425 H   0  0  0  0  0  0  0  0  0  0  0  0
    0.5593   -5.1144   -2.6164 H   0  0  0  0  0  0  0  0  0  0  0  0
    0.0588   -3.2387   -1.1333 H   0  0  0  0  0  0  0  0  0  0  0  0
    3.7614   -5.0242   -4.7239 H   0  0  0  0  0  0  0  0  0  0  0  0
   -0.4290   -9.6171   -3.9596 H   0  0  0  0  0  0  0  0  0  0  0  0
    3.4094   -9.7337   -7.2624 H   0  0  0  0  0  0  0  0  0  0  0  0
    1.2979  -12.3884   -7.7812 H   0  0  0  0  0  0  0  0  0  0  0  0
    3.2087  -13.6691   -6.8295 H   0  0  0  0  0  0  0  0  0  0  0  0
    3.9672  -12.3917   -4.6779 H   0  0  0  0  0  0  0  0  0  0  0  0
    1.9388  -12.3719   -2.9636 H   0  0  0  0  0  0  0  0  0  0  0  0
   -0.0716  -13.6369   -4.0597 H   0  0  0  0  0  0  0  0  0  0  0  0
    0.7445  -14.6686   -6.4081 H   0  0  0  0  0  0  0  0  0  0  0  0
    1.8506  -15.1364   -5.0925 H   0  0  0  0  0  0  0  0  0  0  0  0
   -0.6744  -12.3649   -6.1145 H   0  0  0  0  0  0  0  0  0  0  0  0
  1  2  2  0  0  0  0
  2  3  1  0  0  0  0
  3  4  2  0  0  0  0
  3  5  1  0  0  0  0
  5  6  2  0  0  0  0
  6  7  1  0  0  0  0
  7  8  2  0  0  0  0
  8  9  1  0  0  0  0
  9 10  2  0  0  0  0
 10 11  1  0  0  0  0
 11 12  2  0  0  0  0
 12 13  1  0  0  0  0
 13 14  3  0  0  0  0
 12 15  1  0  0  0  0
 15 16  3  0  0  0  0
  8 17  1  0  0  0  0
 17 18  1  0  0  0  0
 18 19  1  0  0  0  0
 19 20  2  0  0  0  0
 20 21  1  0  0  0  0
 21 22  1  0  0  0  0
 21 23  1  0  0  0  0
  1 24  1  0  0  0  0
 24 25  2  0  0  0  0
 25 26  1  0  0  0  0
 26 27  1  0  0  0  0
 27 28  2  0  0  0  0
 28 29  1  0  0  0  0
 29 30  2  0  0  0  0
 30 31  1  0  0  0  0
 31 32  1  0  0  0  0
 30 33  1  0  0  0  0
 33 34  2  0  0  0  0
 26 35  1  0  0  0  0
 35 36  2  0  0  0  0
 36 37  1  0  0  0  0
 37 38  2  0  0  0  0
 38 39  1  0  0  0  0
 39 40  1  0  0  0  0
 38 41  1  0  0  0  0
 41 42  2  0  0  0  0
 25 43  1  0  0  0  0
 43 44  1  0  0  0  0
 44 45  1  0  0  0  0
 45 46  2  0  0  0  0
 46 47  1  0  0  0  0
 47 48  1  0  0  0  0
 48 49  2  0  0  0  0
 49 50  1  0  0  0  0
 50 51  2  0  0  0  0
 51 52  1  0  0  0  0
 52 53  1  0  0  0  0
 51 54  1  0  0  0  0
 54 55  2  0  0  0  0
 47 56  1  0  0  0  0
 56 57  2  0  0  0  0
 57 58  1  0  0  0  0
 58 59  2  0  0  0  0
 59 60  1  0  0  0  0
 60 61  1  0  0  0  0
 59 62  1  0  0  0  0
 62 63  2  0  0  0  0
 46 64  1  0  0  0  0
 64 65  1  0  0  0  0
 45 66  1  0  0  0  0
 66 67  2  0  0  0  0
 67 68  1  0  0  0  0
 68 69  1  0  0  0  0
 69 70  1  0  0  0  0
 67 71  1  0  0  0  0
 71 72  1  0  0  0  0
 72 73  1  0  0  0  0
 73 74  1  0  0  0  0
 71 75  2  0  0  0  0
 75 76  1  0  0  0  0
 76 77  1  0  0  0  0
 77 78  2  0  0  0  0
 78 79  1  0  0  0  0
 79 80  1  0  0  0  0
 75 81  1  0  0  0  0
 81 82  1  0  0  0  0
 82 83  2  0  0  0  0
 83 84  1  0  0  0  0
 84 85  1  0  0  0  0
 85 86  2  0  0  0  0
 86 87  1  0  0  0  0
 87 88  2  0  0  0  0
 88 89  1  0  0  0  0
 89 90  1  0  0  0  0
 90 91  1  0  0  0  0
 88 92  1  0  0  0  0
 92 93  2  0  0  0  0
 93 94  1  0  0  0  0
 92 95  1  0  0  0  0
 87 96  1  0  0  0  0
 86 97  1  0  0  0  0
 84 98  2  0  0  0  0
 98 99  1  0  0  0  0
 99100  2  0  0  0  0
100101  1  0  0  0  0
100102  1  0  0  0  0
102103  1  0  0  0  0
102104  2  0  0  0  0
104105  1  0  0  0  0
105106  1  0  0  0  0
106107  1  0  0  0  0
104108  1  0  0  0  0
108109  1  0  0  0  0
108110  2  0  0  0  0
110111  1  0  0  0  0
 98112  1  0  0  0  0
112113  2  0  0  0  0
113114  1  0  0  0  0
114115  2  0  0  0  0
115116  1  0  0  0  0
114117  1  0  0  0  0
117118  2  0  0  0  0
118119  1  0  0  0  0
119120  2  0  0  0  0
119121  1  0  0  0  0
121122  2  0  0  0  0
122123  1  0  0  0  0
123124  2  0  0  0  0
124125  1  0  0  0  0
125126  2  0  0  0  0
126127  1  0  0  0  0
127128  2  0  0  0  0
128129  1  0  0  0  0
129130  3  0  0  0  0
128131  1  0  0  0  0
131132  3  0  0  0  0
124133  1  0  0  0  0
133134  1  0  0  0  0
134135  1  0  0  0  0
135136  2  0  0  0  0
136137  1  0  0  0  0
137138  1  0  0  0  0
137139  1  0  0  0  0
 11  2  1  0  0  0  0
 23 17  1  0  0  0  0
 65 24  1  0  0  0  0
 77 66  1  0  0  0  0
116 81  2  0  0  0  0
127118  1  0  0  0  0
139133  1  0  0  0  0
 10  5  1  0  0  0  0
 22 18  1  0  0  0  0
 34 27  1  0  0  0  0
 42 35  1  0  0  0  0
 64 43  2  0  0  0  0
 80 76  2  0  0  0  0
113 82  1  0  0  0  0
126121  1  0  0  0  0
138134  1  0  0  0  0
 23  7  1  0  0  0  0
 55 48  1  0  0  0  0
 63 56  1  0  0  0  0
 93 85  1  0  0  0  0
110 99  1  0  0  0  0
139123  1  0  0  0  0
  1140  1  0  0  0  0
  6141  1  0  0  0  0
  9142  1  0  0  0  0
 17143  1  0  0  0  0
 18144  1  0  0  0  0
 19145  1  0  0  0  0
 20146  1  0  0  0  0
 21147  1  0  0  0  0
 22148  1  0  0  0  0
 22149  1  0  0  0  0
 23150  1  0  0  0  0
 28151  1  0  0  0  0
 29152  1  0  0  0  0
 32153  1  0  0  0  0
 32154  1  0  0  0  0
 32155  1  0  0  0  0
 33156  1  0  0  0  0
 34157  1  0  0  0  0
 36158  1  0  0  0  0
 37159  1  0  0  0  0
 40160  1  0  0  0  0
 40161  1  0  0  0  0
 40162  1  0  0  0  0
 41163  1  0  0  0  0
 42164  1  0  0  0  0
 49165  1  0  0  0  0
 50166  1  0  0  0  0
 53167  1  0  0  0  0
 53168  1  0  0  0  0
 53169  1  0  0  0  0
 54170  1  0  0  0  0
 55171  1  0  0  0  0
 57172  1  0  0  0  0
 58173  1  0  0  0  0
 61174  1  0  0  0  0
 61175  1  0  0  0  0
 61176  1  0  0  0  0
 62177  1  0  0  0  0
 63178  1  0  0  0  0
 69179  1  0  0  0  0
 69180  1  0  0  0  0
 70181  1  0  0  0  0
 70182  1  0  0  0  0
 70183  1  0  0  0  0
 73184  1  0  0  0  0
 73185  1  0  0  0  0
 74186  1  0  0  0  0
 74187  1  0  0  0  0
 74188  1  0  0  0  0
 90189  1  0  0  0  0
 90190  1  0  0  0  0
 91191  1  0  0  0  0
 91192  1  0  0  0  0
 91193  1  0  0  0  0
106194  1  0  0  0  0
106195  1  0  0  0  0
107196  1  0  0  0  0
107197  1  0  0  0  0
107198  1  0  0  0  0
115199  1  0  0  0  0
116200  1  0  0  0  0
117201  1  0  0  0  0
122202  1  0  0  0  0
125203  1  0  0  0  0
133204  1  0  0  0  0
134205  1  0  0  0  0
135206  1  0  0  0  0
136207  1  0  0  0  0
137208  1  0  0  0  0
138209  1  0  0  0  0
138210  1  0  0  0  0
139211  1  0  0  0  0
M  END
