
  xtb     02072221343D
 energy: -351.904233417596 gnorm: 0.000562609364 xtb: 6.4.1 (unknown)
216237  0     0  0            999 V2000
   -1.9462   -0.2322    5.3200 C   0  0  0  0  0  0  0  0  0  0  0  0
   -0.9377   -1.1151    5.6623 C   0  0  0  0  0  0  0  0  0  0  0  0
   -0.0633   -1.8109    4.7122 C   0  0  0  0  0  0  0  0  0  0  0  0
   -0.0901   -1.7600    3.4913 O   0  0  0  0  0  0  0  0  0  0  0  0
    0.9312   -2.5322    5.5371 C   0  0  0  0  0  0  0  0  0  0  0  0
    1.9631   -3.3513    5.0921 C   0  0  0  0  0  0  0  0  0  0  0  0
    2.6728   -3.9611    6.0998 C   0  0  0  0  0  0  0  0  0  0  0  0
    2.3903   -3.7563    7.4545 C   0  0  0  0  0  0  0  0  0  0  0  0
    1.3929   -2.9260    7.9097 C   0  0  0  0  0  0  0  0  0  0  0  0
    0.6545   -2.3091    6.8996 C   0  0  0  0  0  0  0  0  0  0  0  0
   -0.5050   -1.4253    6.9939 C   0  0  0  0  0  0  0  0  0  0  0  0
   -1.1569   -1.0824    8.1554 C   0  0  0  0  0  0  0  0  0  0  0  0
   -2.3753   -0.3794    8.2088 C   0  0  0  0  0  0  0  0  0  0  0  0
   -3.3922    0.1404    8.3431 N   0  0  0  0  0  0  0  0  0  0  0  0
   -0.7458   -1.4534    9.4487 C   0  0  0  0  0  0  0  0  0  0  0  0
   -0.4938   -1.7234   10.5372 N   0  0  0  0  0  0  0  0  0  0  0  0
    3.4637   -4.7135    7.9064 C   0  0  0  0  0  0  0  0  0  0  0  0
    3.0133   -6.1192    8.3749 C   0  0  0  0  0  0  0  0  0  0  0  0
    1.7150   -6.4164    7.6656 C   0  0  0  0  0  0  0  0  0  0  0  0
    1.9931   -6.6135    6.3835 C   0  0  0  0  0  0  0  0  0  0  0  0
    3.4816   -6.4474    6.2023 C   0  0  0  0  0  0  0  0  0  0  0  0
    3.9787   -6.9877    7.5523 C   0  0  0  0  0  0  0  0  0  0  0  0
    3.7826   -4.9399    6.3947 C   0  0  0  0  0  0  0  0  0  0  0  0
   -2.6224   -0.1721    4.1081 C   0  0  0  0  0  0  0  0  0  0  0  0
   -2.7973   -1.1318    3.0800 C   0  0  0  0  0  0  0  0  0  0  0  0
   -2.6740   -2.4734    3.2407 N   0  0  0  0  0  0  0  0  0  0  0  0
   -2.8557   -3.3695    2.1614 C   0  0  0  0  0  0  0  0  0  0  0  0
   -3.8270   -4.3625    2.2896 C   0  0  0  0  0  0  0  0  0  0  0  0
   -4.0437   -5.2529    1.2648 C   0  0  0  0  0  0  0  0  0  0  0  0
   -3.2995   -5.1652    0.0890 C   0  0  0  0  0  0  0  0  0  0  0  0
   -3.6896   -6.3368   -1.1666 S   0  0  0  0  0  0  0  0  0  0  0  0
   -2.2453   -6.2762   -2.2613 C   0  0  0  0  0  0  0  0  0  0  0  0
   -2.3302   -4.1800   -0.0384 C   0  0  0  0  0  0  0  0  0  0  0  0
   -2.0974   -3.2963    1.0011 C   0  0  0  0  0  0  0  0  0  0  0  0
   -2.5928   -3.0908    4.5071 C   0  0  0  0  0  0  0  0  0  0  0  0
   -3.4220   -2.7291    5.5642 C   0  0  0  0  0  0  0  0  0  0  0  0
   -3.2762   -3.3156    6.8055 C   0  0  0  0  0  0  0  0  0  0  0  0
   -2.2921   -4.2772    7.0117 C   0  0  0  0  0  0  0  0  0  0  0  0
   -1.9363   -5.0135    8.5684 S   0  0  0  0  0  0  0  0  0  0  0  0
   -3.1218   -4.2531    9.7102 C   0  0  0  0  0  0  0  0  0  0  0  0
   -1.5134   -4.6974    5.9343 C   0  0  0  0  0  0  0  0  0  0  0  0
   -1.6681   -4.1186    4.6949 C   0  0  0  0  0  0  0  0  0  0  0  0
   -3.3235   -0.5041    1.9216 C   0  0  0  0  0  0  0  0  0  0  0  0
   -3.5659   -0.9858    0.2746 S   0  0  0  0  0  0  0  0  0  0  0  0
   -4.2143    0.5892   -0.1250 C   0  0  0  0  0  0  0  0  0  0  0  0
   -4.3655    1.3993    0.9897 C   0  0  0  0  0  0  0  0  0  0  0  0
   -5.1419    2.5454    1.0282 N   0  0  0  0  0  0  0  0  0  0  0  0
   -4.9293    3.5071    2.0348 C   0  0  0  0  0  0  0  0  0  0  0  0
   -5.9976    3.9478    2.8183 C   0  0  0  0  0  0  0  0  0  0  0  0
   -5.8072    4.9223    3.7694 C   0  0  0  0  0  0  0  0  0  0  0  0
   -4.5450    5.4838    3.9620 C   0  0  0  0  0  0  0  0  0  0  0  0
   -4.4287    6.7498    5.1836 S   0  0  0  0  0  0  0  0  0  0  0  0
   -2.7411    7.3896    4.9976 C   0  0  0  0  0  0  0  0  0  0  0  0
   -3.4762    5.0302    3.2030 C   0  0  0  0  0  0  0  0  0  0  0  0
   -3.6659    4.0449    2.2510 C   0  0  0  0  0  0  0  0  0  0  0  0
   -6.3347    2.6184    0.2894 C   0  0  0  0  0  0  0  0  0  0  0  0
   -6.8176    3.8634   -0.1086 C   0  0  0  0  0  0  0  0  0  0  0  0
   -7.9827    3.9781   -0.8409 C   0  0  0  0  0  0  0  0  0  0  0  0
   -8.6951    2.8412   -1.1954 C   0  0  0  0  0  0  0  0  0  0  0  0
  -10.1835    2.8511   -2.1449 S   0  0  0  0  0  0  0  0  0  0  0  0
  -10.4815    4.6109   -2.4758 C   0  0  0  0  0  0  0  0  0  0  0  0
   -8.2308    1.5946   -0.7818 C   0  0  0  0  0  0  0  0  0  0  0  0
   -7.0724    1.4832   -0.0467 C   0  0  0  0  0  0  0  0  0  0  0  0
   -3.7611    0.8009    2.1216 C   0  0  0  0  0  0  0  0  0  0  0  0
   -3.4376    1.3582    3.7194 S   0  0  0  0  0  0  0  0  0  0  0  0
   -4.4786    0.8791   -1.5102 C   0  0  0  0  0  0  0  0  0  0  0  0
   -4.2515    2.0627   -2.0892 C   0  0  0  0  0  0  0  0  0  0  0  0
   -3.7305    3.2513   -1.4152 C   0  0  0  0  0  0  0  0  0  0  0  0
   -2.4531    3.5060   -1.1066 C   0  0  0  0  0  0  0  0  0  0  0  0
   -1.2884    2.7536   -1.4631 C   0  0  0  0  0  0  0  0  0  0  0  0
    0.0044    3.2297   -1.3152 C   0  0  0  0  0  0  0  0  0  0  0  0
    0.3740    4.3678   -0.5930 N   0  0  0  0  0  0  0  0  0  0  0  0
    1.3097    5.2067   -1.2227 C   0  0  0  0  0  0  0  0  0  0  0  0
    1.1175    5.5382   -2.5652 C   0  0  0  0  0  0  0  0  0  0  0  0
    2.0280    6.3321   -3.2239 C   0  0  0  0  0  0  0  0  0  0  0  0
    3.1497    6.8219   -2.5580 C   0  0  0  0  0  0  0  0  0  0  0  0
    4.2436    7.8372   -3.5022 S   0  0  0  0  0  0  0  0  0  0  0  0
    5.4920    8.3750   -2.2986 C   0  0  0  0  0  0  0  0  0  0  0  0
    3.3496    6.4888   -1.2256 C   0  0  0  0  0  0  0  0  0  0  0  0
    2.4413    5.6825   -0.5677 C   0  0  0  0  0  0  0  0  0  0  0  0
    0.1702    4.4135    0.7880 C   0  0  0  0  0  0  0  0  0  0  0  0
    0.2279    5.6363    1.4617 C   0  0  0  0  0  0  0  0  0  0  0  0
    0.1003    5.6845    2.8312 C   0  0  0  0  0  0  0  0  0  0  0  0
   -0.1185    4.5200    3.5655 C   0  0  0  0  0  0  0  0  0  0  0  0
   -0.2191    4.6956    5.3248 S   0  0  0  0  0  0  0  0  0  0  0  0
   -1.0309    3.1675    5.8603 C   0  0  0  0  0  0  0  0  0  0  0  0
   -0.2282    3.3084    2.8995 C   0  0  0  0  0  0  0  0  0  0  0  0
   -0.0829    3.2581    1.5261 C   0  0  0  0  0  0  0  0  0  0  0  0
    0.9392    2.4149   -1.9893 C   0  0  0  0  0  0  0  0  0  0  0  0
    2.6395    2.5300   -2.2661 S   0  0  0  0  0  0  0  0  0  0  0  0
    2.5992    1.0501   -3.1888 C   0  0  0  0  0  0  0  0  0  0  0  0
    1.3392    0.4844   -3.2492 C   0  0  0  0  0  0  0  0  0  0  0  0
    1.0924   -0.8106   -3.7313 N   0  0  0  0  0  0  0  0  0  0  0  0
    1.4563   -1.0776   -5.0643 C   0  0  0  0  0  0  0  0  0  0  0  0
    2.3848   -2.0646   -5.3987 C   0  0  0  0  0  0  0  0  0  0  0  0
    2.7604   -2.2428   -6.7110 C   0  0  0  0  0  0  0  0  0  0  0  0
    2.2169   -1.4463   -7.7184 C   0  0  0  0  0  0  0  0  0  0  0  0
    2.8294   -1.7282   -9.3503 S   0  0  0  0  0  0  0  0  0  0  0  0
    1.8411   -0.6138  -10.3874 C   0  0  0  0  0  0  0  0  0  0  0  0
    1.2720   -0.4842   -7.3933 C   0  0  0  0  0  0  0  0  0  0  0  0
    0.8956   -0.3051   -6.0754 C   0  0  0  0  0  0  0  0  0  0  0  0
    1.0026   -1.8411   -2.7924 C   0  0  0  0  0  0  0  0  0  0  0  0
    1.2329   -1.6169   -1.4364 C   0  0  0  0  0  0  0  0  0  0  0  0
    1.1568   -2.6452   -0.5170 C   0  0  0  0  0  0  0  0  0  0  0  0
    0.8766   -3.9357   -0.9384 C   0  0  0  0  0  0  0  0  0  0  0  0
    0.7758   -5.3314    0.1443 S   0  0  0  0  0  0  0  0  0  0  0  0
    1.2831   -4.6594    1.7483 C   0  0  0  0  0  0  0  0  0  0  0  0
    0.6299   -4.1660   -2.2905 C   0  0  0  0  0  0  0  0  0  0  0  0
    0.6629   -3.1336   -3.1995 C   0  0  0  0  0  0  0  0  0  0  0  0
    0.3869    1.2880   -2.5763 C   0  0  0  0  0  0  0  0  0  0  0  0
   -1.3284    1.2278   -2.3329 S   0  0  0  0  0  0  0  0  0  0  0  0
    3.8173    0.4958   -3.7321 C   0  0  0  0  0  0  0  0  0  0  0  0
    4.0708    0.4867   -5.0584 C   0  0  0  0  0  0  0  0  0  0  0  0
    3.3653    1.3875   -6.0132 C   0  0  0  0  0  0  0  0  0  0  0  0
    2.4415    2.1294   -5.7629 O   0  0  0  0  0  0  0  0  0  0  0  0
    4.0888    1.2500   -7.2871 C   0  0  0  0  0  0  0  0  0  0  0  0
    3.8167    1.9193   -8.4792 C   0  0  0  0  0  0  0  0  0  0  0  0
    4.6220    1.5479   -9.5293 C   0  0  0  0  0  0  0  0  0  0  0  0
    5.6280    0.5793   -9.4058 C   0  0  0  0  0  0  0  0  0  0  0  0
    5.9194   -0.0772   -8.2349 C   0  0  0  0  0  0  0  0  0  0  0  0
    5.1134    0.2887   -7.1526 C   0  0  0  0  0  0  0  0  0  0  0  0
    5.1051   -0.2215   -5.7890 C   0  0  0  0  0  0  0  0  0  0  0  0
    5.8318   -1.2743   -5.3035 C   0  0  0  0  0  0  0  0  0  0  0  0
    5.6593   -1.8110   -4.0099 C   0  0  0  0  0  0  0  0  0  0  0  0
    5.5376   -2.3087   -2.9825 N   0  0  0  0  0  0  0  0  0  0  0  0
    6.7988   -1.9899   -6.0391 C   0  0  0  0  0  0  0  0  0  0  0  0
    7.6038   -2.6061   -6.5775 N   0  0  0  0  0  0  0  0  0  0  0  0
    6.0222    0.6866  -10.8570 C   0  0  0  0  0  0  0  0  0  0  0  0
    7.3119    1.4752  -11.1654 C   0  0  0  0  0  0  0  0  0  0  0  0
    7.1821    1.8250  -12.6302 C   0  0  0  0  0  0  0  0  0  0  0  0
    6.2377    2.7503  -12.7422 C   0  0  0  0  0  0  0  0  0  0  0  0
    5.7122    3.0409  -11.3546 C   0  0  0  0  0  0  0  0  0  0  0  0
    6.9960    2.8399  -10.5393 C   0  0  0  0  0  0  0  0  0  0  0  0
    4.9077    1.7734  -10.9937 C   0  0  0  0  0  0  0  0  0  0  0  0
   -2.2276    0.5220    6.0453 H   0  0  0  0  0  0  0  0  0  0  0  0
    2.1538   -3.4878    4.0398 H   0  0  0  0  0  0  0  0  0  0  0  0
    1.1909   -2.7696    8.9560 H   0  0  0  0  0  0  0  0  0  0  0  0
    4.2468   -4.2970    8.5369 H   0  0  0  0  0  0  0  0  0  0  0  0
    3.0104   -6.2555    9.4528 H   0  0  0  0  0  0  0  0  0  0  0  0
    0.7533   -6.3941    8.1450 H   0  0  0  0  0  0  0  0  0  0  0  0
    1.3116   -6.8006    5.5735 H   0  0  0  0  0  0  0  0  0  0  0  0
    3.9078   -6.8823    5.3017 H   0  0  0  0  0  0  0  0  0  0  0  0
    3.7939   -8.0541    7.6729 H   0  0  0  0  0  0  0  0  0  0  0  0
    5.0287   -6.7720    7.7458 H   0  0  0  0  0  0  0  0  0  0  0  0
    4.7730   -4.6650    6.0363 H   0  0  0  0  0  0  0  0  0  0  0  0
   -4.4102   -4.4248    3.1965 H   0  0  0  0  0  0  0  0  0  0  0  0
   -4.7950   -6.0218    1.3563 H   0  0  0  0  0  0  0  0  0  0  0  0
   -2.2313   -5.3438   -2.8185 H   0  0  0  0  0  0  0  0  0  0  0  0
   -1.3474   -6.3967   -1.6627 H   0  0  0  0  0  0  0  0  0  0  0  0
   -2.3561   -7.1126   -2.9445 H   0  0  0  0  0  0  0  0  0  0  0  0
   -1.7515   -4.0833   -0.9415 H   0  0  0  0  0  0  0  0  0  0  0  0
   -1.3217   -2.5507    0.9141 H   0  0  0  0  0  0  0  0  0  0  0  0
   -4.1824   -1.9754    5.4247 H   0  0  0  0  0  0  0  0  0  0  0  0
   -3.9280   -3.0023    7.6048 H   0  0  0  0  0  0  0  0  0  0  0  0
   -2.9655   -3.1794    9.7553 H   0  0  0  0  0  0  0  0  0  0  0  0
   -2.9088   -4.6906   10.6806 H   0  0  0  0  0  0  0  0  0  0  0  0
   -4.1363   -4.4966    9.4085 H   0  0  0  0  0  0  0  0  0  0  0  0
   -0.7721   -5.4648    6.0925 H   0  0  0  0  0  0  0  0  0  0  0  0
   -1.0592   -4.4422    3.8650 H   0  0  0  0  0  0  0  0  0  0  0  0
   -6.9781    3.5198    2.6709 H   0  0  0  0  0  0  0  0  0  0  0  0
   -6.6318    5.2628    4.3765 H   0  0  0  0  0  0  0  0  0  0  0  0
   -2.0164    6.6324    5.2838 H   0  0  0  0  0  0  0  0  0  0  0  0
   -2.6755    8.2352    5.6752 H   0  0  0  0  0  0  0  0  0  0  0  0
   -2.5862    7.7214    3.9751 H   0  0  0  0  0  0  0  0  0  0  0  0
   -2.4894    5.4399    3.3333 H   0  0  0  0  0  0  0  0  0  0  0  0
   -2.8282    3.6981    1.6651 H   0  0  0  0  0  0  0  0  0  0  0  0
   -6.2793    4.7581    0.1700 H   0  0  0  0  0  0  0  0  0  0  0  0
   -8.3183    4.9611   -1.1293 H   0  0  0  0  0  0  0  0  0  0  0  0
  -11.3979    4.6467   -3.0566 H   0  0  0  0  0  0  0  0  0  0  0  0
   -9.6616    5.0248   -3.0557 H   0  0  0  0  0  0  0  0  0  0  0  0
  -10.6167    5.1477   -1.5414 H   0  0  0  0  0  0  0  0  0  0  0  0
   -8.7981    0.7129   -1.0376 H   0  0  0  0  0  0  0  0  0  0  0  0
   -6.7470    0.5080    0.2809 H   0  0  0  0  0  0  0  0  0  0  0  0
   -4.8090    0.0430   -2.1119 H   0  0  0  0  0  0  0  0  0  0  0  0
   -4.5010    2.1915   -3.1356 H   0  0  0  0  0  0  0  0  0  0  0  0
   -4.4662    4.0146   -1.1986 H   0  0  0  0  0  0  0  0  0  0  0  0
   -2.2185    4.4454   -0.6197 H   0  0  0  0  0  0  0  0  0  0  0  0
    0.2489    5.1639   -3.0866 H   0  0  0  0  0  0  0  0  0  0  0  0
    1.8806    6.5856   -4.2623 H   0  0  0  0  0  0  0  0  0  0  0  0
    6.0540    7.5196   -1.9349 H   0  0  0  0  0  0  0  0  0  0  0  0
    5.0138    8.9104   -1.4835 H   0  0  0  0  0  0  0  0  0  0  0  0
    6.1519    9.0439   -2.8421 H   0  0  0  0  0  0  0  0  0  0  0  0
    4.2164    6.8359   -0.6870 H   0  0  0  0  0  0  0  0  0  0  0  0
    2.6220    5.4103    0.4613 H   0  0  0  0  0  0  0  0  0  0  0  0
    0.3836    6.5465    0.9025 H   0  0  0  0  0  0  0  0  0  0  0  0
    0.1679    6.6288    3.3508 H   0  0  0  0  0  0  0  0  0  0  0  0
   -1.9425    3.0270    5.2862 H   0  0  0  0  0  0  0  0  0  0  0  0
   -0.3545    2.3246    5.7466 H   0  0  0  0  0  0  0  0  0  0  0  0
   -1.2698    3.3094    6.9101 H   0  0  0  0  0  0  0  0  0  0  0  0
   -0.4080    2.3908    3.4366 H   0  0  0  0  0  0  0  0  0  0  0  0
   -0.1471    2.3020    1.0280 H   0  0  0  0  0  0  0  0  0  0  0  0
    2.8323   -2.6675   -4.6222 H   0  0  0  0  0  0  0  0  0  0  0  0
    3.4923   -2.9924   -6.9732 H   0  0  0  0  0  0  0  0  0  0  0  0
    2.1784   -0.7880  -11.4045 H   0  0  0  0  0  0  0  0  0  0  0  0
    0.7881   -0.8646  -10.3005 H   0  0  0  0  0  0  0  0  0  0  0  0
    2.0291    0.4181  -10.1054 H   0  0  0  0  0  0  0  0  0  0  0  0
    0.8266    0.1400   -8.1504 H   0  0  0  0  0  0  0  0  0  0  0  0
    0.1785    0.4601   -5.8205 H   0  0  0  0  0  0  0  0  0  0  0  0
    1.4884   -0.6305   -1.0815 H   0  0  0  0  0  0  0  0  0  0  0  0
    1.3366   -2.4189    0.5213 H   0  0  0  0  0  0  0  0  0  0  0  0
    1.2498   -5.4960    2.4405 H   0  0  0  0  0  0  0  0  0  0  0  0
    0.5936   -3.8814    2.0666 H   0  0  0  0  0  0  0  0  0  0  0  0
    2.2995   -4.2823    1.6704 H   0  0  0  0  0  0  0  0  0  0  0  0
    0.4161   -5.1692   -2.6260 H   0  0  0  0  0  0  0  0  0  0  0  0
    0.4412   -3.3295   -4.2374 H   0  0  0  0  0  0  0  0  0  0  0  0
    4.5245    0.0819   -3.0231 H   0  0  0  0  0  0  0  0  0  0  0  0
    3.0231    2.6491   -8.5329 H   0  0  0  0  0  0  0  0  0  0  0  0
    6.6963   -0.8188   -8.1535 H   0  0  0  0  0  0  0  0  0  0  0  0
    5.9295   -0.2297  -11.4362 H   0  0  0  0  0  0  0  0  0  0  0  0
    8.2303    0.9824  -10.8591 H   0  0  0  0  0  0  0  0  0  0  0  0
    7.7343    1.3405  -13.4138 H   0  0  0  0  0  0  0  0  0  0  0  0
    5.8433    3.1930  -13.6379 H   0  0  0  0  0  0  0  0  0  0  0  0
    5.1747    3.9759  -11.2208 H   0  0  0  0  0  0  0  0  0  0  0  0
    6.8383    2.8087   -9.4627 H   0  0  0  0  0  0  0  0  0  0  0  0
    7.7530    3.5860  -10.7747 H   0  0  0  0  0  0  0  0  0  0  0  0
    4.0807    1.5890  -11.6772 H   0  0  0  0  0  0  0  0  0  0  0  0
  1  2  2  0  0  0  0
  2  3  1  0  0  0  0
  3  4  2  0  0  0  0
  3  5  1  0  0  0  0
  5  6  2  0  0  0  0
  6  7  1  0  0  0  0
  7  8  2  0  0  0  0
  8  9  1  0  0  0  0
  9 10  2  0  0  0  0
 10 11  1  0  0  0  0
 11 12  2  0  0  0  0
 12 13  1  0  0  0  0
 13 14  3  0  0  0  0
 12 15  1  0  0  0  0
 15 16  3  0  0  0  0
  8 17  1  0  0  0  0
 17 18  1  0  0  0  0
 18 19  1  0  0  0  0
 19 20  2  0  0  0  0
 20 21  1  0  0  0  0
 21 22  1  0  0  0  0
 21 23  1  0  0  0  0
  1 24  1  0  0  0  0
 24 25  2  0  0  0  0
 25 26  1  0  0  0  0
 26 27  1  0  0  0  0
 27 28  2  0  0  0  0
 28 29  1  0  0  0  0
 29 30  2  0  0  0  0
 30 31  1  0  0  0  0
 31 32  1  0  0  0  0
 30 33  1  0  0  0  0
 33 34  2  0  0  0  0
 26 35  1  0  0  0  0
 35 36  2  0  0  0  0
 36 37  1  0  0  0  0
 37 38  2  0  0  0  0
 38 39  1  0  0  0  0
 39 40  1  0  0  0  0
 38 41  1  0  0  0  0
 41 42  2  0  0  0  0
 25 43  1  0  0  0  0
 43 44  1  0  0  0  0
 44 45  1  0  0  0  0
 45 46  2  0  0  0  0
 46 47  1  0  0  0  0
 47 48  1  0  0  0  0
 48 49  2  0  0  0  0
 49 50  1  0  0  0  0
 50 51  2  0  0  0  0
 51 52  1  0  0  0  0
 52 53  1  0  0  0  0
 51 54  1  0  0  0  0
 54 55  2  0  0  0  0
 47 56  1  0  0  0  0
 56 57  2  0  0  0  0
 57 58  1  0  0  0  0
 58 59  2  0  0  0  0
 59 60  1  0  0  0  0
 60 61  1  0  0  0  0
 59 62  1  0  0  0  0
 62 63  2  0  0  0  0
 46 64  1  0  0  0  0
 64 65  1  0  0  0  0
 45 66  1  0  0  0  0
 66 67  2  0  0  0  0
 67 68  1  0  0  0  0
 68 69  2  0  0  0  0
 69 70  1  0  0  0  0
 70 71  2  0  0  0  0
 71 72  1  0  0  0  0
 72 73  1  0  0  0  0
 73 74  2  0  0  0  0
 74 75  1  0  0  0  0
 75 76  2  0  0  0  0
 76 77  1  0  0  0  0
 77 78  1  0  0  0  0
 76 79  1  0  0  0  0
 79 80  2  0  0  0  0
 72 81  1  0  0  0  0
 81 82  2  0  0  0  0
 82 83  1  0  0  0  0
 83 84  2  0  0  0  0
 84 85  1  0  0  0  0
 85 86  1  0  0  0  0
 84 87  1  0  0  0  0
 87 88  2  0  0  0  0
 71 89  1  0  0  0  0
 89 90  1  0  0  0  0
 90 91  1  0  0  0  0
 91 92  2  0  0  0  0
 92 93  1  0  0  0  0
 93 94  1  0  0  0  0
 94 95  2  0  0  0  0
 95 96  1  0  0  0  0
 96 97  2  0  0  0  0
 97 98  1  0  0  0  0
 98 99  1  0  0  0  0
 97100  1  0  0  0  0
100101  2  0  0  0  0
 93102  1  0  0  0  0
102103  2  0  0  0  0
103104  1  0  0  0  0
104105  2  0  0  0  0
105106  1  0  0  0  0
106107  1  0  0  0  0
105108  1  0  0  0  0
108109  2  0  0  0  0
 92110  1  0  0  0  0
110111  1  0  0  0  0
 91112  1  0  0  0  0
112113  2  0  0  0  0
113114  1  0  0  0  0
114115  2  0  0  0  0
114116  1  0  0  0  0
116117  2  0  0  0  0
117118  1  0  0  0  0
118119  2  0  0  0  0
119120  1  0  0  0  0
120121  2  0  0  0  0
121122  1  0  0  0  0
122123  2  0  0  0  0
123124  1  0  0  0  0
124125  3  0  0  0  0
123126  1  0  0  0  0
126127  3  0  0  0  0
119128  1  0  0  0  0
128129  1  0  0  0  0
129130  1  0  0  0  0
130131  2  0  0  0  0
131132  1  0  0  0  0
132133  1  0  0  0  0
132134  1  0  0  0  0
 11  2  1  0  0  0  0
 23 17  1  0  0  0  0
 65 24  1  0  0  0  0
111 70  1  0  0  0  0
122113  1  0  0  0  0
134128  1  0  0  0  0
 10  5  1  0  0  0  0
 22 18  1  0  0  0  0
 34 27  1  0  0  0  0
 42 35  1  0  0  0  0
 64 43  2  0  0  0  0
 80 73  1  0  0  0  0
 88 81  1  0  0  0  0
110 89  2  0  0  0  0
121116  1  0  0  0  0
133129  1  0  0  0  0
 23  7  1  0  0  0  0
 55 48  1  0  0  0  0
 63 56  1  0  0  0  0
101 94  1  0  0  0  0
109102  1  0  0  0  0
134118  1  0  0  0  0
  1135  1  0  0  0  0
  6136  1  0  0  0  0
  9137  1  0  0  0  0
 17138  1  0  0  0  0
 18139  1  0  0  0  0
 19140  1  0  0  0  0
 20141  1  0  0  0  0
 21142  1  0  0  0  0
 22143  1  0  0  0  0
 22144  1  0  0  0  0
 23145  1  0  0  0  0
 28146  1  0  0  0  0
 29147  1  0  0  0  0
 32148  1  0  0  0  0
 32149  1  0  0  0  0
 32150  1  0  0  0  0
 33151  1  0  0  0  0
 34152  1  0  0  0  0
 36153  1  0  0  0  0
 37154  1  0  0  0  0
 40155  1  0  0  0  0
 40156  1  0  0  0  0
 40157  1  0  0  0  0
 41158  1  0  0  0  0
 42159  1  0  0  0  0
 49160  1  0  0  0  0
 50161  1  0  0  0  0
 53162  1  0  0  0  0
 53163  1  0  0  0  0
 53164  1  0  0  0  0
 54165  1  0  0  0  0
 55166  1  0  0  0  0
 57167  1  0  0  0  0
 58168  1  0  0  0  0
 61169  1  0  0  0  0
 61170  1  0  0  0  0
 61171  1  0  0  0  0
 62172  1  0  0  0  0
 63173  1  0  0  0  0
 66174  1  0  0  0  0
 67175  1  0  0  0  0
 68176  1  0  0  0  0
 69177  1  0  0  0  0
 74178  1  0  0  0  0
 75179  1  0  0  0  0
 78180  1  0  0  0  0
 78181  1  0  0  0  0
 78182  1  0  0  0  0
 79183  1  0  0  0  0
 80184  1  0  0  0  0
 82185  1  0  0  0  0
 83186  1  0  0  0  0
 86187  1  0  0  0  0
 86188  1  0  0  0  0
 86189  1  0  0  0  0
 87190  1  0  0  0  0
 88191  1  0  0  0  0
 95192  1  0  0  0  0
 96193  1  0  0  0  0
 99194  1  0  0  0  0
 99195  1  0  0  0  0
 99196  1  0  0  0  0
100197  1  0  0  0  0
101198  1  0  0  0  0
103199  1  0  0  0  0
104200  1  0  0  0  0
107201  1  0  0  0  0
107202  1  0  0  0  0
107203  1  0  0  0  0
108204  1  0  0  0  0
109205  1  0  0  0  0
112206  1  0  0  0  0
117207  1  0  0  0  0
120208  1  0  0  0  0
128209  1  0  0  0  0
129210  1  0  0  0  0
130211  1  0  0  0  0
131212  1  0  0  0  0
132213  1  0  0  0  0
133214  1  0  0  0  0
133215  1  0  0  0  0
134216  1  0  0  0  0
M  END
