
  xtb     02122212363D
 energy: -389.330722165549 gnorm: 0.000451791054 xtb: 6.4.1 (unknown)
237261  0     0  0            999 V2000
   -3.1134   -6.1304    3.4002 C   0  0  0  0  0  0  0  0  0  0  0  0
   -2.9875   -6.1369    4.7699 C   0  0  0  0  0  0  0  0  0  0  0  0
   -2.3562   -5.1006    5.5896 C   0  0  0  0  0  0  0  0  0  0  0  0
   -2.0233   -3.9780    5.2492 O   0  0  0  0  0  0  0  0  0  0  0  0
   -2.1850   -5.6863    6.9323 C   0  0  0  0  0  0  0  0  0  0  0  0
   -1.6027   -5.0823    8.0438 C   0  0  0  0  0  0  0  0  0  0  0  0
   -1.5741   -5.8807    9.1624 C   0  0  0  0  0  0  0  0  0  0  0  0
   -2.0823   -7.1856    9.1727 C   0  0  0  0  0  0  0  0  0  0  0  0
   -2.6627   -7.7922    8.0834 C   0  0  0  0  0  0  0  0  0  0  0  0
   -2.7085   -6.9947    6.9363 C   0  0  0  0  0  0  0  0  0  0  0  0
   -3.2717   -7.2727    5.6146 C   0  0  0  0  0  0  0  0  0  0  0  0
   -3.9595   -8.4110    5.2668 C   0  0  0  0  0  0  0  0  0  0  0  0
   -4.6579   -8.5967    4.0588 C   0  0  0  0  0  0  0  0  0  0  0  0
   -5.2869   -8.8075    3.1196 N   0  0  0  0  0  0  0  0  0  0  0  0
   -4.0947   -9.5431    6.0939 C   0  0  0  0  0  0  0  0  0  0  0  0
   -4.2161  -10.5070    6.7070 N   0  0  0  0  0  0  0  0  0  0  0  0
   -1.7318   -7.3972   10.6248 C   0  0  0  0  0  0  0  0  0  0  0  0
   -2.8963   -7.3061   11.6332 C   0  0  0  0  0  0  0  0  0  0  0  0
   -2.2096   -7.0697   12.9590 C   0  0  0  0  0  0  0  0  0  0  0  0
   -1.7306   -5.8323   12.9501 C   0  0  0  0  0  0  0  0  0  0  0  0
   -2.0855   -5.2116   11.6182 C   0  0  0  0  0  0  0  0  0  0  0  0
   -3.4342   -5.8956   11.3596 C   0  0  0  0  0  0  0  0  0  0  0  0
   -1.1673   -5.9404   10.6142 C   0  0  0  0  0  0  0  0  0  0  0  0
   -2.7355   -5.1685    2.4624 C   0  0  0  0  0  0  0  0  0  0  0  0
   -2.6897   -5.4108    1.0635 C   0  0  0  0  0  0  0  0  0  0  0  0
   -2.7515   -6.6611    0.4960 N   0  0  0  0  0  0  0  0  0  0  0  0
   -3.3240   -6.8672   -0.7668 C   0  0  0  0  0  0  0  0  0  0  0  0
   -4.4163   -6.1186   -1.1963 C   0  0  0  0  0  0  0  0  0  0  0  0
   -5.0398   -6.4066   -2.3948 C   0  0  0  0  0  0  0  0  0  0  0  0
   -4.5961   -7.4640   -3.1775 C   0  0  0  0  0  0  0  0  0  0  0  0
   -5.4021   -8.0169   -4.6436 S   0  0  0  0  0  0  0  0  0  0  0  0
   -6.4314   -6.6036   -5.1212 C   0  0  0  0  0  0  0  0  0  0  0  0
   -3.4791   -8.1907   -2.7679 C   0  0  0  0  0  0  0  0  0  0  0  0
   -2.8408   -7.8878   -1.5882 C   0  0  0  0  0  0  0  0  0  0  0  0
   -2.2570   -7.7792    1.2008 C   0  0  0  0  0  0  0  0  0  0  0  0
   -2.9551   -8.9866    1.2024 C   0  0  0  0  0  0  0  0  0  0  0  0
   -2.5280  -10.0298    1.9949 C   0  0  0  0  0  0  0  0  0  0  0  0
   -1.4076   -9.8862    2.8081 C   0  0  0  0  0  0  0  0  0  0  0  0
   -1.0018  -11.2336    3.8743 S   0  0  0  0  0  0  0  0  0  0  0  0
   -0.0729  -10.4204    5.2086 C   0  0  0  0  0  0  0  0  0  0  0  0
   -0.6635   -8.7132    2.7459 C   0  0  0  0  0  0  0  0  0  0  0  0
   -1.0796   -7.6745    1.9394 C   0  0  0  0  0  0  0  0  0  0  0  0
   -2.4752   -4.2150    0.3572 C   0  0  0  0  0  0  0  0  0  0  0  0
   -2.3028   -3.7910   -1.3242 S   0  0  0  0  0  0  0  0  0  0  0  0
   -1.9944   -2.1172   -0.8800 C   0  0  0  0  0  0  0  0  0  0  0  0
   -1.9435   -1.9326    0.4945 C   0  0  0  0  0  0  0  0  0  0  0  0
   -1.5602   -0.7686    1.1549 N   0  0  0  0  0  0  0  0  0  0  0  0
   -2.3269   -0.4136    2.2814 C   0  0  0  0  0  0  0  0  0  0  0  0
   -3.7142   -0.4182    2.1886 C   0  0  0  0  0  0  0  0  0  0  0  0
   -4.4956   -0.0782    3.2755 C   0  0  0  0  0  0  0  0  0  0  0  0
   -3.8931    0.2813    4.4726 C   0  0  0  0  0  0  0  0  0  0  0  0
   -4.7824    0.7570    5.9200 S   0  0  0  0  0  0  0  0  0  0  0  0
   -6.5008    0.8862    5.3502 C   0  0  0  0  0  0  0  0  0  0  0  0
   -2.5028    0.2718    4.5734 C   0  0  0  0  0  0  0  0  0  0  0  0
   -1.7253   -0.0762    3.4924 C   0  0  0  0  0  0  0  0  0  0  0  0
   -0.4437   -0.0253    0.7745 C   0  0  0  0  0  0  0  0  0  0  0  0
   -0.3100    1.3141    1.1563 C   0  0  0  0  0  0  0  0  0  0  0  0
    0.7446    2.0788    0.7060 C   0  0  0  0  0  0  0  0  0  0  0  0
    1.7128    1.5266   -0.1294 C   0  0  0  0  0  0  0  0  0  0  0  0
    3.0030    2.5991   -0.6901 S   0  0  0  0  0  0  0  0  0  0  0  0
    3.9175    1.5829   -1.8869 C   0  0  0  0  0  0  0  0  0  0  0  0
    1.6298    0.1814   -0.4515 C   0  0  0  0  0  0  0  0  0  0  0  0
    0.5679   -0.5828   -0.0058 C   0  0  0  0  0  0  0  0  0  0  0  0
   -2.2733   -3.1175    1.1866 C   0  0  0  0  0  0  0  0  0  0  0  0
   -2.3430   -3.4974    2.8646 S   0  0  0  0  0  0  0  0  0  0  0  0
   -1.7823   -1.0305   -1.7875 C   0  0  0  0  0  0  0  0  0  0  0  0
   -0.7816   -0.8517   -2.7284 C   0  0  0  0  0  0  0  0  0  0  0  0
   -0.0723   -1.8907   -3.3085 N   0  0  0  0  0  0  0  0  0  0  0  0
   -0.7529   -2.9384   -3.9373 C   0  0  0  0  0  0  0  0  0  0  0  0
   -0.0504   -4.0800   -4.3173 C   0  0  0  0  0  0  0  0  0  0  0  0
   -0.6822   -5.1126   -4.9808 C   0  0  0  0  0  0  0  0  0  0  0  0
   -2.0355   -5.0274   -5.2754 C   0  0  0  0  0  0  0  0  0  0  0  0
   -2.9296   -6.2533   -6.1748 S   0  0  0  0  0  0  0  0  0  0  0  0
   -1.8791   -7.7250   -6.0537 C   0  0  0  0  0  0  0  0  0  0  0  0
   -2.7437   -3.8929   -4.8928 C   0  0  0  0  0  0  0  0  0  0  0  0
   -2.1148   -2.8602   -4.2363 C   0  0  0  0  0  0  0  0  0  0  0  0
    1.2705   -1.6356   -3.7193 C   0  0  0  0  0  0  0  0  0  0  0  0
    1.5391   -1.0615   -4.9554 C   0  0  0  0  0  0  0  0  0  0  0  0
    2.8342   -0.7301   -5.3122 C   0  0  0  0  0  0  0  0  0  0  0  0
    3.8812   -0.9963   -4.4394 C   0  0  0  0  0  0  0  0  0  0  0  0
    5.5594   -0.5549   -4.7380 S   0  0  0  0  0  0  0  0  0  0  0  0
    5.5469    0.1997   -6.3866 C   0  0  0  0  0  0  0  0  0  0  0  0
    3.6193   -1.6501   -3.2348 C   0  0  0  0  0  0  0  0  0  0  0  0
    2.3256   -1.9638   -2.8757 C   0  0  0  0  0  0  0  0  0  0  0  0
   -0.5956    0.5288   -2.9848 C   0  0  0  0  0  0  0  0  0  0  0  0
    0.6611    1.4395   -3.7283 S   0  0  0  0  0  0  0  0  0  0  0  0
   -0.1068    2.9559   -3.2615 C   0  0  0  0  0  0  0  0  0  0  0  0
   -1.3364    2.7418   -2.6500 C   0  0  0  0  0  0  0  0  0  0  0  0
   -2.2629    3.7363   -2.3998 N   0  0  0  0  0  0  0  0  0  0  0  0
   -2.3719    4.8360   -3.2653 C   0  0  0  0  0  0  0  0  0  0  0  0
   -2.1619    4.7051   -4.6379 C   0  0  0  0  0  0  0  0  0  0  0  0
   -2.2763    5.7983   -5.4655 C   0  0  0  0  0  0  0  0  0  0  0  0
   -2.6026    7.0510   -4.9477 C   0  0  0  0  0  0  0  0  0  0  0  0
   -2.7120    8.3726   -6.1118 S   0  0  0  0  0  0  0  0  0  0  0  0
   -3.0680    9.8298   -5.0909 C   0  0  0  0  0  0  0  0  0  0  0  0
   -2.8262    7.1840   -3.5845 C   0  0  0  0  0  0  0  0  0  0  0  0
   -2.7099    6.0860   -2.7544 C   0  0  0  0  0  0  0  0  0  0  0  0
   -3.2022    3.5767   -1.3687 C   0  0  0  0  0  0  0  0  0  0  0  0
   -2.7847    3.1358   -0.1147 C   0  0  0  0  0  0  0  0  0  0  0  0
   -3.7010    2.9393    0.8944 C   0  0  0  0  0  0  0  0  0  0  0  0
   -5.0522    3.1918    0.6733 C   0  0  0  0  0  0  0  0  0  0  0  0
   -6.1381    2.8836    2.0299 S   0  0  0  0  0  0  0  0  0  0  0  0
   -7.7531    3.4825    1.4521 C   0  0  0  0  0  0  0  0  0  0  0  0
   -5.4699    3.6562   -0.5670 C   0  0  0  0  0  0  0  0  0  0  0  0
   -4.5508    3.8458   -1.5806 C   0  0  0  0  0  0  0  0  0  0  0  0
   -1.5484    1.3603   -2.4137 C   0  0  0  0  0  0  0  0  0  0  0  0
   -2.6627    0.4591   -1.4519 S   0  0  0  0  0  0  0  0  0  0  0  0
    0.7446    4.1134   -3.1921 C   0  0  0  0  0  0  0  0  0  0  0  0
    0.5970    5.0500   -2.1517 C   0  0  0  0  0  0  0  0  0  0  0  0
    1.6309    5.8589   -1.7522 C   0  0  0  0  0  0  0  0  0  0  0  0
    2.9188    5.7289   -2.2964 C   0  0  0  0  0  0  0  0  0  0  0  0
    3.0518    4.8761   -3.4013 C   0  0  0  0  0  0  0  0  0  0  0  0
    4.2112    4.4089   -4.1408 C   0  0  0  0  0  0  0  0  0  0  0  0
    5.4868    4.4527   -3.6829 C   0  0  0  0  0  0  0  0  0  0  0  0
    6.7001    3.9227   -4.2281 C   0  0  0  0  0  0  0  0  0  0  0  0
    7.8692    3.7870   -3.4117 C   0  0  0  0  0  0  0  0  0  0  0  0
    8.9211    3.2635   -4.0754 C   0  0  0  0  0  0  0  0  0  0  0  0
    8.5390    2.9359   -5.7261 S   0  0  0  0  0  0  0  0  0  0  0  0
    6.9447    3.5006   -5.5136 C   0  0  0  0  0  0  0  0  0  0  0  0
    3.6596    3.6426   -5.2863 C   0  0  0  0  0  0  0  0  0  0  0  0
    4.2255    3.1586   -6.2510 O   0  0  0  0  0  0  0  0  0  0  0  0
    2.3067    3.5101   -5.0710 N   0  0  0  0  0  0  0  0  0  0  0  0
    1.4278    3.2560   -6.1935 C   0  0  0  0  0  0  0  0  0  0  0  0
    1.0008    4.5662   -6.8497 C   0  0  0  0  0  0  0  0  0  0  0  0
    1.9414    4.1907   -3.9126 C   0  0  0  0  0  0  0  0  0  0  0  0
    4.0293    6.4874   -1.7928 C   0  0  0  0  0  0  0  0  0  0  0  0
    4.3023    6.7667   -0.4920 C   0  0  0  0  0  0  0  0  0  0  0  0
    3.6699    6.1306    0.6992 C   0  0  0  0  0  0  0  0  0  0  0  0
    2.6630    5.4609    0.7563 O   0  0  0  0  0  0  0  0  0  0  0  0
    4.5485    6.4684    1.8361 C   0  0  0  0  0  0  0  0  0  0  0  0
    4.3991    6.0386    3.1529 C   0  0  0  0  0  0  0  0  0  0  0  0
    5.3551    6.5234    4.0119 C   0  0  0  0  0  0  0  0  0  0  0  0
    6.3949    7.3644    3.5907 C   0  0  0  0  0  0  0  0  0  0  0  0
    6.5580    7.7906    2.2949 C   0  0  0  0  0  0  0  0  0  0  0  0
    5.5862    7.3190    1.4060 C   0  0  0  0  0  0  0  0  0  0  0  0
    5.4252    7.5639   -0.0222 C   0  0  0  0  0  0  0  0  0  0  0  0
    6.1668    8.4380   -0.7731 C   0  0  0  0  0  0  0  0  0  0  0  0
    5.9576    8.7177   -2.1405 C   0  0  0  0  0  0  0  0  0  0  0  0
    5.8488    9.0137   -3.2450 N   0  0  0  0  0  0  0  0  0  0  0  0
    7.2331    9.2151   -0.2742 C   0  0  0  0  0  0  0  0  0  0  0  0
    8.1110    9.8753    0.0601 N   0  0  0  0  0  0  0  0  0  0  0  0
    6.9797    7.4681    4.9768 C   0  0  0  0  0  0  0  0  0  0  0  0
    6.7183    8.7716    5.7711 C   0  0  0  0  0  0  0  0  0  0  0  0
    5.4277    9.3449    5.2404 C   0  0  0  0  0  0  0  0  0  0  0  0
    4.4399    8.5542    5.6382 C   0  0  0  0  0  0  0  0  0  0  0  0
    5.0446    7.4324    6.4458 C   0  0  0  0  0  0  0  0  0  0  0  0
    6.2233    8.1730    7.0975 C   0  0  0  0  0  0  0  0  0  0  0  0
    5.8185    6.5363    5.4469 C   0  0  0  0  0  0  0  0  0  0  0  0
   -3.5312   -7.0299    2.9681 H   0  0  0  0  0  0  0  0  0  0  0  0
   -1.2219   -4.0744    7.9897 H   0  0  0  0  0  0  0  0  0  0  0  0
   -3.0496   -8.7972    8.1090 H   0  0  0  0  0  0  0  0  0  0  0  0
   -1.0496   -8.2189   10.8351 H   0  0  0  0  0  0  0  0  0  0  0  0
   -3.6031   -8.1301   11.5875 H   0  0  0  0  0  0  0  0  0  0  0  0
   -2.0981   -7.8204   13.7192 H   0  0  0  0  0  0  0  0  0  0  0  0
   -1.1391   -5.3429   13.7018 H   0  0  0  0  0  0  0  0  0  0  0  0
   -2.0546   -4.1269   11.5597 H   0  0  0  0  0  0  0  0  0  0  0  0
   -3.8170   -5.7543   10.3507 H   0  0  0  0  0  0  0  0  0  0  0  0
   -4.1922   -5.5969   12.0818 H   0  0  0  0  0  0  0  0  0  0  0  0
   -0.1087   -5.7904   10.8195 H   0  0  0  0  0  0  0  0  0  0  0  0
   -4.8072   -5.3313   -0.5695 H   0  0  0  0  0  0  0  0  0  0  0  0
   -5.8955   -5.8206   -2.6889 H   0  0  0  0  0  0  0  0  0  0  0  0
   -7.2611   -6.4871   -4.4300 H   0  0  0  0  0  0  0  0  0  0  0  0
   -6.8075   -6.8353   -6.1125 H   0  0  0  0  0  0  0  0  0  0  0  0
   -5.8121   -5.7131   -5.1608 H   0  0  0  0  0  0  0  0  0  0  0  0
   -3.1315   -9.0076   -3.3815 H   0  0  0  0  0  0  0  0  0  0  0  0
   -1.9747   -8.4553   -1.2820 H   0  0  0  0  0  0  0  0  0  0  0  0
   -3.8574   -9.0882    0.6206 H   0  0  0  0  0  0  0  0  0  0  0  0
   -3.0863  -10.9520    2.0239 H   0  0  0  0  0  0  0  0  0  0  0  0
    0.9402  -10.1949    4.8880 H   0  0  0  0  0  0  0  0  0  0  0  0
   -0.0487  -11.1335    6.0264 H   0  0  0  0  0  0  0  0  0  0  0  0
   -0.5959   -9.5201    5.5181 H   0  0  0  0  0  0  0  0  0  0  0  0
    0.2419   -8.6016    3.3211 H   0  0  0  0  0  0  0  0  0  0  0  0
   -0.5045   -6.7610    1.9039 H   0  0  0  0  0  0  0  0  0  0  0  0
   -4.1824   -0.6811    1.2509 H   0  0  0  0  0  0  0  0  0  0  0  0
   -5.5676   -0.0869    3.1698 H   0  0  0  0  0  0  0  0  0  0  0  0
   -6.8831   -0.0966    5.0894 H   0  0  0  0  0  0  0  0  0  0  0  0
   -6.5528    1.5698    4.5079 H   0  0  0  0  0  0  0  0  0  0  0  0
   -7.0586    1.2860    6.1913 H   0  0  0  0  0  0  0  0  0  0  0  0
   -2.0439    0.5338    5.5142 H   0  0  0  0  0  0  0  0  0  0  0  0
   -0.6494   -0.0929    3.5776 H   0  0  0  0  0  0  0  0  0  0  0  0
   -1.0467    1.7522    1.8114 H   0  0  0  0  0  0  0  0  0  0  0  0
    0.8340    3.1175    0.9875 H   0  0  0  0  0  0  0  0  0  0  0  0
    3.2485    1.2394   -2.6708 H   0  0  0  0  0  0  0  0  0  0  0  0
    4.3971    0.7465   -1.3878 H   0  0  0  0  0  0  0  0  0  0  0  0
    4.6745    2.2344   -2.3125 H   0  0  0  0  0  0  0  0  0  0  0  0
    2.3884   -0.2849   -1.0567 H   0  0  0  0  0  0  0  0  0  0  0  0
    0.5303   -1.6321   -0.2578 H   0  0  0  0  0  0  0  0  0  0  0  0
    1.0054   -4.1524   -4.1032 H   0  0  0  0  0  0  0  0  0  0  0  0
   -0.1041   -5.9749   -5.2727 H   0  0  0  0  0  0  0  0  0  0  0  0
   -1.0232   -7.6341   -6.7169 H   0  0  0  0  0  0  0  0  0  0  0  0
   -1.5691   -7.8577   -5.0218 H   0  0  0  0  0  0  0  0  0  0  0  0
   -2.5036   -8.5564   -6.3657 H   0  0  0  0  0  0  0  0  0  0  0  0
   -3.7933   -3.8197   -5.1334 H   0  0  0  0  0  0  0  0  0  0  0  0
   -2.6803   -1.9804   -3.9707 H   0  0  0  0  0  0  0  0  0  0  0  0
    0.7256   -0.8580   -5.6364 H   0  0  0  0  0  0  0  0  0  0  0  0
    3.0113   -0.2510   -6.2609 H   0  0  0  0  0  0  0  0  0  0  0  0
    5.1599   -0.5096   -7.1121 H   0  0  0  0  0  0  0  0  0  0  0  0
    4.9725    1.1223   -6.3752 H   0  0  0  0  0  0  0  0  0  0  0  0
    6.5870    0.4198   -6.6081 H   0  0  0  0  0  0  0  0  0  0  0  0
    4.4448   -1.8946   -2.5832 H   0  0  0  0  0  0  0  0  0  0  0  0
    2.1234   -2.4694   -1.9434 H   0  0  0  0  0  0  0  0  0  0  0  0
   -1.9225    3.7392   -5.0559 H   0  0  0  0  0  0  0  0  0  0  0  0
   -2.1256    5.6963   -6.5293 H   0  0  0  0  0  0  0  0  0  0  0  0
   -2.2692    9.9816   -4.3709 H   0  0  0  0  0  0  0  0  0  0  0  0
   -4.0298    9.7156   -4.5991 H   0  0  0  0  0  0  0  0  0  0  0  0
   -3.1056   10.6666   -5.7814 H   0  0  0  0  0  0  0  0  0  0  0  0
   -3.0870    8.1361   -3.1518 H   0  0  0  0  0  0  0  0  0  0  0  0
   -2.8853    6.1979   -1.6943 H   0  0  0  0  0  0  0  0  0  0  0  0
   -1.7349    2.9566    0.0526 H   0  0  0  0  0  0  0  0  0  0  0  0
   -3.3853    2.5900    1.8658 H   0  0  0  0  0  0  0  0  0  0  0  0
   -8.4273    3.3721    2.2960 H   0  0  0  0  0  0  0  0  0  0  0  0
   -7.6801    4.5298    1.1744 H   0  0  0  0  0  0  0  0  0  0  0  0
   -8.1020    2.8756    0.6216 H   0  0  0  0  0  0  0  0  0  0  0  0
   -6.5095    3.8625   -0.7649 H   0  0  0  0  0  0  0  0  0  0  0  0
   -4.8822    4.1963   -2.5471 H   0  0  0  0  0  0  0  0  0  0  0  0
   -0.3280    5.0842   -1.6015 H   0  0  0  0  0  0  0  0  0  0  0  0
    1.4626    6.5817   -0.9718 H   0  0  0  0  0  0  0  0  0  0  0  0
    5.6213    4.9019   -2.7043 H   0  0  0  0  0  0  0  0  0  0  0  0
    7.8949    4.0626   -2.3720 H   0  0  0  0  0  0  0  0  0  0  0  0
    9.9051    3.0486   -3.7096 H   0  0  0  0  0  0  0  0  0  0  0  0
    6.2641    3.5012   -6.3399 H   0  0  0  0  0  0  0  0  0  0  0  0
    0.5517    2.6945   -5.8714 H   0  0  0  0  0  0  0  0  0  0  0  0
    1.9993    2.6479   -6.8988 H   0  0  0  0  0  0  0  0  0  0  0  0
    0.3472    4.3621   -7.6934 H   0  0  0  0  0  0  0  0  0  0  0  0
    0.4687    5.1923   -6.1358 H   0  0  0  0  0  0  0  0  0  0  0  0
    1.8723    5.1093   -7.2086 H   0  0  0  0  0  0  0  0  0  0  0  0
    4.7187    6.8475   -2.5480 H   0  0  0  0  0  0  0  0  0  0  0  0
    3.5875    5.3846    3.4309 H   0  0  0  0  0  0  0  0  0  0  0  0
    7.3668    8.4312    1.9852 H   0  0  0  0  0  0  0  0  0  0  0  0
    8.0004    7.1090    5.0925 H   0  0  0  0  0  0  0  0  0  0  0  0
    7.5644    9.4521    5.8127 H   0  0  0  0  0  0  0  0  0  0  0  0
    5.3739   10.2071    4.6017 H   0  0  0  0  0  0  0  0  0  0  0  0
    3.3950    8.6233    5.3981 H   0  0  0  0  0  0  0  0  0  0  0  0
    4.3664    6.8942    7.1028 H   0  0  0  0  0  0  0  0  0  0  0  0
    6.9455    7.5087    7.5702 H   0  0  0  0  0  0  0  0  0  0  0  0
    5.9021    8.9328    7.8084 H   0  0  0  0  0  0  0  0  0  0  0  0
    6.0798    5.5699    5.8737 H   0  0  0  0  0  0  0  0  0  0  0  0
  1  2  2  0  0  0  0
  2  3  1  0  0  0  0
  3  4  2  0  0  0  0
  3  5  1  0  0  0  0
  5  6  2  0  0  0  0
  6  7  1  0  0  0  0
  7  8  2  0  0  0  0
  8  9  1  0  0  0  0
  9 10  2  0  0  0  0
 10 11  1  0  0  0  0
 11 12  2  0  0  0  0
 12 13  1  0  0  0  0
 13 14  3  0  0  0  0
 12 15  1  0  0  0  0
 15 16  3  0  0  0  0
  8 17  1  0  0  0  0
 17 18  1  0  0  0  0
 18 19  1  0  0  0  0
 19 20  2  0  0  0  0
 20 21  1  0  0  0  0
 21 22  1  0  0  0  0
 21 23  1  0  0  0  0
  1 24  1  0  0  0  0
 24 25  2  0  0  0  0
 25 26  1  0  0  0  0
 26 27  1  0  0  0  0
 27 28  2  0  0  0  0
 28 29  1  0  0  0  0
 29 30  2  0  0  0  0
 30 31  1  0  0  0  0
 31 32  1  0  0  0  0
 30 33  1  0  0  0  0
 33 34  2  0  0  0  0
 26 35  1  0  0  0  0
 35 36  2  0  0  0  0
 36 37  1  0  0  0  0
 37 38  2  0  0  0  0
 38 39  1  0  0  0  0
 39 40  1  0  0  0  0
 38 41  1  0  0  0  0
 41 42  2  0  0  0  0
 25 43  1  0  0  0  0
 43 44  1  0  0  0  0
 44 45  1  0  0  0  0
 45 46  2  0  0  0  0
 46 47  1  0  0  0  0
 47 48  1  0  0  0  0
 48 49  2  0  0  0  0
 49 50  1  0  0  0  0
 50 51  2  0  0  0  0
 51 52  1  0  0  0  0
 52 53  1  0  0  0  0
 51 54  1  0  0  0  0
 54 55  2  0  0  0  0
 47 56  1  0  0  0  0
 56 57  2  0  0  0  0
 57 58  1  0  0  0  0
 58 59  2  0  0  0  0
 59 60  1  0  0  0  0
 60 61  1  0  0  0  0
 59 62  1  0  0  0  0
 62 63  2  0  0  0  0
 46 64  1  0  0  0  0
 64 65  1  0  0  0  0
 45 66  1  0  0  0  0
 66 67  2  0  0  0  0
 67 68  1  0  0  0  0
 68 69  1  0  0  0  0
 69 70  2  0  0  0  0
 70 71  1  0  0  0  0
 71 72  2  0  0  0  0
 72 73  1  0  0  0  0
 73 74  1  0  0  0  0
 72 75  1  0  0  0  0
 75 76  2  0  0  0  0
 68 77  1  0  0  0  0
 77 78  2  0  0  0  0
 78 79  1  0  0  0  0
 79 80  2  0  0  0  0
 80 81  1  0  0  0  0
 81 82  1  0  0  0  0
 80 83  1  0  0  0  0
 83 84  2  0  0  0  0
 67 85  1  0  0  0  0
 85 86  1  0  0  0  0
 86 87  1  0  0  0  0
 87 88  2  0  0  0  0
 88 89  1  0  0  0  0
 89 90  1  0  0  0  0
 90 91  2  0  0  0  0
 91 92  1  0  0  0  0
 92 93  2  0  0  0  0
 93 94  1  0  0  0  0
 94 95  1  0  0  0  0
 93 96  1  0  0  0  0
 96 97  2  0  0  0  0
 89 98  1  0  0  0  0
 98 99  2  0  0  0  0
 99100  1  0  0  0  0
100101  2  0  0  0  0
101102  1  0  0  0  0
102103  1  0  0  0  0
101104  1  0  0  0  0
104105  2  0  0  0  0
 88106  1  0  0  0  0
106107  1  0  0  0  0
 87108  1  0  0  0  0
108109  2  0  0  0  0
109110  1  0  0  0  0
110111  2  0  0  0  0
111112  1  0  0  0  0
112113  1  0  0  0  0
113114  2  0  0  0  0
114115  1  0  0  0  0
115116  1  0  0  0  0
116117  2  0  0  0  0
117118  1  0  0  0  0
118119  1  0  0  0  0
113120  1  0  0  0  0
120121  2  0  0  0  0
120122  1  0  0  0  0
122123  1  0  0  0  0
123124  1  0  0  0  0
122125  1  0  0  0  0
111126  1  0  0  0  0
126127  2  0  0  0  0
127128  1  0  0  0  0
128129  2  0  0  0  0
128130  1  0  0  0  0
130131  2  0  0  0  0
131132  1  0  0  0  0
132133  2  0  0  0  0
133134  1  0  0  0  0
134135  2  0  0  0  0
135136  1  0  0  0  0
136137  2  0  0  0  0
137138  1  0  0  0  0
138139  3  0  0  0  0
137140  1  0  0  0  0
140141  3  0  0  0  0
133142  1  0  0  0  0
142143  1  0  0  0  0
143144  1  0  0  0  0
144145  2  0  0  0  0
145146  1  0  0  0  0
146147  1  0  0  0  0
146148  1  0  0  0  0
 11  2  1  0  0  0  0
 23 17  1  0  0  0  0
 65 24  1  0  0  0  0
107 66  1  0  0  0  0
125108  1  0  0  0  0
136127  1  0  0  0  0
148142  1  0  0  0  0
 10  5  1  0  0  0  0
 22 18  1  0  0  0  0
 34 27  1  0  0  0  0
 42 35  1  0  0  0  0
 64 43  2  0  0  0  0
 76 69  1  0  0  0  0
 84 77  1  0  0  0  0
106 85  2  0  0  0  0
125112  2  0  0  0  0
135130  1  0  0  0  0
147143  1  0  0  0  0
 23  7  1  0  0  0  0
 55 48  1  0  0  0  0
 63 56  1  0  0  0  0
 97 90  1  0  0  0  0
105 98  1  0  0  0  0
119115  2  0  0  0  0
148132  1  0  0  0  0
  1149  1  0  0  0  0
  6150  1  0  0  0  0
  9151  1  0  0  0  0
 17152  1  0  0  0  0
 18153  1  0  0  0  0
 19154  1  0  0  0  0
 20155  1  0  0  0  0
 21156  1  0  0  0  0
 22157  1  0  0  0  0
 22158  1  0  0  0  0
 23159  1  0  0  0  0
 28160  1  0  0  0  0
 29161  1  0  0  0  0
 32162  1  0  0  0  0
 32163  1  0  0  0  0
 32164  1  0  0  0  0
 33165  1  0  0  0  0
 34166  1  0  0  0  0
 36167  1  0  0  0  0
 37168  1  0  0  0  0
 40169  1  0  0  0  0
 40170  1  0  0  0  0
 40171  1  0  0  0  0
 41172  1  0  0  0  0
 42173  1  0  0  0  0
 49174  1  0  0  0  0
 50175  1  0  0  0  0
 53176  1  0  0  0  0
 53177  1  0  0  0  0
 53178  1  0  0  0  0
 54179  1  0  0  0  0
 55180  1  0  0  0  0
 57181  1  0  0  0  0
 58182  1  0  0  0  0
 61183  1  0  0  0  0
 61184  1  0  0  0  0
 61185  1  0  0  0  0
 62186  1  0  0  0  0
 63187  1  0  0  0  0
 70188  1  0  0  0  0
 71189  1  0  0  0  0
 74190  1  0  0  0  0
 74191  1  0  0  0  0
 74192  1  0  0  0  0
 75193  1  0  0  0  0
 76194  1  0  0  0  0
 78195  1  0  0  0  0
 79196  1  0  0  0  0
 82197  1  0  0  0  0
 82198  1  0  0  0  0
 82199  1  0  0  0  0
 83200  1  0  0  0  0
 84201  1  0  0  0  0
 91202  1  0  0  0  0
 92203  1  0  0  0  0
 95204  1  0  0  0  0
 95205  1  0  0  0  0
 95206  1  0  0  0  0
 96207  1  0  0  0  0
 97208  1  0  0  0  0
 99209  1  0  0  0  0
100210  1  0  0  0  0
103211  1  0  0  0  0
103212  1  0  0  0  0
103213  1  0  0  0  0
104214  1  0  0  0  0
105215  1  0  0  0  0
109216  1  0  0  0  0
110217  1  0  0  0  0
114218  1  0  0  0  0
116219  1  0  0  0  0
117220  1  0  0  0  0
119221  1  0  0  0  0
123222  1  0  0  0  0
123223  1  0  0  0  0
124224  1  0  0  0  0
124225  1  0  0  0  0
124226  1  0  0  0  0
126227  1  0  0  0  0
131228  1  0  0  0  0
134229  1  0  0  0  0
142230  1  0  0  0  0
143231  1  0  0  0  0
144232  1  0  0  0  0
145233  1  0  0  0  0
146234  1  0  0  0  0
147235  1  0  0  0  0
147236  1  0  0  0  0
148237  1  0  0  0  0
M  END
