
  xtb     02052205393D
 energy: -318.188145987381 gnorm: 0.000224002759 xtb: 6.4.1 (unknown)
183204  0     0  0            999 V2000
    1.1795    2.9897    6.5921 C   0  0  0  0  0  0  0  0  0  0  0  0
   -0.0564    3.3805    6.1787 C   0  0  0  0  0  0  0  0  0  0  0  0
   -0.4309    3.4363    4.7466 C   0  0  0  0  0  0  0  0  0  0  0  0
    0.3024    3.4699    3.7776 O   0  0  0  0  0  0  0  0  0  0  0  0
   -1.8943    3.2558    4.7183 C   0  0  0  0  0  0  0  0  0  0  0  0
   -2.6828    3.0508    3.5883 C   0  0  0  0  0  0  0  0  0  0  0  0
   -3.9961    2.7605    3.8674 C   0  0  0  0  0  0  0  0  0  0  0  0
   -4.4944    2.6850    5.1748 C   0  0  0  0  0  0  0  0  0  0  0  0
   -3.7335    2.9087    6.2985 C   0  0  0  0  0  0  0  0  0  0  0  0
   -2.3912    3.1948    6.0363 C   0  0  0  0  0  0  0  0  0  0  0  0
   -1.2759    3.3811    6.9595 C   0  0  0  0  0  0  0  0  0  0  0  0
   -1.3515    3.5619    8.3138 C   0  0  0  0  0  0  0  0  0  0  0  0
   -2.5558    3.5839    9.0449 C   0  0  0  0  0  0  0  0  0  0  0  0
   -3.5085    3.6070    9.6855 N   0  0  0  0  0  0  0  0  0  0  0  0
   -0.2223    3.7926    9.1287 C   0  0  0  0  0  0  0  0  0  0  0  0
    0.6521    3.9978    9.8433 N   0  0  0  0  0  0  0  0  0  0  0  0
   -5.8684    2.2711    4.7105 C   0  0  0  0  0  0  0  0  0  0  0  0
   -6.2391    0.7710    4.8339 C   0  0  0  0  0  0  0  0  0  0  0  0
   -4.9446   -0.0010    4.7717 C   0  0  0  0  0  0  0  0  0  0  0  0
   -4.4792    0.0845    3.5323 C   0  0  0  0  0  0  0  0  0  0  0  0
   -5.4533    0.9150    2.7337 C   0  0  0  0  0  0  0  0  0  0  0  0
   -6.7721    0.5170    3.4149 C   0  0  0  0  0  0  0  0  0  0  0  0
   -5.3165    2.3682    3.2533 C   0  0  0  0  0  0  0  0  0  0  0  0
    2.2886    2.9182    5.6929 C   0  0  0  0  0  0  0  0  0  0  0  0
    2.9595    1.7020    5.4813 C   0  0  0  0  0  0  0  0  0  0  0  0
    3.7041    1.4639    4.2643 C   0  0  0  0  0  0  0  0  0  0  0  0
    4.1142    0.2020    4.1871 N   0  0  0  0  0  0  0  0  0  0  0  0
    3.6367   -0.6055    5.4952 S   0  0  0  0  0  4  0  0  0  0  0  0
    2.8540    0.5976    6.2225 N   0  0  0  0  0  0  0  0  0  0  0  0
    3.8641    2.4349    3.2367 C   0  0  0  0  0  0  0  0  0  0  0  0
    3.5511    3.7426    3.6788 C   0  0  0  0  0  0  0  0  0  0  0  0
    3.8952    4.8926    3.1076 N   0  0  0  0  0  0  0  0  0  0  0  0
    3.2003    6.1063    3.9072 S   0  0  0  0  0  0  0  0  0  0  0  0
    2.4339    5.2479    5.0257 N   0  0  0  0  0  0  0  0  0  0  0  0
    2.6979    3.9584    4.8387 C   0  0  0  0  0  0  0  0  0  0  0  0
    4.0887    1.9916    1.9069 C   0  0  0  0  0  0  0  0  0  0  0  0
    4.1603    2.6289    0.6551 C   0  0  0  0  0  0  0  0  0  0  0  0
    4.2186    3.9798    0.3321 N   0  0  0  0  0  0  0  0  0  0  0  0
    3.2319    4.8769    0.7090 C   0  0  0  0  0  0  0  0  0  0  0  0
    1.9603    4.4301    1.0903 C   0  0  0  0  0  0  0  0  0  0  0  0
    1.0051    5.3285    1.4989 C   0  0  0  0  0  0  0  0  0  0  0  0
    1.2869    6.6947    1.5379 C   0  0  0  0  0  0  0  0  0  0  0  0
    0.0050    7.7481    2.1246 S   0  0  0  0  0  0  0  0  0  0  0  0
    0.8517    9.3294    2.4108 C   0  0  0  0  0  0  0  0  0  0  0  0
    2.5261    7.1506    1.0901 C   0  0  0  0  0  0  0  0  0  0  0  0
    3.4829    6.2529    0.6745 C   0  0  0  0  0  0  0  0  0  0  0  0
    5.1141    4.2947   -0.7048 C   0  0  0  0  0  0  0  0  0  0  0  0
    4.7355    5.0863   -1.7904 C   0  0  0  0  0  0  0  0  0  0  0  0
    5.6293    5.3413   -2.8047 C   0  0  0  0  0  0  0  0  0  0  0  0
    6.9172    4.8068   -2.7687 C   0  0  0  0  0  0  0  0  0  0  0  0
    7.9681    5.2043   -4.1258 S   0  0  0  0  0  0  0  0  0  0  0  0
    9.4485    4.1923   -3.8445 C   0  0  0  0  0  0  0  0  0  0  0  0
    7.2962    4.0146   -1.6925 C   0  0  0  0  0  0  0  0  0  0  0  0
    6.4007    3.7632   -0.6727 C   0  0  0  0  0  0  0  0  0  0  0  0
    4.0862    1.6914   -0.4036 C   0  0  0  0  0  0  0  0  0  0  0  0
    3.7985    1.8569   -2.1098 S   0  0  0  0  0  0  0  0  0  0  0  0
    3.2123    0.2194   -2.1903 C   0  0  0  0  0  0  0  0  0  0  0  0
    3.3649   -0.4597   -0.9969 C   0  0  0  0  0  0  0  0  0  0  0  0
    2.8049   -1.7000   -0.6754 N   0  0  0  0  0  0  0  0  0  0  0  0
    3.1641   -2.8646   -1.3490 C   0  0  0  0  0  0  0  0  0  0  0  0
    4.4803   -3.0677   -1.7674 C   0  0  0  0  0  0  0  0  0  0  0  0
    4.8194   -4.2131   -2.4550 C   0  0  0  0  0  0  0  0  0  0  0  0
    3.8575   -5.1790   -2.7407 C   0  0  0  0  0  0  0  0  0  0  0  0
    4.3824   -6.5912   -3.6657 S   0  0  0  0  0  0  0  0  0  0  0  0
    2.8252   -7.4138   -4.1101 C   0  0  0  0  0  0  0  0  0  0  0  0
    2.5540   -4.9955   -2.2998 C   0  0  0  0  0  0  0  0  0  0  0  0
    2.2156   -3.8509   -1.6088 C   0  0  0  0  0  0  0  0  0  0  0  0
    1.8497   -1.6928    0.3461 C   0  0  0  0  0  0  0  0  0  0  0  0
    1.7226   -2.7711    1.2205 C   0  0  0  0  0  0  0  0  0  0  0  0
    0.8213   -2.7195    2.2649 C   0  0  0  0  0  0  0  0  0  0  0  0
    0.0398   -1.5895    2.4566 C   0  0  0  0  0  0  0  0  0  0  0  0
   -1.1249   -1.5359    3.8065 S   0  0  0  0  0  0  0  0  0  0  0  0
   -0.5248   -0.0726    4.7048 C   0  0  0  0  0  0  0  0  0  0  0  0
    0.1388   -0.5230    1.5749 C   0  0  0  0  0  0  0  0  0  0  0  0
    1.0381   -0.5723    0.5333 C   0  0  0  0  0  0  0  0  0  0  0  0
    3.8934    0.3870    0.0038 C   0  0  0  0  0  0  0  0  0  0  0  0
    4.0313    0.2278    1.7138 S   0  0  0  0  0  0  0  0  0  0  0  0
    2.2950   -0.2867   -3.2049 C   0  0  0  0  0  0  0  0  0  0  0  0
    0.9883    0.2055   -3.2427 C   0  0  0  0  0  0  0  0  0  0  0  0
    0.5487    1.7007   -2.3770 S   0  0  0  0  0  0  0  0  0  0  0  0
    0.3618    2.8465   -3.7940 C   0  0  0  0  0  0  0  0  0  0  0  0
    1.6722    3.1339   -4.4961 C   0  0  0  0  0  0  0  0  0  0  0  0
   -0.0307   -0.5291   -3.8491 C   0  0  0  0  0  0  0  0  0  0  0  0
   -1.6463    0.1680   -3.7772 S   0  0  0  0  0  0  0  0  0  0  0  0
   -2.4822   -0.3706   -5.3262 C   0  0  0  0  0  0  0  0  0  0  0  0
   -3.8887   -0.8524   -5.0330 C   0  0  0  0  0  0  0  0  0  0  0  0
    0.2451   -1.8208   -4.3261 C   0  0  0  0  0  0  0  0  0  0  0  0
    1.5803   -2.2080   -4.4789 C   0  0  0  0  0  0  0  0  0  0  0  0
    2.6197   -1.4089   -3.9793 C   0  0  0  0  0  0  0  0  0  0  0  0
    4.0421   -1.6816   -4.2673 C   0  0  0  0  0  0  0  0  0  0  0  0
    4.9433   -0.9620   -3.8778 O   0  0  0  0  0  0  0  0  0  0  0  0
    4.2592   -2.8296   -5.1514 C   0  0  0  0  0  0  0  0  0  0  0  0
    3.2109   -3.7264   -5.5186 C   0  0  0  0  0  0  0  0  0  0  0  0
    1.8402   -3.5388   -5.0585 C   0  0  0  0  0  0  0  0  0  0  0  0
    0.9646   -4.3846   -5.1550 O   0  0  0  0  0  0  0  0  0  0  0  0
    3.6586   -4.7365   -6.3250 C   0  0  0  0  0  0  0  0  0  0  0  0
    5.3305   -4.6029   -6.6598 S   0  0  0  0  0  0  0  0  0  0  0  0
    5.4574   -3.1942   -5.6945 C   0  0  0  0  0  0  0  0  0  0  0  0
   -0.8274   -2.7888   -4.5534 C   0  0  0  0  0  0  0  0  0  0  0  0
   -1.6049   -3.1857   -3.5219 C   0  0  0  0  0  0  0  0  0  0  0  0
   -1.3306   -2.8147   -2.1043 C   0  0  0  0  0  0  0  0  0  0  0  0
   -0.3925   -2.1717   -1.6829 O   0  0  0  0  0  0  0  0  0  0  0  0
   -2.3916   -3.4424   -1.3099 C   0  0  0  0  0  0  0  0  0  0  0  0
   -2.5657   -3.3315    0.0691 C   0  0  0  0  0  0  0  0  0  0  0  0
   -3.6596   -4.0111    0.5458 C   0  0  0  0  0  0  0  0  0  0  0  0
   -4.5098   -4.7583   -0.2844 C   0  0  0  0  0  0  0  0  0  0  0  0
   -4.3397   -4.8875   -1.6422 C   0  0  0  0  0  0  0  0  0  0  0  0
   -3.2373   -4.1924   -2.1558 C   0  0  0  0  0  0  0  0  0  0  0  0
   -2.7756   -4.0548   -3.5325 C   0  0  0  0  0  0  0  0  0  0  0  0
   -3.3718   -4.5847   -4.6442 C   0  0  0  0  0  0  0  0  0  0  0  0
   -2.9699   -4.3135   -5.9694 C   0  0  0  0  0  0  0  0  0  0  0  0
   -2.7271   -4.0907   -7.0694 N   0  0  0  0  0  0  0  0  0  0  0  0
   -4.5001   -5.4319   -4.6231 C   0  0  0  0  0  0  0  0  0  0  0  0
   -5.4123   -6.1262   -4.6793 N   0  0  0  0  0  0  0  0  0  0  0  0
   -5.4077   -5.1536    0.8617 C   0  0  0  0  0  0  0  0  0  0  0  0
   -6.7456   -4.3917    0.9764 C   0  0  0  0  0  0  0  0  0  0  0  0
   -7.1744   -4.6250    2.4077 C   0  0  0  0  0  0  0  0  0  0  0  0
   -6.3676   -3.9194    3.1902 C   0  0  0  0  0  0  0  0  0  0  0  0
   -5.3801   -3.1974    2.3033 C   0  0  0  0  0  0  0  0  0  0  0  0
   -6.2685   -2.9371    1.0795 C   0  0  0  0  0  0  0  0  0  0  0  0
   -4.4586   -4.3222    1.7841 C   0  0  0  0  0  0  0  0  0  0  0  0
    1.3132    2.5517    7.5737 H   0  0  0  0  0  0  0  0  0  0  0  0
   -2.2599    3.1010    2.5966 H   0  0  0  0  0  0  0  0  0  0  0  0
   -4.1240    2.8387    7.3006 H   0  0  0  0  0  0  0  0  0  0  0  0
   -6.6905    2.9259    4.9919 H   0  0  0  0  0  0  0  0  0  0  0  0
   -6.8985    0.5373    5.6655 H   0  0  0  0  0  0  0  0  0  0  0  0
   -4.4831   -0.4702    5.6209 H   0  0  0  0  0  0  0  0  0  0  0  0
   -3.5487   -0.2904    3.1476 H   0  0  0  0  0  0  0  0  0  0  0  0
   -5.3970    0.8129    1.6528 H   0  0  0  0  0  0  0  0  0  0  0  0
   -7.6107    1.1578    3.1451 H   0  0  0  0  0  0  0  0  0  0  0  0
   -7.0363   -0.5264    3.2473 H   0  0  0  0  0  0  0  0  0  0  0  0
   -5.7712    3.0963    2.5842 H   0  0  0  0  0  0  0  0  0  0  0  0
    1.7341    3.3753    1.0825 H   0  0  0  0  0  0  0  0  0  0  0  0
    0.0365    4.9804    1.8180 H   0  0  0  0  0  0  0  0  0  0  0  0
    1.7213    9.1660    3.0406 H   0  0  0  0  0  0  0  0  0  0  0  0
    0.1325    9.9574    2.9272 H   0  0  0  0  0  0  0  0  0  0  0  0
    1.1263    9.7895    1.4661 H   0  0  0  0  0  0  0  0  0  0  0  0
    2.7561    8.2036    1.0742 H   0  0  0  0  0  0  0  0  0  0  0  0
    4.4536    6.6097    0.3681 H   0  0  0  0  0  0  0  0  0  0  0  0
    3.7326    5.4823   -1.8403 H   0  0  0  0  0  0  0  0  0  0  0  0
    5.3383    5.9473   -3.6490 H   0  0  0  0  0  0  0  0  0  0  0  0
    9.1703    3.1445   -3.7828 H   0  0  0  0  0  0  0  0  0  0  0  0
    9.9625    4.5210   -2.9459 H   0  0  0  0  0  0  0  0  0  0  0  0
   10.0829    4.3562   -4.7101 H   0  0  0  0  0  0  0  0  0  0  0  0
    8.2853    3.5911   -1.6323 H   0  0  0  0  0  0  0  0  0  0  0  0
    6.6994    3.1507    0.1651 H   0  0  0  0  0  0  0  0  0  0  0  0
    5.2293   -2.3192   -1.5570 H   0  0  0  0  0  0  0  0  0  0  0  0
    5.8373   -4.3731   -2.7771 H   0  0  0  0  0  0  0  0  0  0  0  0
    2.3887   -7.8836   -3.2331 H   0  0  0  0  0  0  0  0  0  0  0  0
    2.1415   -6.6953   -4.5530 H   0  0  0  0  0  0  0  0  0  0  0  0
    3.0933   -8.1746   -4.8367 H   0  0  0  0  0  0  0  0  0  0  0  0
    1.7905   -5.7320   -2.4912 H   0  0  0  0  0  0  0  0  0  0  0  0
    1.2013   -3.7004   -1.2783 H   0  0  0  0  0  0  0  0  0  0  0  0
    2.3463   -3.6426    1.0898 H   0  0  0  0  0  0  0  0  0  0  0  0
    0.7276   -3.5517    2.9461 H   0  0  0  0  0  0  0  0  0  0  0  0
   -1.3176    0.2221    5.3857 H   0  0  0  0  0  0  0  0  0  0  0  0
   -0.3172    0.7298    4.0046 H   0  0  0  0  0  0  0  0  0  0  0  0
    0.3712   -0.3300    5.2638 H   0  0  0  0  0  0  0  0  0  0  0  0
   -0.4925    0.3451    1.6952 H   0  0  0  0  0  0  0  0  0  0  0  0
    1.0934    0.2576   -0.1543 H   0  0  0  0  0  0  0  0  0  0  0  0
   -0.3744    2.4149   -4.4706 H   0  0  0  0  0  0  0  0  0  0  0  0
   -0.0523    3.7469   -3.3427 H   0  0  0  0  0  0  0  0  0  0  0  0
    2.1169    2.2178   -4.8811 H   0  0  0  0  0  0  0  0  0  0  0  0
    2.3812    3.5981   -3.8153 H   0  0  0  0  0  0  0  0  0  0  0  0
    1.4961    3.8090   -5.3314 H   0  0  0  0  0  0  0  0  0  0  0  0
   -2.5034    0.5066   -5.9738 H   0  0  0  0  0  0  0  0  0  0  0  0
   -1.8812   -1.1456   -5.7924 H   0  0  0  0  0  0  0  0  0  0  0  0
   -4.4879   -0.0461   -4.6165 H   0  0  0  0  0  0  0  0  0  0  0  0
   -4.3572   -1.1995   -5.9515 H   0  0  0  0  0  0  0  0  0  0  0  0
   -3.8754   -1.6709   -4.3167 H   0  0  0  0  0  0  0  0  0  0  0  0
    3.0809   -5.5319   -6.7532 H   0  0  0  0  0  0  0  0  0  0  0  0
    6.3994   -2.6979   -5.5702 H   0  0  0  0  0  0  0  0  0  0  0  0
   -0.9769   -3.1746   -5.5529 H   0  0  0  0  0  0  0  0  0  0  0  0
   -1.8842   -2.7504    0.6711 H   0  0  0  0  0  0  0  0  0  0  0  0
   -4.9971   -5.4727   -2.2638 H   0  0  0  0  0  0  0  0  0  0  0  0
   -5.5094   -6.2220    1.0403 H   0  0  0  0  0  0  0  0  0  0  0  0
   -7.4716   -4.6291    0.2034 H   0  0  0  0  0  0  0  0  0  0  0  0
   -7.9590   -5.2998    2.6952 H   0  0  0  0  0  0  0  0  0  0  0  0
   -6.3426   -3.8851    4.2634 H   0  0  0  0  0  0  0  0  0  0  0  0
   -4.8603   -2.3506    2.7416 H   0  0  0  0  0  0  0  0  0  0  0  0
   -7.0861   -2.2527    1.3001 H   0  0  0  0  0  0  0  0  0  0  0  0
   -5.7262   -2.5828    0.2048 H   0  0  0  0  0  0  0  0  0  0  0  0
   -3.9200   -4.8296    2.5812 H   0  0  0  0  0  0  0  0  0  0  0  0
  1  2  2  0  0  0  0
  2  3  1  0  0  0  0
  3  4  2  0  0  0  0
  3  5  1  0  0  0  0
  5  6  2  0  0  0  0
  6  7  1  0  0  0  0
  7  8  2  0  0  0  0
  8  9  1  0  0  0  0
  9 10  2  0  0  0  0
 10 11  1  0  0  0  0
 11 12  2  0  0  0  0
 12 13  1  0  0  0  0
 13 14  3  0  0  0  0
 12 15  1  0  0  0  0
 15 16  3  0  0  0  0
  8 17  1  0  0  0  0
 17 18  1  0  0  0  0
 18 19  1  0  0  0  0
 19 20  2  0  0  0  0
 20 21  1  0  0  0  0
 21 22  1  0  0  0  0
 21 23  1  0  0  0  0
  1 24  1  0  0  0  0
 24 25  2  0  0  0  0
 25 26  1  0  0  0  0
 26 27  1  0  0  0  0
 27 28  2  0  0  0  0
 28 29  2  0  0  0  0
 26 30  2  0  0  0  0
 30 31  1  0  0  0  0
 31 32  2  0  0  0  0
 32 33  1  0  0  0  0
 33 34  1  0  0  0  0
 34 35  2  0  0  0  0
 30 36  1  0  0  0  0
 36 37  2  0  0  0  0
 37 38  1  0  0  0  0
 38 39  1  0  0  0  0
 39 40  2  0  0  0  0
 40 41  1  0  0  0  0
 41 42  2  0  0  0  0
 42 43  1  0  0  0  0
 43 44  1  0  0  0  0
 42 45  1  0  0  0  0
 45 46  2  0  0  0  0
 38 47  1  0  0  0  0
 47 48  2  0  0  0  0
 48 49  1  0  0  0  0
 49 50  2  0  0  0  0
 50 51  1  0  0  0  0
 51 52  1  0  0  0  0
 50 53  1  0  0  0  0
 53 54  2  0  0  0  0
 37 55  1  0  0  0  0
 55 56  1  0  0  0  0
 56 57  1  0  0  0  0
 57 58  2  0  0  0  0
 58 59  1  0  0  0  0
 59 60  1  0  0  0  0
 60 61  2  0  0  0  0
 61 62  1  0  0  0  0
 62 63  2  0  0  0  0
 63 64  1  0  0  0  0
 64 65  1  0  0  0  0
 63 66  1  0  0  0  0
 66 67  2  0  0  0  0
 59 68  1  0  0  0  0
 68 69  2  0  0  0  0
 69 70  1  0  0  0  0
 70 71  2  0  0  0  0
 71 72  1  0  0  0  0
 72 73  1  0  0  0  0
 71 74  1  0  0  0  0
 74 75  2  0  0  0  0
 58 76  1  0  0  0  0
 76 77  1  0  0  0  0
 57 78  1  0  0  0  0
 78 79  2  0  0  0  0
 79 80  1  0  0  0  0
 80 81  1  0  0  0  0
 81 82  1  0  0  0  0
 79 83  1  0  0  0  0
 83 84  1  0  0  0  0
 84 85  1  0  0  0  0
 85 86  1  0  0  0  0
 83 87  2  0  0  0  0
 87 88  1  0  0  0  0
 88 89  2  0  0  0  0
 89 90  1  0  0  0  0
 90 91  2  0  0  0  0
 90 92  1  0  0  0  0
 92 93  1  0  0  0  0
 93 94  1  0  0  0  0
 94 95  2  0  0  0  0
 93 96  2  0  0  0  0
 96 97  1  0  0  0  0
 97 98  1  0  0  0  0
 87 99  1  0  0  0  0
 99100  2  0  0  0  0
100101  1  0  0  0  0
101102  2  0  0  0  0
101103  1  0  0  0  0
103104  2  0  0  0  0
104105  1  0  0  0  0
105106  2  0  0  0  0
106107  1  0  0  0  0
107108  2  0  0  0  0
108109  1  0  0  0  0
109110  2  0  0  0  0
110111  1  0  0  0  0
111112  3  0  0  0  0
110113  1  0  0  0  0
113114  3  0  0  0  0
106115  1  0  0  0  0
115116  1  0  0  0  0
116117  1  0  0  0  0
117118  2  0  0  0  0
118119  1  0  0  0  0
119120  1  0  0  0  0
119121  1  0  0  0  0
 11  2  1  0  0  0  0
 23 17  1  0  0  0  0
 35 24  1  0  0  0  0
 77 36  1  0  0  0  0
 89 78  1  0  0  0  0
 98 92  2  0  0  0  0
109100  1  0  0  0  0
121115  1  0  0  0  0
 10  5  1  0  0  0  0
 22 18  1  0  0  0  0
 29 25  1  0  0  0  0
 35 31  1  0  0  0  0
 46 39  1  0  0  0  0
 54 47  1  0  0  0  0
 76 55  2  0  0  0  0
 94 88  1  0  0  0  0
108103  1  0  0  0  0
120116  1  0  0  0  0
 23  7  1  0  0  0  0
 67 60  1  0  0  0  0
 75 68  1  0  0  0  0
121105  1  0  0  0  0
  1122  1  0  0  0  0
  6123  1  0  0  0  0
  9124  1  0  0  0  0
 17125  1  0  0  0  0
 18126  1  0  0  0  0
 19127  1  0  0  0  0
 20128  1  0  0  0  0
 21129  1  0  0  0  0
 22130  1  0  0  0  0
 22131  1  0  0  0  0
 23132  1  0  0  0  0
 40133  1  0  0  0  0
 41134  1  0  0  0  0
 44135  1  0  0  0  0
 44136  1  0  0  0  0
 44137  1  0  0  0  0
 45138  1  0  0  0  0
 46139  1  0  0  0  0
 48140  1  0  0  0  0
 49141  1  0  0  0  0
 52142  1  0  0  0  0
 52143  1  0  0  0  0
 52144  1  0  0  0  0
 53145  1  0  0  0  0
 54146  1  0  0  0  0
 61147  1  0  0  0  0
 62148  1  0  0  0  0
 65149  1  0  0  0  0
 65150  1  0  0  0  0
 65151  1  0  0  0  0
 66152  1  0  0  0  0
 67153  1  0  0  0  0
 69154  1  0  0  0  0
 70155  1  0  0  0  0
 73156  1  0  0  0  0
 73157  1  0  0  0  0
 73158  1  0  0  0  0
 74159  1  0  0  0  0
 75160  1  0  0  0  0
 81161  1  0  0  0  0
 81162  1  0  0  0  0
 82163  1  0  0  0  0
 82164  1  0  0  0  0
 82165  1  0  0  0  0
 85166  1  0  0  0  0
 85167  1  0  0  0  0
 86168  1  0  0  0  0
 86169  1  0  0  0  0
 86170  1  0  0  0  0
 96171  1  0  0  0  0
 98172  1  0  0  0  0
 99173  1  0  0  0  0
104174  1  0  0  0  0
107175  1  0  0  0  0
115176  1  0  0  0  0
116177  1  0  0  0  0
117178  1  0  0  0  0
118179  1  0  0  0  0
119180  1  0  0  0  0
120181  1  0  0  0  0
120182  1  0  0  0  0
121183  1  0  0  0  0
M  END
