220

C         -3.28440       -5.99080       -3.17170
C         -4.54420       -6.46670       -2.89110
C         -5.33650       -6.04820       -1.72400
O         -5.04880       -5.20130       -0.89790
C         -6.49370       -6.96620       -1.67390
C         -7.50050       -6.99210       -0.71420
C         -8.43970       -7.97630       -0.91280
C         -8.37590       -8.87940       -1.98060
C         -7.38030       -8.86940       -2.93060
C         -6.42270       -7.86750       -2.75340
C         -5.23810       -7.54300       -3.54740
C         -4.92920       -8.05850       -4.78180
C         -3.84320       -7.61960       -5.56520
N         -2.98950       -7.29250       -6.26050
C         -5.69900       -9.03130       -5.44680
N         -6.29960       -9.81960       -6.02790
C         -9.62110       -9.61090       -1.54040
C        -10.94220       -9.34140       -2.30210
C        -10.83120       -7.95310       -2.87980
C        -10.88460       -7.08980       -1.87430
C        -11.04140       -7.87940       -0.59850
C        -11.87620       -9.06330       -1.11320
C         -9.69350       -8.59980       -0.35290
C         -2.75460       -4.76070       -2.75740
C         -3.37770       -3.53340       -2.45700
N         -4.70350       -3.23870       -2.64070
C         -5.33460       -2.29560       -1.81670
C         -4.98480       -2.18360       -0.47390
C         -5.58900       -1.24200        0.33430
C         -6.57970       -0.41940       -0.18240
S         -7.39950        0.84030        0.75230
C         -6.89550        0.51790        2.46450
C         -6.96330       -0.55870       -1.51400
C         -6.33580       -1.47300       -2.33000
C         -5.43500       -3.88170       -3.64900
C         -6.72970       -4.33910       -3.41620
C         -7.40970       -5.05400       -4.38560
C         -6.80510       -5.31700       -5.60750
S         -7.53380       -6.27560       -6.89100
C         -8.90230       -7.12350       -6.05510
C         -5.53490       -4.79770       -5.86920
C         -4.85840       -4.09280       -4.90380
C         -2.42000       -2.57560       -2.04890
S         -2.50300       -0.89860       -1.60920
C         -0.75780       -0.83720       -1.42680
C         -0.15880       -2.04590       -1.73560
N          1.21870       -2.24580       -1.74460
C          2.03860       -1.38680       -2.47660
C          1.57520       -0.76250       -3.63670
C          2.41130        0.04630       -4.37290
C          3.72710        0.26190       -3.96770
S          4.71930        1.29070       -5.00860
C          6.19310        1.62980       -3.99960
C          4.18660       -0.33460       -2.80220
C          3.34720       -1.14730       -2.06590
C          1.71740       -3.41170       -1.14920
C          1.16430       -3.86800        0.04390
C          1.60790       -5.03810        0.62850
C          2.62000       -5.77300        0.02720
S          3.26750       -7.28640        0.66530
C          2.38230       -7.51870        2.23060
C          3.18610       -5.31180       -1.16160
C          2.74070       -4.14800       -1.74650
C         -1.10890       -3.02730       -2.08630
S         -0.99240       -4.65480       -2.63470
C         -0.02620        0.24770       -0.83080
C          0.16620        1.56700       -1.19280
N         -0.40560        2.18330       -2.29090
C         -1.77290        2.01060       -2.56580
C         -2.72120        2.14730       -1.55570
C         -4.07020        2.07540       -1.84710
C         -4.48480        1.86900       -3.15560
S         -6.18220        1.86200       -3.63930
C         -6.95000        2.94640       -2.39870
C         -3.53750        1.67480       -4.15860
C         -2.19400        1.74770       -3.86860
C          0.34450        3.07570       -3.06390
C          1.72400        2.92690       -3.17940
C          2.46960        3.79980       -3.94530
C          1.84720        4.82960       -4.63430
S          2.70070        5.97410       -5.67120
C          4.38330        5.29630       -5.75930
C          0.46840        4.99150       -4.51450
C         -0.27280        4.13410       -3.73360
C          1.09850        2.20160       -0.32570
S          1.76530        3.79810       -0.22970
C          2.74370        3.31970        1.13240
C          2.49700        2.02620        1.55150
N          2.99610        1.47760        2.72290
C          3.29580        0.11390        2.76780
C          3.84080       -0.52410        1.65470
C          4.13190       -1.87380        1.68920
C          3.88920       -2.60830        2.84080
S          4.22550       -4.33530        2.97910
C          5.45310       -4.63320        1.67650
C          3.34180       -1.97590        3.95500
C          3.04700       -0.63190        3.92130
C          3.14330        2.28410        3.86360
C          2.19670        3.25830        4.17440
C          2.38120        4.10860        5.24770
C          3.52310        4.00440        6.02960
S          3.88530        5.05970        7.40110
C          2.83940        6.52110        7.13520
C          4.44150        2.99160        5.76400
C          4.25010        2.13760        4.70050
C          1.57980        1.38580        0.68380
S          0.90500       -0.19620        0.60330
C          3.67530        4.21490        1.78800
C          5.01180        3.82770        1.96350
O          5.32700        2.70420        1.27350
C          6.61010        2.09930        1.22860
C          6.95790        1.28550        2.46730
C          5.85600        4.58290        2.81220
O          7.18180        4.24460        2.96370
C          8.11370        5.01850        2.20740
C          8.33690        6.44290        2.69450
C          5.36970        5.64790        3.58470
C          4.05130        6.09780        3.33540
C          3.22790        5.40400        2.38660
N          2.00040        5.91740        2.30860
S          1.89240        7.14440        3.33710
N          3.38050        7.06850        3.95030
C          6.11690        6.09610        4.72000
C          6.05010        7.33720        5.27360
C          5.59270        8.53530        4.53480
O          5.41590        8.63950        3.34270
C          5.61720        9.63830        5.52270
C          5.27420       10.96470        5.33370
Cl         4.53360       11.49060        3.88940
C          5.54540       11.87520        6.36420
Cl         5.09380       13.51570        6.19870
C          6.22810       11.45030        7.50270
Cl         6.65580       12.60060        8.69520
C          6.58910       10.10500        7.68130
Cl         7.59150        9.71020        9.01650
C          6.20610        9.17580        6.71900
C          6.39840        7.73110        6.62340
C          6.64670        6.85560        7.65290
C          6.47220        7.12460        9.02620
N          6.22830        7.21370       10.14430
C          6.99950        5.50030        7.47180
N          7.37740        4.41810        7.39920
H         -2.60320       -6.62850       -3.72260
H         -7.50660       -6.28710        0.10270
H         -7.32650       -9.58750       -3.73290
H         -9.49000      -10.66470       -1.30230
H        -11.23270      -10.12640       -2.99510
H        -10.68220       -7.75450       -3.92470
H        -10.77960       -6.02080       -1.90730
H        -11.42440       -7.33220        0.25910
H        -12.87780       -8.76990       -1.42420
H        -11.93770       -9.88990       -0.40680
H         -9.61580       -8.99660        0.65770
H         -4.25690       -2.86080       -0.05700
H         -5.28530       -1.17150        1.36620
H         -7.13870       -0.50670        2.72970
H         -7.47300        1.20620        3.07400
H         -5.83500        0.71770        2.58820
H         -7.75290        0.06150       -1.90750
H         -6.61970       -1.54890       -3.36850
H         -7.20300       -4.14160       -2.46610
H         -8.40310       -5.41190       -4.16660
H         -9.70720       -6.42260       -5.85010
H         -8.53560       -7.59010       -5.14500
H         -9.24080       -7.88590       -6.74980
H         -5.08540       -4.97140       -6.83440
H         -3.87100       -3.70980       -5.11180
H          0.56050       -0.92800       -3.96610
H          2.05670        0.51850       -5.27610
H          6.76620        2.36620       -4.55470
H          6.78280        0.72570       -3.87850
H          5.89470        2.03840       -3.03800
H          5.19660       -0.17980       -2.45660
H          3.70600       -1.61260       -1.16160
H          0.38160       -3.29560        0.51950
H          1.16060       -5.35940        1.55450
H          2.57840       -6.67760        2.88940
H          2.78740       -8.42910        2.66140
H          1.32000       -7.64160        2.04100
H          3.96910       -5.89100       -1.62780
H          3.17170       -3.81000       -2.67700
H         -2.39600        2.33000       -0.54200
H         -4.79110        2.19280       -1.05400
H         -7.06320        2.43040       -1.44970
H         -7.92770        3.20240       -2.79470
H         -6.34700        3.84220       -2.28900
H         -3.87170        1.48600       -5.16710
H         -1.45720        1.62590       -4.64850
H          2.21930        2.11350       -2.67330
H          3.53440        3.65460       -4.00630
H          4.34730        4.26310       -6.09280
H          4.90570        5.90550       -6.49030
H          4.87090        5.38390       -4.79240
H         -0.01330        5.80310       -5.03780
H         -1.33810        4.28060       -3.64070
H          4.04570        0.05180        0.76420
H          4.55550       -2.34860        0.81820
H          5.81360       -5.64420        1.83790
H          6.26770       -3.92280        1.78160
H          4.98890       -4.56770        0.69640
H          3.14960       -2.55390        4.84560
H          2.62180       -0.14790        4.78740
H          1.31230        3.35950        3.56250
H          1.62790        4.85040        5.46380
H          3.14490        7.23530        7.89440
H          3.02660        6.92480        6.14320
H          1.79280        6.26820        7.27580
H          5.31310        2.89610        6.39340
H          4.96700        1.35660        4.50560
H          7.38930        2.83500        1.01900
H          6.53060        1.43050        0.36420
H          6.19370        0.53190        2.64400
H          7.91060        0.78780        2.30650
H          7.04400        1.93170        3.33600
H          7.79960        5.04330        1.15330
H          9.04290        4.44770        2.28900
H          9.12590        6.89140        2.09540
H          8.64710        6.44540        3.73620
H          7.43890        7.04670        2.58490
H          6.73010        5.33160        5.17850
