208

C          7.53850       -2.87720       -5.47480
C          8.32000       -2.21790       -4.58670
C          7.80680       -1.24210       -3.57940
O          6.66530       -0.85900       -3.43040
C          8.94990       -0.93110       -2.70900
C          8.94390       -0.07360       -1.61020
C         10.15490        0.02240       -0.96980
C         11.28880       -0.69190       -1.38350
C         11.30610       -1.54760       -2.45860
C         10.08460       -1.65440       -3.13240
C          9.72580       -2.45540       -4.29700
C         10.57160       -3.25450       -5.01780
C         10.20590       -4.00150       -6.15860
N          9.99360       -4.63740       -7.09070
C         11.93850       -3.44430       -4.72300
N         13.05440       -3.64580       -4.54370
C         12.14920       -0.11410       -0.28820
C         13.14350        1.01000       -0.67100
C         12.56720        1.69820       -1.88370
C         11.49490        2.37460       -1.49410
C         11.32680        2.15640       -0.01060
C         12.79920        2.04190        0.41500
C         10.88710        0.68230        0.17080
C          6.16740       -2.51730       -5.73230
C          5.74590       -1.20780       -5.90380
F          6.64950       -0.22810       -6.04230
C          4.39800       -0.85650       -5.97350
F          4.12120        0.45000       -6.12770
C          3.38220       -1.79650       -5.82880
C          3.79720       -3.15920       -5.78300
N          2.85940       -4.11280       -5.70770
C          3.20630       -5.37460       -5.66380
C          2.09390       -6.36510       -5.51560
C          1.88430       -6.71590       -4.04020
C          4.58500       -5.73800       -5.72100
N          5.51650       -4.81810       -5.74500
C          5.16450       -3.52200       -5.77100
C          5.02850       -7.16830       -5.77340
C          6.54410       -7.30900       -5.81400
C          2.01070       -1.46850       -5.58320
C          1.45730       -0.22060       -5.47540
C          0.16870       -0.21270       -4.90490
C         -0.58540        0.92380       -4.54040
C         -0.12640        2.28290       -4.68560
C         -0.88030        3.41460       -4.86700
C         -0.14320        4.60460       -4.78600
C          1.18230        4.39360       -4.51140
S          2.37280        5.64350       -4.28430
C          3.90760        4.69260       -3.99740
C          4.50240        4.13780       -5.27600
S          1.53860        2.70650       -4.38990
C         -1.74650        0.66580       -3.82320
C         -2.18160       -0.63300       -3.47150
C         -1.50190       -1.77270       -3.96630
C         -2.01460       -3.10300       -3.75290
C         -1.35210       -4.30070       -3.67450
C         -2.19470       -5.41320       -3.53850
C         -3.52230       -5.07950       -3.52560
S         -4.84500       -6.20650       -3.39250
C         -6.27340       -5.06730       -3.27860
C         -7.53110       -5.85880       -2.98680
S         -3.74450       -3.36540       -3.66830
C         -0.29920       -1.52200       -4.62820
S          0.88530       -2.71880       -5.10610
C         -3.11460       -0.58890       -2.40710
C         -3.35180        0.67730       -1.94460
S         -2.62950        1.89540       -2.96430
C         -3.79080        1.00780       -0.62760
C         -3.24550        1.99750        0.17850
N         -2.37710        3.00970       -0.28240
C         -1.02030        2.73760       -0.45940
C         -0.08720        3.77610       -0.54030
C          1.23440        3.51660       -0.82560
C          1.67720        2.21090       -1.02220
S          3.38730        1.97550       -1.42770
C          3.42350        0.34590       -2.22440
C          0.78020        1.16850       -0.85230
C         -0.54560        1.42870       -0.56350
C         -2.97700        4.20580       -0.71060
C         -4.11100        4.68910       -0.05600
C         -4.72940        5.84300       -0.48350
C         -4.23770        6.54840       -1.57830
S         -5.11070        8.01640       -2.03080
C         -4.15380        8.68180       -3.42270
C         -3.12070        6.06530       -2.24460
C         -2.50350        4.90610       -1.81870
C         -3.61890        1.82390        1.52700
S         -3.28540        2.69530        2.98150
C         -4.20380        1.50650        3.91220
C         -4.81330        0.53340        3.08060
N         -5.63970       -0.48220        3.49050
C         -6.53970       -0.34880        4.56010
C         -7.17920        0.86770        4.80830
C         -7.97970        1.01140        5.91770
C         -8.17940       -0.06000        6.78840
S         -9.14790        0.24430        8.23140
C         -8.63440       -1.08890        9.35250
C         -7.61900       -1.29440        6.49230
C         -6.79630       -1.43480        5.39180
C         -5.61510       -1.68650        2.76170
C         -4.39640       -2.25610        2.40540
C         -4.35160       -3.41260        1.65240
C         -5.53230       -4.02260        1.25100
S         -5.60150       -5.48160        0.26510
C         -3.86340       -5.93540        0.01590
C         -6.75510       -3.46910        1.63090
C         -6.79920       -2.31430        2.37850
C         -4.44690        0.72610        1.73890
S         -4.79290       -0.11480        0.26060
C         -4.24120        1.44610        5.30630
C         -3.79160        2.33550        6.25280
C         -3.22820        3.66350        5.99510
O         -2.93600        4.14920        4.91580
C         -3.09320        4.31600        7.30950
C         -2.61200        5.59720        7.56690
C         -2.59720        5.93040        8.90050
C         -3.03280        5.05570        9.90410
C         -3.51260        3.78960        9.66290
C         -3.53280        3.42900        8.31290
C         -3.93810        2.17490        7.67980
C         -4.35730        1.04830        8.34610
C         -4.58930       -0.21010        7.76140
N         -4.75450       -1.28530        7.38650
C         -4.58710        0.97150        9.73400
N         -4.82990        0.82610       10.84760
C         -2.72620        6.03910       11.00630
C         -1.43930        5.78310       11.81900
C         -1.14930        7.11750       12.46740
C         -0.73680        7.94660       11.51710
C         -0.74080        7.18640       10.21050
C         -0.37030        5.78700       10.71850
C         -2.24020        7.01470        9.88680
H          7.88770       -3.77120       -5.97240
H          8.04690        0.45350       -1.32430
H         12.18360       -2.09620       -2.75730
H         12.58120       -0.83140        0.40680
H         14.17880        0.68910       -0.74780
H         12.95350        1.57970       -2.87900
H         10.80540        2.93390       -2.09880
H         10.70800        2.87930        0.51420
H         13.34560        2.97620        0.29620
H         12.93010        1.66550        1.42870
H         10.49360        0.48630        1.16630
H          2.30870       -7.27010       -6.08450
H          1.18310       -5.90560       -5.90130
H          1.67570       -5.81430       -3.46990
H          2.76720       -7.19010       -3.61790
H          1.04360       -7.39680       -3.93660
H          4.62880       -7.69810       -4.90490
H          4.58900       -7.63050       -6.66270
H          6.94960       -6.79830       -6.68240
H          6.82100       -8.35900       -5.86120
H          6.98760       -6.86680       -4.92630
H          1.96430        0.67520       -5.77540
H         -1.93210        3.38860       -5.09130
H         -0.55990        5.58620       -4.91610
H          4.58040        5.41400       -3.53380
H          3.67780        3.90550       -3.27850
H          4.72780        4.94020       -5.97490
H          3.82220        3.43810       -5.75500
H          5.42180        3.60530       -5.04360
H         -0.28190       -4.38050       -3.68250
H         -1.84970       -6.42720       -3.45510
H         -6.05970       -4.36220       -2.47500
H         -6.34170       -4.53520       -4.22810
H         -7.71060       -6.59680       -3.76510
H         -7.43850       -6.37100       -2.03220
H         -8.38310       -5.18490       -2.94010
H         -3.48160       -1.45770       -1.89020
H         -0.40530        4.79400       -0.37900
H          1.93950        4.33050       -0.90180
H          2.66310        0.30750       -2.99980
H          3.27240       -0.43760       -1.48710
H          4.41250        0.24590       -2.66280
H          1.09770        0.14190       -0.95140
H         -1.21460        0.59220       -0.43130
H         -4.50630        4.16700        0.80060
H         -5.60130        6.21480        0.03260
H         -4.18000        7.98870       -4.25860
H         -3.13420        8.88470       -3.10820
H         -4.64630        9.60910       -3.69860
H         -2.72070        6.57330       -3.10710
H         -1.65170        4.53780       -2.36860
H         -7.01890        1.70370        4.14400
H         -8.45530        1.95650        6.12960
H         -8.98730       -0.79870       10.33720
H         -7.55090       -1.16200        9.35360
H         -9.09350       -2.02880        9.05980
H         -7.78770       -2.14830        7.12680
H         -6.32760       -2.38560        5.19230
H         -3.47630       -1.78670        2.72150
H         -3.39130       -3.82570        1.39010
H         -3.88330       -6.83240       -0.59550
H         -3.39490       -6.14660        0.97250
H         -3.34150       -5.14530       -0.51630
H         -7.66810       -3.95380        1.32120
H         -7.74760       -1.88350        2.66160
H         -4.71530        0.55290        5.69180
H         -2.28800        6.23950        6.76290
H         -3.84780        3.12970       10.44580
H         -3.56950        6.33590       11.62670
H         -1.48010        4.91820       12.47550
H         -1.32190        7.32990       13.50620
H         -0.49590        8.99000       11.60350
H         -0.14450        7.60020        9.40170
H          0.63910        5.75070       11.12520
H         -0.49270        4.99910        9.97770
H         -2.75990        7.96270        9.76060
