149

C          0.14930        3.72340        6.08510
C         -1.13210        3.74870        6.56920
C         -2.24270        2.89030        6.09680
O         -2.20070        1.97920        5.29100
C         -3.41230        3.25980        6.91620
C         -4.70790        2.76340        6.79640
C         -5.60040        3.30010        7.69240
C         -5.22720        4.24950        8.65230
C         -3.94890        4.73470        8.79350
C         -3.02840        4.21100        7.88150
C         -1.60680        4.50490        7.70650
C         -0.88070        5.39550        8.45690
C         -1.39000        6.11650        9.55620
N         -1.72950        6.73350       10.46390
C          0.47360        5.73150        8.25080
N          1.56380        6.08180        8.15900
C         -6.62700        4.36120        9.20230
C         -7.45980        5.60350        8.79980
C         -6.92680        6.06400        7.46580
C         -7.28130        5.16610        6.55620
C         -8.05990        4.08180        7.25930
C         -8.75640        4.91210        8.34920
C         -7.04340        3.30380        8.13160
C          0.53410        3.20280        4.83060
C         -0.29910        3.15760        3.69110
C          0.07680        2.43770        2.50080
N         -0.86420        2.51890        1.56170
S         -2.06480        3.45500        2.09120
N         -1.46880        3.77650        3.54030
C          1.29890        1.72560        2.36480
C          2.23570        2.04300        3.37880
N          3.53830        1.75990        3.37240
S          4.20010        2.28960        4.74050
N          2.87930        2.90320        5.41710
C          1.85250        2.75230        4.58540
C          1.45680        0.82130        1.28790
C          2.41410       -0.17340        0.99460
N          3.46430       -0.62800        1.76280
C          4.58000       -1.10390        1.04020
C          5.14910       -0.29840        0.05920
C          6.15980       -0.78040       -0.74830
C          6.61220       -2.08320       -0.58560
S          7.83480       -2.83460       -1.60530
C          8.07900       -1.63240       -2.94380
C          6.08190       -2.87290        0.43470
C          5.07690       -2.39110        1.24190
C          3.41730       -0.77360        3.13990
C          2.19890       -0.86670        3.82370
C          2.17210       -0.89800        5.19710
C          3.35930       -0.86440        5.93130
S          3.20220       -0.82310        7.68060
C          4.87820       -0.42170        8.25170
C          4.57570       -0.87700        5.25350
C          4.60300       -0.84090        3.87660
C          2.13500       -0.78650       -0.25120
S          2.94090       -1.98420       -1.21150
C          1.61170       -1.99900       -2.36590
C          0.63820       -1.03180       -2.05960
N         -0.47880       -0.66020       -2.77630
C         -1.55770       -0.19840       -1.99040
C         -1.99370       -0.97950       -0.92300
C         -2.89880       -0.47700       -0.01180
C         -3.37510        0.82010       -0.15820
S         -4.40480        1.59680        1.04580
C         -3.98540        0.69840        2.56890
C         -3.02350        1.56200       -1.28350
C         -2.12280        1.05830       -2.19690
C         -0.57390       -0.70030       -4.15780
C          0.56580       -0.67090       -4.96530
C          0.47420       -0.88080       -6.32380
C         -0.76820       -1.08920       -6.91540
S         -0.97850       -1.48830       -8.61350
C          0.65670       -2.10320       -9.10210
C         -1.91950       -0.97840       -6.13230
C         -1.82720       -0.78190       -4.77510
C          0.96560       -0.36530       -0.85500
S          0.19560        0.88850        0.05920
C          1.70770       -2.94420       -3.41720
C          0.62790       -3.48860       -4.14640
C          0.81750       -4.34680       -5.29880
N         -0.34370       -4.67170       -5.86290
S         -1.54350       -4.06760       -4.99030
N         -0.66850       -3.30030       -3.88350
C          2.09480       -4.71940       -5.77450
C          3.17420       -4.22240       -5.00820
N          4.46410       -4.47140       -5.22930
S          5.34380       -3.76920       -4.08200
N          4.13930       -3.09910       -3.25070
C          2.98140       -3.40920       -3.83180
C          2.31520       -5.46530       -6.95310
C          1.48830       -6.43930       -7.45210
C          0.57040       -7.26180       -6.63170
O          0.31990       -7.15900       -5.45020
C          0.13370       -8.36060       -7.52500
C         -0.70580       -9.41950       -7.23950
C         -0.95100      -10.35740       -8.23140
C         -0.34160      -10.20810       -9.46750
F         -0.58260      -11.13240      -10.41350
C          0.50810       -9.15480       -9.77840
C          0.74240       -8.22050       -8.78440
C          1.55340       -7.00490       -8.77490
C          2.15550       -6.42330       -9.86340
C          2.74940       -5.14610       -9.83220
N          3.19360       -4.08730       -9.88380
C          2.18660       -6.99360      -11.15080
N          2.24900       -7.41810      -12.21580
H          0.96240        4.09720        6.69420
H         -4.95370        2.02580        6.04800
H         -3.67770        5.45960        9.54250
H         -6.75110        4.10100       10.25160
H         -7.53910        6.36310        9.57280
H         -6.31640        6.93810        7.33430
H         -7.02600        5.14050        5.51290
H         -8.68720        3.45590        6.62970
H         -9.48730        5.61030        7.94400
H         -9.21830        4.30640        9.12760
H         -7.43970        2.35260        8.48220
H          4.78170        0.70810       -0.07510
H          6.57690       -0.13370       -1.50250
H          7.12270       -1.39870       -3.40180
H          8.56690       -0.74010       -2.56250
H          8.72600       -2.12270       -3.66460
H          6.45250       -3.87770        0.56550
H          4.64660       -3.01650        2.00950
H          1.27250       -0.89330        3.27130
H          1.23010       -0.93380        5.72250
H          5.22390        0.48120        7.75700
H          4.78830       -0.24750        9.31930
H          5.54910       -1.25660        8.07240
H          5.50890       -0.90080        5.79210
H          5.55140       -0.80460        3.36420
H         -1.59200       -1.97450       -0.80220
H         -3.21430       -1.09220        0.81530
H         -2.91440        0.52620        2.60440
H         -4.27170        1.34460        3.39270
H         -4.53680       -0.23580        2.62280
H         -3.43140        2.55260       -1.40880
H         -1.81270        1.65230       -3.04310
H          1.53450       -0.50270       -4.52010
H          1.37520       -0.88500       -6.91590
H          0.99790       -2.84260       -8.38350
H          1.36460       -1.28490       -9.19130
H          0.52280       -2.56970      -10.07280
H         -2.88380       -1.08430       -6.60440
H         -2.72080       -0.75840       -4.17160
H          3.25080       -5.25930       -7.46060
H         -1.15830       -9.50410       -6.26390
H         -1.60180      -11.20050       -8.06170
H          0.95660       -9.09990      -10.75680
