248

C          8.11850       -7.44440        3.70700
C          9.39770       -7.09730        4.05090
C         10.06590       -5.77860        3.97650
O          9.58120       -4.67300        3.82460
C         11.50770       -6.04800        4.12520
C         12.53870       -5.11430        4.03540
C         13.79230       -5.64810        4.20880
C         14.00580       -7.01100        4.45640
C         12.99790       -7.94030        4.55490
C         11.71270       -7.41690        4.38020
C         10.41010       -8.07510        4.42040
C         10.19120       -9.36740        4.82170
C         11.21170      -10.26960        5.18870
N         11.98800      -11.05830        5.49530
C          8.93040       -9.98100        4.98540
N          7.95390      -10.55580        5.17480
C         15.50420       -6.84730        4.51600
C         16.29840       -7.30070        3.27280
C         17.62700       -6.59370        3.41480
C         17.42480       -5.30350        3.17980
C         15.95580       -5.11680        2.87530
C         15.66190       -6.44650        2.16880
C         15.26610       -5.32790        4.24010
C          7.01720       -6.65620        3.31750
C          6.81720       -5.29640        3.33550
C          5.56540       -4.89040        2.84520
C          5.07040       -3.56620        2.71850
C          5.89750       -2.41060        2.95710
C          5.54720       -1.16420        3.41570
C          6.61960       -0.26540        3.49250
C          7.80360       -0.81590        3.07570
S          9.35220       -0.01590        3.07290
C         10.51280       -1.41190        2.83510
C         10.72980       -1.74190        1.37100
S          7.59610       -2.45350        2.56170
C          3.74960       -3.45180        2.30100
C          2.95460       -4.55370        1.90260
C          3.46830       -5.86520        1.97140
C          2.67480       -6.99820        1.54640
C          1.92330       -7.14290        0.41340
C          1.26670       -8.38110        0.32680
C          1.50070       -9.18410        1.40850
S          0.78660      -10.75520        1.65430
C          1.51900      -11.27930        3.24270
C          2.94600      -11.76860        3.09530
S          2.56580       -8.42230        2.54400
C          4.75240       -5.99880        2.48250
S          5.59200       -7.50210        2.71600
C          1.65960       -4.16870        1.48890
C          1.42320       -2.82530        1.59080
S          2.85280       -1.96650        2.14940
C          0.27910       -2.03580        1.30250
C         -0.98360       -2.34770        0.79600
N         -1.53550       -3.60250        0.61430
C         -1.35540       -4.64800        1.52390
C         -1.02020       -4.40990        2.85570
C         -0.77480       -5.45880        3.71980
C         -0.87410       -6.76920        3.27390
S         -0.56330       -8.17070        4.30230
C          0.53650       -7.49720        5.58250
C         -1.25790       -7.01610        1.95810
C         -1.48670       -5.97140        1.09150
C         -2.49310       -3.74610       -0.41210
C         -3.74380       -4.29370       -0.14740
C         -4.68140       -4.42370       -1.15280
C         -4.38450       -3.99830       -2.44170
S         -5.48810       -4.14240       -3.80740
C         -7.06580       -4.61730       -3.04820
C         -3.13310       -3.44560       -2.70830
C         -2.19550       -3.32350       -1.70730
C         -1.69460       -1.16180        0.48110
S         -3.22590       -0.83890       -0.25650
C         -2.96140        0.89650       -0.10570
C         -1.77910        1.19080        0.56710
N         -1.37770        2.45610        0.97120
C         -2.27140        3.31840        1.61890
C         -3.43890        2.85160        2.21600
C         -4.31070        3.72130        2.84200
C         -4.02110        5.07630        2.90330
S         -5.04870        6.28080        3.68530
C         -6.52960        5.34690        4.16320
C         -2.84090        5.54390        2.32910
C         -1.98360        4.68260        1.68450
C          0.01030        2.65400        1.09110
C          0.84110        2.28780        0.03460
C          2.21430        2.31100        0.17830
C          2.77790        2.70550        1.38420
S          4.51800        2.65800        1.69220
C          5.05590        1.27280        0.64690
C          1.95290        3.15370        2.41240
C          0.58320        3.12650        2.27170
C         -1.05290        0.01260        0.84130
S          0.48860       -0.30240        1.54110
C         -3.79370        1.79440       -0.81560
C         -5.02800        1.51360       -1.39390
N         -5.75940        0.35200       -1.18450
C         -6.05850       -0.08840        0.10610
C         -6.15730        0.81120        1.16440
C         -6.42690        0.35460        2.43980
C         -6.61030       -0.99750        2.69920
C         -6.92610       -1.48390        4.08080
C         -6.51480       -1.88870        1.63580
C         -6.24050       -1.44820        0.35850
C         -6.32840       -0.25990       -2.31430
C         -5.58750       -0.35020       -3.49060
C         -6.14400       -0.91140       -4.61970
C         -7.44320       -1.40760       -4.60830
C         -8.02520       -2.01760       -5.84520
C         -8.17030       -1.32370       -3.42860
C         -7.62810       -0.75320       -2.29250
C         -5.42900        2.54930       -2.26300
S         -6.78970        2.76210       -3.29890
C         -6.15900        4.32870       -3.83930
C         -4.87760        4.59240       -3.30310
N         -4.00390        5.54480       -3.72690
C         -4.06830        6.15420       -4.98880
C         -3.80020        7.51590       -5.10440
C         -3.89780        8.14260       -6.33270
C         -4.24910        7.43400       -7.47350
C         -4.40840        8.11500       -8.79610
C         -4.46260        6.06210       -7.35730
C         -4.37590        5.42610       -6.13720
C         -2.91320        5.90830       -2.89970
C         -3.12900        6.42130       -1.62760
C         -2.04870        6.78920       -0.84810
C         -0.74640        6.62540       -1.30200
C          0.42890        6.97480       -0.44080
C         -0.54660        6.11900       -2.58240
C         -1.61590        5.77470       -3.38360
C         -4.52720        3.60170       -2.35770
S         -3.16870        3.36490       -1.30530
C         -6.95830        5.06690       -4.71000
C         -6.88030        6.43100       -4.91280
C         -6.37940        7.38050       -3.90940
O         -5.93720        7.12620       -2.80280
C         -6.64110        8.72580       -4.46320
C         -6.35120        9.94880       -3.86840
C         -6.70360       11.03880       -4.62920
C         -7.30980       10.92040       -5.88480
C         -7.60500        9.71650       -6.48150
C         -7.24760        8.59810       -5.72730
C         -7.37970        7.17380       -6.03210
C         -7.75440        6.63990       -7.24310
C         -7.73010        5.26290       -7.53620
N         -7.70500        4.15900       -7.85520
C         -8.12370        7.39880       -8.36710
N         -8.41630        7.96340       -9.32490
C         -7.40480       12.41490       -6.06950
C         -8.78270       13.08520       -5.84540
C         -9.53710       12.20400       -4.88130
C         -8.95940       12.31660       -3.69280
C         -7.80370       13.27620       -3.83210
C         -8.36730       14.22520       -4.90170
C         -6.72480       12.54710       -4.67030
H          7.90610       -8.50720        3.68280
H         12.32850       -4.07250        3.84810
H         13.17990       -8.98440        4.74600
H         15.97570       -7.13940        5.45220
H         16.32980       -8.37590        3.12010
H         18.53600       -7.07990        3.71630
H         18.13090       -4.49670        3.24590
H         15.67590       -4.20210        2.35930
H         16.19240       -6.53550        1.22230
H         14.60250       -6.64150        2.01210
H         15.58040       -4.60650        4.99200
H          7.56420       -4.63100        3.72160
H          4.55590       -0.91170        3.74520
H          6.53640        0.74410        3.85060
H         11.43840       -1.07240        3.30060
H         10.11790       -2.26730        3.38380
H         11.44130       -2.56060        1.28350
H         11.12040       -0.87840        0.83700
H          9.79770       -2.05030        0.90370
H          1.87900       -6.39570       -0.35890
H          0.64290       -8.67870       -0.49580
H          1.44070      -10.43220        3.92360
H          0.86230      -12.07750        3.58800
H          3.32280      -12.09230        4.06300
H          3.59430      -10.97780        2.72530
H          2.99040      -12.60750        2.40450
H          0.93890       -4.87900        1.13880
H         -0.95020       -3.39630        3.21950
H         -0.51250       -5.23990        4.74250
H          0.95880       -8.35570        6.09550
H          1.32690       -6.92180        5.10960
H         -0.02570       -6.89200        6.28770
H         -1.35350       -8.03610        1.62000
H         -1.75030       -6.17330        0.06430
H         -3.98150       -4.61750        0.85500
H         -5.63990       -4.85710       -0.91690
H         -6.99350       -5.61180       -2.61750
H         -7.35100       -3.87720       -2.30650
H         -7.78810       -4.61960       -3.85810
H         -2.90810       -3.12050       -3.71210
H         -1.22520       -2.89810       -1.91760
H         -3.67170        1.79720        2.20500
H         -5.20520        3.32130        3.29100
H         -6.27830        4.60400        4.91510
H         -7.21260        6.07810        4.58440
H         -6.97610        4.88850        3.28550
H         -2.61230        6.59620        2.39870
H         -1.08210        5.05460        1.22500
H          0.39890        1.95920       -0.89470
H          2.83650        2.00570       -0.64790
H          6.04420        0.99930        1.00310
H          5.11180        1.57830       -0.39390
H          4.36930        0.44190        0.78030
H          2.39920        3.48640        3.33660
H         -0.05070        3.42940        3.09150
H         -6.02570        1.86760        0.97980
H         -6.50410        1.06410        3.25180
H         -8.00560       -1.57380        4.20830
H         -6.55490       -0.79110        4.83240
H         -6.48640       -2.46340        4.25600
H         -6.64600       -2.94630        1.81520
H         -6.13960       -2.15230       -0.45350
H         -4.57220        0.01910       -3.50610
H         -5.56040       -0.97800       -5.52570
H         -7.39140       -2.83030       -6.19820
H         -9.02440       -2.40410       -5.65950
H         -8.08460       -1.27380       -6.63860
H         -9.18370       -1.69870       -3.39730
H         -8.21320       -0.67860       -1.38740
H         -3.53360        8.07980       -4.22320
H         -3.71200        9.20480       -6.39920
H         -4.02260        9.13050       -8.76060
H         -5.46260        8.15900       -9.07180
H         -3.88750        7.56450       -9.57730
H         -4.71040        5.48600       -8.23700
H         -4.55180        4.36290       -6.07150
H         -4.14150        6.55460       -1.28020
H         -2.22640        7.21690        0.12610
H          0.11270        7.48610        0.46490
H          1.12360        7.61640       -0.98020
H          0.96860        6.06990       -0.15750
H          0.46050        5.99620       -2.95390
H         -1.45640        5.39300       -4.38180
H         -7.72770        4.50880       -5.23010
H         -5.88490        9.99780       -2.89650
H         -8.08040        9.63910       -7.44530
H         -6.88110       12.82430       -6.93150
H         -9.30650       13.35630       -6.75830
H        -10.35130       11.56380       -5.16670
H         -9.19420       11.78880       -2.78700
H         -7.43610       13.72190       -2.91120
H         -7.61840       14.89090       -5.32900
H         -9.21560       14.80720       -4.54430
H         -5.75640       13.04200       -4.61990
