208

C          6.52810       -2.92860        1.98500
C          6.66590       -4.17580        2.55030
C          5.78060       -5.32880        2.37640
O          4.70530       -5.36830        1.79700
C          6.45330       -6.46760        3.02970
C          5.99390       -7.77910        3.12960
C          6.85110       -8.62590        3.79080
C          8.07930       -8.20340        4.31360
C          8.54270       -6.91150        4.22870
C          7.68290       -6.03300        3.56430
C          7.81270       -4.59790        3.31940
C          8.83610       -3.80620        3.78290
C          8.87880       -2.40100        3.72430
N          8.98830       -1.25670        3.76780
C          9.99190       -4.28270        4.43280
N         10.97410       -4.57940        4.95000
C          8.41610       -9.57400        4.84600
C          8.23630       -9.78720        6.36380
C          8.16680      -11.29000        6.51210
C          7.00200      -11.69060        6.01890
C          6.26460      -10.46510        5.52900
C          6.75530       -9.43470        6.55430
C          7.04430      -10.04520        4.26480
C          5.51400       -2.38740        1.19690
C          5.56800       -1.08280        0.64320
N          6.64790       -0.24090        0.65690
C          7.97300       -0.69260        0.55030
C          8.99080       -0.02700        1.22700
C         10.28890       -0.49690        1.17600
C         10.58320       -1.65150        0.46490
S         12.18500       -2.38780        0.42120
C         13.00170       -1.68310        1.88160
C          9.57610       -2.28390       -0.26500
C          8.28730       -1.80500       -0.23380
C          6.39280        1.14470        0.68110
C          5.43410        1.65170        1.55450
C          5.09120        2.98720        1.52210
C          5.71030        3.83910        0.61570
S          5.27810        5.53800        0.44740
C          3.58350        5.58690        1.10220
C          6.72340        3.34820       -0.20660
C          7.06210        2.01370       -0.17850
C          4.32970       -0.73410        0.06870
S          3.71600        0.68990       -0.70590
C          2.17020       -0.09030       -0.94860
C          2.12410       -1.36880       -0.41940
N          1.01890       -2.20700       -0.36380
C          1.29320       -3.56940       -0.59860
C          0.83650       -4.55200        0.27290
C          1.23090       -5.86250        0.09950
C          2.08400       -6.20080       -0.94290
S          2.69150       -7.85170       -1.13720
C          3.11810       -8.22930        0.59150
C          2.49190       -5.23180       -1.85050
C          2.10140       -3.92130       -1.67740
C         -0.26950       -1.74870       -0.14020
C         -0.50620       -0.57870        0.58880
C         -1.78440       -0.07310        0.70350
C         -2.85190       -0.74150        0.12390
S         -4.50030       -0.06960        0.24840
C         -4.90250       -0.60610        1.94150
C         -2.63860       -1.93220       -0.55330
C         -1.36110       -2.43610       -0.67820
C          3.37310       -1.73650        0.13890
S          3.96300       -3.17570        0.89130
C          1.05690        0.61510       -1.53500
C          0.13180       -0.02400       -2.38720
N          0.19330       -1.22480       -2.97820
N         -0.94940       -1.34030       -3.58920
C         -1.31820       -2.50930       -4.34040
C         -0.14280       -3.45350       -4.50780
N         -1.77950       -0.34630       -3.46900
C         -1.13590        0.54660       -2.71000
C         -1.54570        1.79670       -2.18970
C         -0.54400        2.46510       -1.49600
C          0.70410        1.90730       -1.18950
F          1.51820        2.63990       -0.40130
F         -0.77660        3.69400       -0.98860
C         -2.91560        2.24440       -2.18120
C         -3.98620        1.89030       -2.98200
N         -3.92300        1.26210       -4.24180
C         -3.85950        2.16440       -5.32240
C         -4.82170        2.15340       -6.32830
C         -4.76360        3.05370       -7.37460
C         -3.74830        3.99930       -7.42260
S         -3.56720        5.20100       -8.70430
C         -4.96110        4.86890       -9.81930
C         -2.79810        4.03220       -6.40400
C         -2.85230        3.12740       -5.36680
C         -4.31310       -0.05680       -4.39950
C         -4.13480       -0.70840       -5.62080
C         -4.44860       -2.04500       -5.76770
C         -4.94990       -2.76620       -4.69410
S         -5.31740       -4.50000       -4.75950
C         -5.52700       -4.81510       -6.53580
C         -5.12820       -2.12530       -3.47250
C         -4.81500       -0.79290       -3.32410
C         -5.20140        2.36770       -2.44350
S         -6.85060        2.22440       -2.92710
C         -7.36880        3.04480       -1.45510
C         -6.29290        3.51970       -0.69820
N         -6.36720        4.39680        0.36060
C         -7.42650        5.30660        0.51200
C         -8.04710        5.89020       -0.58890
C         -9.19000        6.64740       -0.43190
C         -9.72680        6.84280        0.83410
S        -11.26280        7.66570        1.10620
C        -12.14510        7.35320       -0.45230
C         -9.04240        6.36190        1.94750
C         -7.90340        5.60410        1.78950
C         -5.29550        4.44090        1.27040
C         -4.75600        3.25680        1.76590
C         -3.63470        3.28900        2.56920
C         -3.04190        4.50330        2.88570
S         -1.53530        4.58620        3.81430
C         -0.58370        3.24930        3.02330
C         -3.62960        5.69050        2.46380
C         -4.75000        5.66200        1.66110
C         -5.06910        3.08220       -1.26160
S         -3.41550        3.22580       -0.81570
C         -8.75300        3.17000       -1.18830
C         -9.31690        3.13250        0.04640
S         -8.54440        2.56670        1.51400
C         -9.99060        2.97110        2.48850
O        -10.06830        2.80350        3.67070
N        -10.94480        3.50200        1.67200
C        -12.21390        3.95320        2.21870
C        -13.20120        2.80180        2.34840
C        -10.66830        3.59850        0.31960
O        -11.43620        4.07990       -0.48710
H          7.34420       -2.24340        2.17400
H          5.04140       -8.07100        2.71670
H          9.49000       -6.60000        4.63580
H          9.32820      -10.02310        4.45790
H          8.95950       -9.26650        6.98530
H          8.96870      -11.89270        6.89630
H          6.63640      -12.69470        5.90880
H          5.19100      -10.56300        5.39140
H          6.50830       -8.40510        6.30210
H          6.40550       -9.65700        7.56110
H          7.04220      -10.80970        3.48990
H          8.76100        0.84790        1.81430
H         11.05330        0.03170        1.72030
H         13.89320       -2.28220        2.03800
H         12.34200       -1.76790        2.74010
H         13.28120       -0.64970        1.69760
H          9.82060       -3.15670       -0.85060
H          7.51040       -2.30320       -0.79440
H          4.94990        0.98790        2.25600
H          4.34060        3.35340        2.20310
H          3.59410        5.55100        2.18780
H          3.16710        6.53410        0.77400
H          3.01310        4.76390        0.68270
H          7.21960        4.02270       -0.88690
H          7.82400        1.62960       -0.84000
H          0.19450       -4.27950        1.09740
H          0.88910       -6.61700        0.79030
H          3.52940       -7.32840        1.03880
H          2.24290       -8.57630        1.13390
H          3.86390       -9.01760        0.55350
H          3.13180       -5.51130       -2.67290
H          2.43320       -3.15160       -2.35830
H          0.31910       -0.06420        1.05770
H         -1.95810        0.84930        1.23790
H         -5.89930       -0.23510        2.15690
H         -4.18400       -0.18480        2.63810
H         -4.88670       -1.69110        1.98510
H         -3.47330       -2.45000       -0.99970
H         -1.19280       -3.35510       -1.21940
H         -1.70450       -2.16800       -5.30480
H         -2.14450       -2.99740       -3.81290
H         -0.45340       -4.31970       -5.08470
H          0.67290       -2.95760       -5.02660
H          0.22200       -3.78810       -3.54060
H         -5.62890        1.43730       -6.28480
H         -5.52560        3.01330       -8.13610
H         -5.90070        5.01360       -9.29420
H         -4.87150        5.59550      -10.62070
H         -4.88340        3.86370      -10.22340
H         -2.01600        4.77500       -6.44070
H         -2.10940        3.15950       -4.58460
H         -3.72020       -0.17040       -6.45980
H         -4.28550       -2.51660       -6.72450
H         -5.97210       -5.80220       -6.61140
H         -4.56390       -4.80900       -7.03870
H         -6.19570       -4.07130       -6.95810
H         -5.52340       -2.68660       -2.63910
H         -4.94880       -0.32180       -2.36370
H         -7.64560        5.73370       -1.57880
H         -9.66390        7.06930       -1.30300
H        -11.78610        8.01910       -1.23160
H        -12.01490        6.31040       -0.73080
H        -13.19060        7.56190       -0.24810
H         -9.43470        6.55590        2.93400
H         -7.40370        5.19300        2.65390
H         -5.21780        2.31730        1.50470
H         -3.22160        2.36690        2.94760
H          0.45480        3.42050        3.28720
H         -0.71160        3.31930        1.94750
H         -0.89960        2.27920        3.39640
H         -3.18190        6.63070        2.74530
H         -5.18830        6.58230        1.30470
H         -9.42770        3.30300       -2.02610
H        -12.59480        4.71390        1.53380
H        -12.01390        4.39990        3.19510
H        -13.38650        2.35190        1.37550
H        -12.80770        2.04390        3.02190
H        -14.14110        3.17100        2.74840
