
  xtb     02062214203D
 energy: -365.349900537558 gnorm: 0.000538630615 xtb: 6.4.1 (unknown)
225247  0     0  0            999 V2000
    2.6836    8.1107   -2.2599 C   0  0  0  0  0  0  0  0  0  0  0  0
    3.5692    7.8335   -1.2574 C   0  0  0  0  0  0  0  0  0  0  0  0
    3.9949    8.8928   -0.3128 C   0  0  0  0  0  0  0  0  0  0  0  0
    3.7890   10.0839   -0.4132 O   0  0  0  0  0  0  0  0  0  0  0  0
    4.6792    8.1855    0.7893 C   0  0  0  0  0  0  0  0  0  0  0  0
    5.2131    8.7470    1.9473 C   0  0  0  0  0  0  0  0  0  0  0  0
    5.8489    7.8460    2.7677 C   0  0  0  0  0  0  0  0  0  0  0  0
    5.9485    6.4811    2.4639 C   0  0  0  0  0  0  0  0  0  0  0  0
    5.4188    5.9113    1.3307 C   0  0  0  0  0  0  0  0  0  0  0  0
    4.7687    6.8116    0.4819 C   0  0  0  0  0  0  0  0  0  0  0  0
    4.1865    6.5929   -0.8399 C   0  0  0  0  0  0  0  0  0  0  0  0
    4.4374    5.5077   -1.6424 C   0  0  0  0  0  0  0  0  0  0  0  0
    4.1644    5.4953   -3.0260 C   0  0  0  0  0  0  0  0  0  0  0  0
    4.0230    5.4783   -4.1656 N   0  0  0  0  0  0  0  0  0  0  0  0
    5.0508    4.3143   -1.2202 C   0  0  0  0  0  0  0  0  0  0  0  0
    5.5077    3.2963   -0.9457 N   0  0  0  0  0  0  0  0  0  0  0  0
    6.7786    6.1879    3.6904 C   0  0  0  0  0  0  0  0  0  0  0  0
    6.1042    5.4979    4.8999 C   0  0  0  0  0  0  0  0  0  0  0  0
    4.6401    5.8485    4.8265 C   0  0  0  0  0  0  0  0  0  0  0  0
    4.5195    7.1385    5.1113 C   0  0  0  0  0  0  0  0  0  0  0  0
    5.8991    7.6817    5.3894 C   0  0  0  0  0  0  0  0  0  0  0  0
    6.5537    6.4442    6.0248 C   0  0  0  0  0  0  0  0  0  0  0  0
    6.6521    7.7051    4.0366 C   0  0  0  0  0  0  0  0  0  0  0  0
    1.8501    7.1915   -2.9326 C   0  0  0  0  0  0  0  0  0  0  0  0
    1.3139    7.2854   -4.2213 C   0  0  0  0  0  0  0  0  0  0  0  0
    1.6381    8.4286   -5.1278 C   0  0  0  0  0  0  0  0  0  0  0  0
    3.0715    8.3222   -5.6529 C   0  0  0  0  0  0  0  0  0  0  0  0
    0.5500    6.1608   -4.5403 C   0  0  0  0  0  0  0  0  0  0  0  0
    0.4660    5.2657   -3.4771 C   0  0  0  0  0  0  0  0  0  0  0  0
    1.3364    5.7343   -2.0945 S   0  0  0  0  0  0  0  0  0  0  0  0
   -0.2966    4.1493   -3.8589 C   0  0  0  0  0  0  0  0  0  0  0  0
   -0.6835    4.2707   -5.1878 C   0  0  0  0  0  0  0  0  0  0  0  0
   -0.2092    5.6045   -5.7376 C   0  0  0  0  0  0  0  0  0  0  0  0
   -1.4182    6.4840   -6.1109 C   0  0  0  0  0  0  0  0  0  0  0  0
   -2.2726    6.8652   -4.9076 C   0  0  0  0  0  0  0  0  0  0  0  0
    0.7694    5.4489   -6.9171 C   0  0  0  0  0  0  0  0  0  0  0  0
    0.1738    4.7975   -8.1580 C   0  0  0  0  0  0  0  0  0  0  0  0
   -1.4211    3.1588   -5.6194 C   0  0  0  0  0  0  0  0  0  0  0  0
   -1.5890    2.2261   -4.6220 C   0  0  0  0  0  0  0  0  0  0  0  0
   -0.8451    2.7261   -3.1066 S   0  0  0  0  0  0  0  0  0  0  0  0
   -2.1604    0.9074   -4.5309 C   0  0  0  0  0  0  0  0  0  0  0  0
   -1.7714   -0.2862   -5.1165 C   0  0  0  0  0  0  0  0  0  0  0  0
   -0.9786   -0.4057   -6.2469 N   0  0  0  0  0  0  0  0  0  0  0  0
    0.1467    0.4217   -6.3879 C   0  0  0  0  0  0  0  0  0  0  0  0
    0.5306    0.8837   -7.6418 C   0  0  0  0  0  0  0  0  0  0  0  0
    1.6387    1.6974   -7.7847 C   0  0  0  0  0  0  0  0  0  0  0  0
    2.3688    2.0840   -6.6684 C   0  0  0  0  0  0  0  0  0  0  0  0
    3.7822    3.1379   -6.7126 S   0  0  0  0  0  0  0  0  0  0  0  0
    4.1075    3.3525   -8.4874 C   0  0  0  0  0  0  0  0  0  0  0  0
    1.9841    1.6256   -5.4094 C   0  0  0  0  0  0  0  0  0  0  0  0
    0.8982    0.7921   -5.2717 C   0  0  0  0  0  0  0  0  0  0  0  0
   -1.1883   -1.4952   -7.0977 C   0  0  0  0  0  0  0  0  0  0  0  0
   -0.1224   -2.1327   -7.7348 C   0  0  0  0  0  0  0  0  0  0  0  0
   -0.3516   -3.2113   -8.5575 C   0  0  0  0  0  0  0  0  0  0  0  0
   -1.6450   -3.6890   -8.7603 C   0  0  0  0  0  0  0  0  0  0  0  0
   -1.8122   -5.0767   -9.8404 S   0  0  0  0  0  0  0  0  0  0  0  0
   -3.5424   -5.5846   -9.6269 C   0  0  0  0  0  0  0  0  0  0  0  0
   -2.7086   -3.0585   -8.1312 C   0  0  0  0  0  0  0  0  0  0  0  0
   -2.4800   -1.9708   -7.3113 C   0  0  0  0  0  0  0  0  0  0  0  0
   -2.1349   -1.3981   -4.3054 C   0  0  0  0  0  0  0  0  0  0  0  0
   -1.6552   -3.0693   -4.2947 S   0  0  0  0  0  0  0  0  0  0  0  0
   -2.0791   -3.1941   -2.5980 C   0  0  0  0  0  0  0  0  0  0  0  0
   -2.6804   -2.0453   -2.1140 C   0  0  0  0  0  0  0  0  0  0  0  0
   -3.0219   -1.7930   -0.7868 N   0  0  0  0  0  0  0  0  0  0  0  0
   -2.5284   -0.6025   -0.2190 C   0  0  0  0  0  0  0  0  0  0  0  0
   -1.2869   -0.0847   -0.5915 C   0  0  0  0  0  0  0  0  0  0  0  0
   -0.8228    1.0888   -0.0414 C   0  0  0  0  0  0  0  0  0  0  0  0
   -1.5880    1.7731    0.8972 C   0  0  0  0  0  0  0  0  0  0  0  0
   -0.9265    3.2901    1.5051 S   0  0  0  0  0  0  0  0  0  0  0  0
   -1.8177    3.5405    3.0696 C   0  0  0  0  0  0  0  0  0  0  0  0
   -2.8228    1.2642    1.2763 C   0  0  0  0  0  0  0  0  0  0  0  0
   -3.2868    0.0884    0.7213 C   0  0  0  0  0  0  0  0  0  0  0  0
   -3.5444   -2.7919    0.0402 C   0  0  0  0  0  0  0  0  0  0  0  0
   -4.4365   -3.7366   -0.4596 C   0  0  0  0  0  0  0  0  0  0  0  0
   -4.9192   -4.7536    0.3441 C   0  0  0  0  0  0  0  0  0  0  0  0
   -4.5217   -4.8432    1.6697 C   0  0  0  0  0  0  0  0  0  0  0  0
   -5.0005   -6.1330    2.7785 S   0  0  0  0  0  0  0  0  0  0  0  0
   -6.2788   -7.0457    1.8684 C   0  0  0  0  0  0  0  0  0  0  0  0
   -3.6609   -3.8779    2.1866 C   0  0  0  0  0  0  0  0  0  0  0  0
   -3.1767   -2.8705    1.3859 C   0  0  0  0  0  0  0  0  0  0  0  0
   -2.7369   -1.0449   -3.1109 C   0  0  0  0  0  0  0  0  0  0  0  0
   -3.0541    0.6468   -3.0277 S   0  0  0  0  0  0  0  0  0  0  0  0
   -1.5604   -4.1476   -1.6436 C   0  0  0  0  0  0  0  0  0  0  0  0
   -0.7794   -3.6839   -0.6349 C   0  0  0  0  0  0  0  0  0  0  0  0
   -0.7147   -4.5340    0.4902 C   0  0  0  0  0  0  0  0  0  0  0  0
   -0.2063   -4.1627    1.7439 C   0  0  0  0  0  0  0  0  0  0  0  0
    0.4783   -2.8880    1.8881 C   0  0  0  0  0  0  0  0  0  0  0  0
    0.1675   -1.8217    2.6907 C   0  0  0  0  0  0  0  0  0  0  0  0
    0.9247   -0.6700    2.4225 C   0  0  0  0  0  0  0  0  0  0  0  0
    1.8594   -0.8381    1.4293 C   0  0  0  0  0  0  0  0  0  0  0  0
    2.7942    0.0118    0.7545 C   0  0  0  0  0  0  0  0  0  0  0  0
    3.0667    1.3311    0.8268 C   0  0  0  0  0  0  0  0  0  0  0  0
    2.5977    2.3681    1.6988 C   0  0  0  0  0  0  0  0  0  0  0  0
    2.2397    2.3890    3.0196 C   0  0  0  0  0  0  0  0  0  0  0  0
    1.9170    3.6765    3.4907 C   0  0  0  0  0  0  0  0  0  0  0  0
    2.0322    4.6534    2.5462 C   0  0  0  0  0  0  0  0  0  0  0  0
    1.7890    6.1173    2.6890 C   0  0  0  0  0  0  0  0  0  0  0  0
    0.9274    6.6726    1.5581 C   0  0  0  0  0  0  0  0  0  0  0  0
    2.5626    3.9891    1.0420 S   0  0  0  0  0  0  0  0  0  0  0  0
    1.7837   -2.4756    0.8208 S   0  0  0  0  0  0  0  0  0  0  0  0
   -0.5184   -5.0106    2.7949 C   0  0  0  0  0  0  0  0  0  0  0  0
   -1.2066   -6.2444    2.6172 C   0  0  0  0  0  0  0  0  0  0  0  0
   -1.6683   -6.6429    1.3298 C   0  0  0  0  0  0  0  0  0  0  0  0
   -2.3758   -7.8765    1.0921 C   0  0  0  0  0  0  0  0  0  0  0  0
   -3.3450   -8.1164    0.1449 C   0  0  0  0  0  0  0  0  0  0  0  0
   -3.7742   -9.4431    0.1039 C   0  0  0  0  0  0  0  0  0  0  0  0
   -3.1528  -10.2623    1.0216 C   0  0  0  0  0  0  0  0  0  0  0  0
   -3.3201  -11.6823    1.0744 C   0  0  0  0  0  0  0  0  0  0  0  0
   -2.9592  -12.5704    2.0220 C   0  0  0  0  0  0  0  0  0  0  0  0
   -2.4897  -12.3127    3.3498 C   0  0  0  0  0  0  0  0  0  0  0  0
   -2.8034  -11.3022    4.2217 C   0  0  0  0  0  0  0  0  0  0  0  0
   -2.2029  -11.4481    5.4822 C   0  0  0  0  0  0  0  0  0  0  0  0
   -1.4221  -12.5604    5.5915 C   0  0  0  0  0  0  0  0  0  0  0  0
   -0.6563  -13.0278    6.7782 C   0  0  0  0  0  0  0  0  0  0  0  0
   -1.4366  -14.0914    7.5546 C   0  0  0  0  0  0  0  0  0  0  0  0
   -1.4479  -13.4792    4.1259 S   0  0  0  0  0  0  0  0  0  0  0  0
   -2.0109   -9.3460    1.9591 S   0  0  0  0  0  0  0  0  0  0  0  0
   -1.4517   -5.7253    0.3022 C   0  0  0  0  0  0  0  0  0  0  0  0
   -2.1131   -5.7757   -1.3249 S   0  0  0  0  0  0  0  0  0  0  0  0
   -1.4221   -6.8645    3.8588 C   0  0  0  0  0  0  0  0  0  0  0  0
   -0.9706   -6.1396    4.9495 C   0  0  0  0  0  0  0  0  0  0  0  0
   -0.2118   -4.6409    4.4581 S   0  0  0  0  0  0  0  0  0  0  0  0
   -1.1165   -6.5817    6.2818 C   0  0  0  0  0  0  0  0  0  0  0  0
   -0.9286   -5.9039    7.4556 C   0  0  0  0  0  0  0  0  0  0  0  0
   -0.6566   -4.4598    7.6057 C   0  0  0  0  0  0  0  0  0  0  0  0
   -0.2911   -3.6703    6.7586 O   0  0  0  0  0  0  0  0  0  0  0  0
   -0.9281   -4.1459    9.0219 C   0  0  0  0  0  0  0  0  0  0  0  0
   -0.9028   -2.9187    9.6507 C   0  0  0  0  0  0  0  0  0  0  0  0
   -1.2072   -2.8513   11.0084 C   0  0  0  0  0  0  0  0  0  0  0  0
   -1.1725   -1.5433   11.7327 C   0  0  0  0  0  0  0  0  0  0  0  0
   -1.5261   -4.0252   11.6887 C   0  0  0  0  0  0  0  0  0  0  0  0
   -1.5453   -5.2631   11.0643 C   0  0  0  0  0  0  0  0  0  0  0  0
   -1.2413   -5.3282    9.7131 C   0  0  0  0  0  0  0  0  0  0  0  0
   -1.1555   -6.4479    8.7832 C   0  0  0  0  0  0  0  0  0  0  0  0
   -1.1820   -7.7715    9.1354 C   0  0  0  0  0  0  0  0  0  0  0  0
   -1.4118   -8.2377   10.4463 C   0  0  0  0  0  0  0  0  0  0  0  0
   -1.6064   -8.6819   11.4869 N   0  0  0  0  0  0  0  0  0  0  0  0
   -0.9086   -8.8420    8.2631 C   0  0  0  0  0  0  0  0  0  0  0  0
   -0.6542   -9.7674    7.6317 N   0  0  0  0  0  0  0  0  0  0  0  0
    2.5583    9.1626   -2.4995 H   0  0  0  0  0  0  0  0  0  0  0  0
    5.1358    9.8065    2.1357 H   0  0  0  0  0  0  0  0  0  0  0  0
    5.4991    4.8611    1.1047 H   0  0  0  0  0  0  0  0  0  0  0  0
    7.7751    5.7969    3.4936 H   0  0  0  0  0  0  0  0  0  0  0  0
    6.3394    4.4424    5.0075 H   0  0  0  0  0  0  0  0  0  0  0  0
    3.8780    5.1544    4.5263 H   0  0  0  0  0  0  0  0  0  0  0  0
    3.6311    7.7430    5.0983 H   0  0  0  0  0  0  0  0  0  0  0  0
    5.9441    8.6137    5.9471 H   0  0  0  0  0  0  0  0  0  0  0  0
    6.1201    6.1866    6.9901 H   0  0  0  0  0  0  0  0  0  0  0  0
    7.6358    6.5255    6.1180 H   0  0  0  0  0  0  0  0  0  0  0  0
    7.5663    8.2940    4.0861 H   0  0  0  0  0  0  0  0  0  0  0  0
    0.9385    8.4353   -5.9641 H   0  0  0  0  0  0  0  0  0  0  0  0
    1.5239    9.3700   -4.5840 H   0  0  0  0  0  0  0  0  0  0  0  0
    3.7811    8.4123   -4.8345 H   0  0  0  0  0  0  0  0  0  0  0  0
    3.2671    9.1113   -6.3753 H   0  0  0  0  0  0  0  0  0  0  0  0
    3.2323    7.3574   -6.1263 H   0  0  0  0  0  0  0  0  0  0  0  0
   -1.0595    7.3910   -6.6015 H   0  0  0  0  0  0  0  0  0  0  0  0
   -2.0369    5.9362   -6.8230 H   0  0  0  0  0  0  0  0  0  0  0  0
   -2.6281    5.9763   -4.3915 H   0  0  0  0  0  0  0  0  0  0  0  0
   -1.7043    7.4669   -4.2022 H   0  0  0  0  0  0  0  0  0  0  0  0
   -3.1358    7.4415   -5.2325 H   0  0  0  0  0  0  0  0  0  0  0  0
    1.1392    6.4408   -7.1810 H   0  0  0  0  0  0  0  0  0  0  0  0
    1.6193    4.8595   -6.5686 H   0  0  0  0  0  0  0  0  0  0  0  0
   -0.6789    5.3590   -8.5311 H   0  0  0  0  0  0  0  0  0  0  0  0
   -0.1354    3.7775   -7.9500 H   0  0  0  0  0  0  0  0  0  0  0  0
    0.9224    4.7699   -8.9471 H   0  0  0  0  0  0  0  0  0  0  0  0
   -1.8359    3.0252   -6.6020 H   0  0  0  0  0  0  0  0  0  0  0  0
   -0.0415    0.5978   -8.5123 H   0  0  0  0  0  0  0  0  0  0  0  0
    1.9142    2.0299   -8.7721 H   0  0  0  0  0  0  0  0  0  0  0  0
    4.2538    2.3846   -8.9573 H   0  0  0  0  0  0  0  0  0  0  0  0
    3.2965    3.9014   -8.9567 H   0  0  0  0  0  0  0  0  0  0  0  0
    5.0230    3.9329   -8.5442 H   0  0  0  0  0  0  0  0  0  0  0  0
    2.5603    1.9213   -4.5458 H   0  0  0  0  0  0  0  0  0  0  0  0
    0.6336    0.4104   -4.2970 H   0  0  0  0  0  0  0  0  0  0  0  0
    0.8858   -1.7854   -7.5681 H   0  0  0  0  0  0  0  0  0  0  0  0
    0.4728   -3.7082   -9.0456 H   0  0  0  0  0  0  0  0  0  0  0  0
   -3.7452   -5.7587   -8.5743 H   0  0  0  0  0  0  0  0  0  0  0  0
   -4.2094   -4.8333  -10.0402 H   0  0  0  0  0  0  0  0  0  0  0  0
   -3.6457   -6.5115  -10.1823 H   0  0  0  0  0  0  0  0  0  0  0  0
   -3.7224   -3.3954   -8.2757 H   0  0  0  0  0  0  0  0  0  0  0  0
   -3.3159   -1.4792   -6.8351 H   0  0  0  0  0  0  0  0  0  0  0  0
   -0.6807   -0.5999   -1.3222 H   0  0  0  0  0  0  0  0  0  0  0  0
    0.1387    1.4849   -0.3298 H   0  0  0  0  0  0  0  0  0  0  0  0
   -2.8378    3.8631    2.8816 H   0  0  0  0  0  0  0  0  0  0  0  0
   -1.7965    2.6220    3.6479 H   0  0  0  0  0  0  0  0  0  0  0  0
   -1.2762    4.3220    3.5936 H   0  0  0  0  0  0  0  0  0  0  0  0
   -3.4409    1.7838    1.9913 H   0  0  0  0  0  0  0  0  0  0  0  0
   -4.2523   -0.2986    1.0115 H   0  0  0  0  0  0  0  0  0  0  0  0
   -4.7439   -3.6843   -1.4939 H   0  0  0  0  0  0  0  0  0  0  0  0
   -5.5996   -5.4728   -0.0832 H   0  0  0  0  0  0  0  0  0  0  0  0
   -6.6710   -7.7765    2.5689 H   0  0  0  0  0  0  0  0  0  0  0  0
   -7.0685   -6.3657    1.5630 H   0  0  0  0  0  0  0  0  0  0  0  0
   -5.8373   -7.5549    1.0166 H   0  0  0  0  0  0  0  0  0  0  0  0
   -3.3612   -3.9412    3.2216 H   0  0  0  0  0  0  0  0  0  0  0  0
   -2.4883   -2.1473    1.7938 H   0  0  0  0  0  0  0  0  0  0  0  0
   -0.3385   -2.7059   -0.6535 H   0  0  0  0  0  0  0  0  0  0  0  0
   -0.6062   -1.8622    3.4376 H   0  0  0  0  0  0  0  0  0  0  0  0
    0.7539    0.2655    2.9195 H   0  0  0  0  0  0  0  0  0  0  0  0
    3.3413   -0.5243   -0.0133 H   0  0  0  0  0  0  0  0  0  0  0  0
    3.7527    1.7048    0.0735 H   0  0  0  0  0  0  0  0  0  0  0  0
    2.2667    1.5204    3.6521 H   0  0  0  0  0  0  0  0  0  0  0  0
    1.6074    3.8719    4.5041 H   0  0  0  0  0  0  0  0  0  0  0  0
    2.7494    6.6444    2.6954 H   0  0  0  0  0  0  0  0  0  0  0  0
    1.3065    6.2972    3.6531 H   0  0  0  0  0  0  0  0  0  0  0  0
    0.7395    7.7327    1.7103 H   0  0  0  0  0  0  0  0  0  0  0  0
   -0.0231    6.1464    1.5087 H   0  0  0  0  0  0  0  0  0  0  0  0
    1.4333    6.5445    0.6039 H   0  0  0  0  0  0  0  0  0  0  0  0
   -3.7587   -7.3499   -0.4835 H   0  0  0  0  0  0  0  0  0  0  0  0
   -4.5244   -9.8042   -0.5783 H   0  0  0  0  0  0  0  0  0  0  0  0
   -3.7682  -12.0822    0.1720 H   0  0  0  0  0  0  0  0  0  0  0  0
   -3.0444  -13.6208    1.7717 H   0  0  0  0  0  0  0  0  0  0  0  0
   -3.4812  -10.5047    3.9744 H   0  0  0  0  0  0  0  0  0  0  0  0
   -2.3255  -10.7494    6.2898 H   0  0  0  0  0  0  0  0  0  0  0  0
   -0.4632  -12.1684    7.4217 H   0  0  0  0  0  0  0  0  0  0  0  0
    0.3004  -13.4469    6.4588 H   0  0  0  0  0  0  0  0  0  0  0  0
   -0.8691  -14.4140    8.4238 H   0  0  0  0  0  0  0  0  0  0  0  0
   -1.6296  -14.9568    6.9235 H   0  0  0  0  0  0  0  0  0  0  0  0
   -2.3894  -13.6895    7.8917 H   0  0  0  0  0  0  0  0  0  0  0  0
   -1.9291   -7.8039    3.9833 H   0  0  0  0  0  0  0  0  0  0  0  0
   -1.4778   -7.6021    6.3561 H   0  0  0  0  0  0  0  0  0  0  0  0
   -0.6512   -2.0317    9.0887 H   0  0  0  0  0  0  0  0  0  0  0  0
   -1.9427   -1.5031   12.4995 H   0  0  0  0  0  0  0  0  0  0  0  0
   -1.3105   -0.7138   11.0439 H   0  0  0  0  0  0  0  0  0  0  0  0
   -0.2063   -1.4191   12.2228 H   0  0  0  0  0  0  0  0  0  0  0  0
   -1.7669   -3.9688   12.7404 H   0  0  0  0  0  0  0  0  0  0  0  0
   -1.8017   -6.1446   11.6289 H   0  0  0  0  0  0  0  0  0  0  0  0
  1  2  2  0  0  0  0
  2  3  1  0  0  0  0
  3  4  2  0  0  0  0
  3  5  1  0  0  0  0
  5  6  2  0  0  0  0
  6  7  1  0  0  0  0
  7  8  2  0  0  0  0
  8  9  1  0  0  0  0
  9 10  2  0  0  0  0
 10 11  1  0  0  0  0
 11 12  2  0  0  0  0
 12 13  1  0  0  0  0
 13 14  3  0  0  0  0
 12 15  1  0  0  0  0
 15 16  3  0  0  0  0
  8 17  1  0  0  0  0
 17 18  1  0  0  0  0
 18 19  1  0  0  0  0
 19 20  2  0  0  0  0
 20 21  1  0  0  0  0
 21 22  1  0  0  0  0
 21 23  1  0  0  0  0
  1 24  1  0  0  0  0
 24 25  2  0  0  0  0
 25 26  1  0  0  0  0
 26 27  1  0  0  0  0
 25 28  1  0  0  0  0
 28 29  2  0  0  0  0
 29 30  1  0  0  0  0
 29 31  1  0  0  0  0
 31 32  2  0  0  0  0
 32 33  1  0  0  0  0
 33 34  1  0  0  0  0
 34 35  1  0  0  0  0
 33 36  1  0  0  0  0
 36 37  1  0  0  0  0
 32 38  1  0  0  0  0
 38 39  2  0  0  0  0
 39 40  1  0  0  0  0
 39 41  1  0  0  0  0
 41 42  2  0  0  0  0
 42 43  1  0  0  0  0
 43 44  1  0  0  0  0
 44 45  2  0  0  0  0
 45 46  1  0  0  0  0
 46 47  2  0  0  0  0
 47 48  1  0  0  0  0
 48 49  1  0  0  0  0
 47 50  1  0  0  0  0
 50 51  2  0  0  0  0
 43 52  1  0  0  0  0
 52 53  2  0  0  0  0
 53 54  1  0  0  0  0
 54 55  2  0  0  0  0
 55 56  1  0  0  0  0
 56 57  1  0  0  0  0
 55 58  1  0  0  0  0
 58 59  2  0  0  0  0
 42 60  1  0  0  0  0
 60 61  1  0  0  0  0
 61 62  1  0  0  0  0
 62 63  2  0  0  0  0
 63 64  1  0  0  0  0
 64 65  1  0  0  0  0
 65 66  2  0  0  0  0
 66 67  1  0  0  0  0
 67 68  2  0  0  0  0
 68 69  1  0  0  0  0
 69 70  1  0  0  0  0
 68 71  1  0  0  0  0
 71 72  2  0  0  0  0
 64 73  1  0  0  0  0
 73 74  2  0  0  0  0
 74 75  1  0  0  0  0
 75 76  2  0  0  0  0
 76 77  1  0  0  0  0
 77 78  1  0  0  0  0
 76 79  1  0  0  0  0
 79 80  2  0  0  0  0
 63 81  1  0  0  0  0
 81 82  1  0  0  0  0
 62 83  1  0  0  0  0
 83 84  2  0  0  0  0
 84 85  1  0  0  0  0
 85 86  2  0  0  0  0
 86 87  1  0  0  0  0
 87 88  2  0  0  0  0
 88 89  1  0  0  0  0
 89 90  2  0  0  0  0
 90 91  1  0  0  0  0
 91 92  2  0  0  0  0
 92 93  1  0  0  0  0
 93 94  2  0  0  0  0
 94 95  1  0  0  0  0
 95 96  2  0  0  0  0
 96 97  1  0  0  0  0
 97 98  1  0  0  0  0
 96 99  1  0  0  0  0
 90100  1  0  0  0  0
 86101  1  0  0  0  0
101102  2  0  0  0  0
102103  1  0  0  0  0
103104  1  0  0  0  0
104105  2  0  0  0  0
105106  1  0  0  0  0
106107  2  0  0  0  0
107108  1  0  0  0  0
108109  2  0  0  0  0
109110  1  0  0  0  0
110111  2  0  0  0  0
111112  1  0  0  0  0
112113  2  0  0  0  0
113114  1  0  0  0  0
114115  1  0  0  0  0
113116  1  0  0  0  0
107117  1  0  0  0  0
103118  2  0  0  0  0
118119  1  0  0  0  0
102120  1  0  0  0  0
120121  2  0  0  0  0
121122  1  0  0  0  0
121123  1  0  0  0  0
123124  2  0  0  0  0
124125  1  0  0  0  0
125126  2  0  0  0  0
125127  1  0  0  0  0
127128  2  0  0  0  0
128129  1  0  0  0  0
129130  1  0  0  0  0
129131  2  0  0  0  0
131132  1  0  0  0  0
132133  2  0  0  0  0
133134  1  0  0  0  0
134135  2  0  0  0  0
135136  1  0  0  0  0
136137  3  0  0  0  0
135138  1  0  0  0  0
138139  3  0  0  0  0
 11  2  1  0  0  0  0
 23 17  1  0  0  0  0
 30 24  1  0  0  0  0
 40 31  1  0  0  0  0
 82 41  1  0  0  0  0
119 83  1  0  0  0  0
134124  1  0  0  0  0
 10  5  1  0  0  0  0
 22 18  1  0  0  0  0
 33 28  1  0  0  0  0
 51 44  1  0  0  0  0
 59 52  1  0  0  0  0
 81 60  2  0  0  0  0
118 85  1  0  0  0  0
133127  1  0  0  0  0
 23  7  1  0  0  0  0
 72 65  1  0  0  0  0
 80 73  1  0  0  0  0
100 87  1  0  0  0  0
122101  1  0  0  0  0
 99 93  1  0  0  0  0
117104  1  0  0  0  0
116110  1  0  0  0  0
  1140  1  0  0  0  0
  6141  1  0  0  0  0
  9142  1  0  0  0  0
 17143  1  0  0  0  0
 18144  1  0  0  0  0
 19145  1  0  0  0  0
 20146  1  0  0  0  0
 21147  1  0  0  0  0
 22148  1  0  0  0  0
 22149  1  0  0  0  0
 23150  1  0  0  0  0
 26151  1  0  0  0  0
 26152  1  0  0  0  0
 27153  1  0  0  0  0
 27154  1  0  0  0  0
 27155  1  0  0  0  0
 34156  1  0  0  0  0
 34157  1  0  0  0  0
 35158  1  0  0  0  0
 35159  1  0  0  0  0
 35160  1  0  0  0  0
 36161  1  0  0  0  0
 36162  1  0  0  0  0
 37163  1  0  0  0  0
 37164  1  0  0  0  0
 37165  1  0  0  0  0
 38166  1  0  0  0  0
 45167  1  0  0  0  0
 46168  1  0  0  0  0
 49169  1  0  0  0  0
 49170  1  0  0  0  0
 49171  1  0  0  0  0
 50172  1  0  0  0  0
 51173  1  0  0  0  0
 53174  1  0  0  0  0
 54175  1  0  0  0  0
 57176  1  0  0  0  0
 57177  1  0  0  0  0
 57178  1  0  0  0  0
 58179  1  0  0  0  0
 59180  1  0  0  0  0
 66181  1  0  0  0  0
 67182  1  0  0  0  0
 70183  1  0  0  0  0
 70184  1  0  0  0  0
 70185  1  0  0  0  0
 71186  1  0  0  0  0
 72187  1  0  0  0  0
 74188  1  0  0  0  0
 75189  1  0  0  0  0
 78190  1  0  0  0  0
 78191  1  0  0  0  0
 78192  1  0  0  0  0
 79193  1  0  0  0  0
 80194  1  0  0  0  0
 84195  1  0  0  0  0
 88196  1  0  0  0  0
 89197  1  0  0  0  0
 91198  1  0  0  0  0
 92199  1  0  0  0  0
 94200  1  0  0  0  0
 95201  1  0  0  0  0
 97202  1  0  0  0  0
 97203  1  0  0  0  0
 98204  1  0  0  0  0
 98205  1  0  0  0  0
 98206  1  0  0  0  0
105207  1  0  0  0  0
106208  1  0  0  0  0
108209  1  0  0  0  0
109210  1  0  0  0  0
111211  1  0  0  0  0
112212  1  0  0  0  0
114213  1  0  0  0  0
114214  1  0  0  0  0
115215  1  0  0  0  0
115216  1  0  0  0  0
115217  1  0  0  0  0
120218  1  0  0  0  0
123219  1  0  0  0  0
128220  1  0  0  0  0
130221  1  0  0  0  0
130222  1  0  0  0  0
130223  1  0  0  0  0
131224  1  0  0  0  0
132225  1  0  0  0  0
M  END
