
  xtb     02052209263D
 energy: -291.330261406356 gnorm: 0.000262492583 xtb: 6.4.1 (unknown)
179198  0     0  0            999 V2000
    6.8529   -3.8462   -0.3905 C   0  0  0  0  0  0  0  0  0  0  0  0
    7.7445   -3.4016   -1.3416 C   0  0  0  0  0  0  0  0  0  0  0  0
    7.5974   -2.2246   -2.1960 C   0  0  0  0  0  0  0  0  0  0  0  0
    6.6212   -1.4979   -2.3119 O   0  0  0  0  0  0  0  0  0  0  0  0
    8.8675   -2.0779   -2.9272 C   0  0  0  0  0  0  0  0  0  0  0  0
    9.2016   -1.0792   -3.8382 C   0  0  0  0  0  0  0  0  0  0  0  0
   10.4657   -1.2032   -4.3632 C   0  0  0  0  0  0  0  0  0  0  0  0
   11.3329   -2.2435   -4.0067 C   0  0  0  0  0  0  0  0  0  0  0  0
   11.0137   -3.2358   -3.1092 C   0  0  0  0  0  0  0  0  0  0  0  0
    9.7327   -3.1289   -2.5629 C   0  0  0  0  0  0  0  0  0  0  0  0
    9.0355   -3.9924   -1.6085 C   0  0  0  0  0  0  0  0  0  0  0  0
    9.5259   -5.1741   -1.1057 C   0  0  0  0  0  0  0  0  0  0  0  0
   10.8222   -5.6689   -1.3522 C   0  0  0  0  0  0  0  0  0  0  0  0
   11.8667   -6.1260   -1.4931 N   0  0  0  0  0  0  0  0  0  0  0  0
    8.8040   -6.0911   -0.3183 C   0  0  0  0  0  0  0  0  0  0  0  0
    8.2737   -6.9143    0.2850 N   0  0  0  0  0  0  0  0  0  0  0  0
   12.4349   -1.7400   -4.9049 C   0  0  0  0  0  0  0  0  0  0  0  0
   13.6170   -0.9881   -4.2449 C   0  0  0  0  0  0  0  0  0  0  0  0
   13.0812   -0.3766   -2.9743 C   0  0  0  0  0  0  0  0  0  0  0  0
   12.2599    0.6081   -3.3136 C   0  0  0  0  0  0  0  0  0  0  0  0
   12.2255    0.6801   -4.8201 C   0  0  0  0  0  0  0  0  0  0  0  0
   13.6672    0.2573   -5.1444 C   0  0  0  0  0  0  0  0  0  0  0  0
   11.4676   -0.5810   -5.3035 C   0  0  0  0  0  0  0  0  0  0  0  0
    5.5925   -3.3720   -0.0333 C   0  0  0  0  0  0  0  0  0  0  0  0
    4.7891   -3.9826    0.9634 C   0  0  0  0  0  0  0  0  0  0  0  0
    5.1992   -4.9593    1.8344 N   0  0  0  0  0  0  0  0  0  0  0  0
    6.4745   -4.9551    2.4241 C   0  0  0  0  0  0  0  0  0  0  0  0
    7.0982   -6.1606    2.7483 C   0  0  0  0  0  0  0  0  0  0  0  0
    8.3430   -6.1578    3.3362 C   0  0  0  0  0  0  0  0  0  0  0  0
    8.9997   -4.9579    3.6025 C   0  0  0  0  0  0  0  0  0  0  0  0
   10.5970   -5.0853    4.3374 S   0  0  0  0  0  0  0  0  0  0  0  0
   11.1738   -3.3665    4.4430 C   0  0  0  0  0  0  0  0  0  0  0  0
    8.3753   -3.7557    3.2922 C   0  0  0  0  0  0  0  0  0  0  0  0
    7.1207   -3.7565    2.7168 C   0  0  0  0  0  0  0  0  0  0  0  0
    4.2560   -5.9105    2.2647 C   0  0  0  0  0  0  0  0  0  0  0  0
    4.1520   -6.2564    3.6117 C   0  0  0  0  0  0  0  0  0  0  0  0
    3.2180   -7.1822    4.0153 C   0  0  0  0  0  0  0  0  0  0  0  0
    2.3659   -7.7821    3.0879 C   0  0  0  0  0  0  0  0  0  0  0  0
    1.2066   -8.9427    3.7312 S   0  0  0  0  0  0  0  0  0  0  0  0
    0.2959   -9.5145    2.2687 C   0  0  0  0  0  0  0  0  0  0  0  0
    2.4727   -7.4449    1.7452 C   0  0  0  0  0  0  0  0  0  0  0  0
    3.4129   -6.5184    1.3398 C   0  0  0  0  0  0  0  0  0  0  0  0
    3.4898   -3.4475    0.9562 C   0  0  0  0  0  0  0  0  0  0  0  0
    2.0570   -3.7618    1.8823 S   0  0  0  0  0  0  0  0  0  0  0  0
    1.2112   -2.4772    1.0290 C   0  0  0  0  0  0  0  0  0  0  0  0
    2.0290   -1.7972    0.1328 C   0  0  0  0  0  0  0  0  0  0  0  0
    1.6908   -0.6388   -0.5446 N   0  0  0  0  0  0  0  0  0  0  0  0
    2.3382   -0.3454   -1.7549 C   0  0  0  0  0  0  0  0  0  0  0  0
    2.7861    0.9481   -2.0180 C   0  0  0  0  0  0  0  0  0  0  0  0
    3.5086    1.2101   -3.1610 C   0  0  0  0  0  0  0  0  0  0  0  0
    3.8004    0.1860   -4.0555 C   0  0  0  0  0  0  0  0  0  0  0  0
    4.8125    0.5587   -5.4561 S   0  0  0  0  0  0  0  0  0  0  0  0
    5.7708   -0.9804   -5.6050 C   0  0  0  0  0  0  0  0  0  0  0  0
    3.2977   -1.0876   -3.8326 C   0  0  0  0  0  0  0  0  0  0  0  0
    2.5687   -1.3503   -2.6906 C   0  0  0  0  0  0  0  0  0  0  0  0
    0.7914    0.2832    0.0067 C   0  0  0  0  0  0  0  0  0  0  0  0
   -0.1262    0.9390   -0.8115 C   0  0  0  0  0  0  0  0  0  0  0  0
   -1.1267    1.7210   -0.2674 C   0  0  0  0  0  0  0  0  0  0  0  0
   -1.2291    1.8589    1.1100 C   0  0  0  0  0  0  0  0  0  0  0  0
   -2.5397    2.7106    1.9321 S   0  0  0  0  0  0  0  0  0  0  0  0
   -3.5921    3.3141    0.5838 C   0  0  0  0  0  0  0  0  0  0  0  0
   -0.2584    1.2805    1.9262 C   0  0  0  0  0  0  0  0  0  0  0  0
    0.7453    0.5114    1.3834 C   0  0  0  0  0  0  0  0  0  0  0  0
    3.3151   -2.3926    0.0698 C   0  0  0  0  0  0  0  0  0  0  0  0
    4.7411   -2.0551   -0.8462 S   0  0  0  0  0  0  0  0  0  0  0  0
   -0.1500   -2.2113    1.3652 C   0  0  0  0  0  0  0  0  0  0  0  0
   -1.3193   -1.7814    0.1396 S   0  0  0  0  0  0  0  0  0  0  0  0
   -2.4791   -1.4283    1.3597 C   0  0  0  0  0  0  0  0  0  0  0  0
   -3.7601   -0.8436    1.2600 C   0  0  0  0  0  0  0  0  0  0  0  0
   -4.4426   -0.6283    2.4514 C   0  0  0  0  0  0  0  0  0  0  0  0
   -3.3547   -1.2126    3.8844 Si  0  0  0  0  0  4  0  0  0  0  0  0
   -4.0970   -2.6929    4.8283 C   0  0  0  0  0  0  0  0  0  0  0  0
   -3.1258   -3.2695    5.8534 C   0  0  0  0  0  0  0  0  0  0  0  0
   -2.7994    0.2340    4.9948 C   0  0  0  0  0  0  0  0  0  0  0  0
   -3.9028    0.7039    5.9371 C   0  0  0  0  0  0  0  0  0  0  0  0
   -2.0217   -1.7143    2.6398 C   0  0  0  0  0  0  0  0  0  0  0  0
   -0.7075   -2.1772    2.6262 C   0  0  0  0  0  0  0  0  0  0  0  0
   -5.6615    0.0083    2.2440 C   0  0  0  0  0  0  0  0  0  0  0  0
   -5.9181    0.2916    0.9164 C   0  0  0  0  0  0  0  0  0  0  0  0
   -4.6135   -0.2594   -0.1156 S   0  0  0  0  0  0  0  0  0  0  0  0
   -7.0494    0.9467    0.3697 C   0  0  0  0  0  0  0  0  0  0  0  0
   -7.2534    1.3247   -0.9388 C   0  0  0  0  0  0  0  0  0  0  0  0
   -8.4662    1.9916   -1.1576 C   0  0  0  0  0  0  0  0  0  0  0  0
   -9.0571    2.4750   -2.7176 S   0  0  0  0  0  0  0  0  0  0  0  0
   -8.1967    1.3011   -3.8426 C   0  0  0  0  0  0  0  0  0  0  0  0
   -6.9365    1.8957   -4.4432 C   0  0  0  0  0  0  0  0  0  0  0  0
   -9.2265    2.1318    0.0109 C   0  0  0  0  0  0  0  0  0  0  0  0
   -8.3949    1.3950    1.3685 S   0  0  0  0  0  0  0  0  0  0  0  0
  -10.5258    2.6077    0.2324 C   0  0  0  0  0  0  0  0  0  0  0  0
  -11.1960    3.5727   -0.4775 C   0  0  0  0  0  0  0  0  0  0  0  0
  -10.5512    4.6210   -1.2789 C   0  0  0  0  0  0  0  0  0  0  0  0
   -9.3669    4.7129   -1.5548 O   0  0  0  0  0  0  0  0  0  0  0  0
  -11.6084    5.6033   -1.5871 C   0  0  0  0  0  0  0  0  0  0  0  0
  -11.4672    6.7976   -2.2894 C   0  0  0  0  0  0  0  0  0  0  0  0
  -12.6284    7.5261   -2.3950 C   0  0  0  0  0  0  0  0  0  0  0  0
  -13.8432    7.1000   -1.8434 C   0  0  0  0  0  0  0  0  0  0  0  0
  -13.9978    5.9239   -1.1486 C   0  0  0  0  0  0  0  0  0  0  0  0
  -12.8274    5.1696   -1.0275 C   0  0  0  0  0  0  0  0  0  0  0  0
  -12.6019    3.8887   -0.3633 C   0  0  0  0  0  0  0  0  0  0  0  0
  -13.5656    3.0814    0.1852 C   0  0  0  0  0  0  0  0  0  0  0  0
  -13.3215    1.7959    0.7117 C   0  0  0  0  0  0  0  0  0  0  0  0
  -13.2035    0.7331    1.1314 N   0  0  0  0  0  0  0  0  0  0  0  0
  -14.9346    3.4068    0.2594 C   0  0  0  0  0  0  0  0  0  0  0  0
  -16.0600    3.6134    0.3594 N   0  0  0  0  0  0  0  0  0  0  0  0
  -14.5820    8.3277   -2.3156 C   0  0  0  0  0  0  0  0  0  0  0  0
  -14.8740    9.4069   -1.2518 C   0  0  0  0  0  0  0  0  0  0  0  0
  -15.1502   10.6513   -2.0642 C   0  0  0  0  0  0  0  0  0  0  0  0
  -13.9993   11.0561   -2.5859 C   0  0  0  0  0  0  0  0  0  0  0  0
  -12.9259   10.0920   -2.1347 C   0  0  0  0  0  0  0  0  0  0  0  0
  -13.4632    9.7314   -0.7437 C   0  0  0  0  0  0  0  0  0  0  0  0
  -13.2270    8.8039   -2.9305 C   0  0  0  0  0  0  0  0  0  0  0  0
    7.1689   -4.7119    0.1772 H   0  0  0  0  0  0  0  0  0  0  0  0
    8.5053   -0.2918   -4.0815 H   0  0  0  0  0  0  0  0  0  0  0  0
   11.6939   -4.0286   -2.8469 H   0  0  0  0  0  0  0  0  0  0  0  0
   12.7628   -2.4227   -5.6864 H   0  0  0  0  0  0  0  0  0  0  0  0
   14.5270   -1.5742   -4.1486 H   0  0  0  0  0  0  0  0  0  0  0  0
   13.3025   -0.7494   -1.9913 H   0  0  0  0  0  0  0  0  0  0  0  0
   11.6572    1.2228   -2.6708 H   0  0  0  0  0  0  0  0  0  0  0  0
   11.8688    1.6133   -5.2482 H   0  0  0  0  0  0  0  0  0  0  0  0
   14.4048    0.9868   -4.8134 H   0  0  0  0  0  0  0  0  0  0  0  0
   13.8251    0.0260   -6.1969 H   0  0  0  0  0  0  0  0  0  0  0  0
   11.1633   -0.5078   -6.3460 H   0  0  0  0  0  0  0  0  0  0  0  0
    6.6084   -7.0948    2.5260 H   0  0  0  0  0  0  0  0  0  0  0  0
    8.8305   -7.0888    3.5774 H   0  0  0  0  0  0  0  0  0  0  0  0
   11.2052   -2.9240    3.4516 H   0  0  0  0  0  0  0  0  0  0  0  0
   12.1774   -3.4221    4.8529 H   0  0  0  0  0  0  0  0  0  0  0  0
   10.5351   -2.7968    5.1118 H   0  0  0  0  0  0  0  0  0  0  0  0
    8.8480   -2.8100    3.5027 H   0  0  0  0  0  0  0  0  0  0  0  0
    6.6390   -2.8170    2.4884 H   0  0  0  0  0  0  0  0  0  0  0  0
    4.8027   -5.7895    4.3354 H   0  0  0  0  0  0  0  0  0  0  0  0
    3.1294   -7.4493    5.0570 H   0  0  0  0  0  0  0  0  0  0  0  0
   -0.2220   -8.6807    1.8037 H   0  0  0  0  0  0  0  0  0  0  0  0
    0.9755   -9.9983    1.5733 H   0  0  0  0  0  0  0  0  0  0  0  0
   -0.4258  -10.2359    2.6390 H   0  0  0  0  0  0  0  0  0  0  0  0
    1.8365   -7.8981    1.0027 H   0  0  0  0  0  0  0  0  0  0  0  0
    3.5008   -6.2664    0.2931 H   0  0  0  0  0  0  0  0  0  0  0  0
    2.5912    1.7350   -1.3045 H   0  0  0  0  0  0  0  0  0  0  0  0
    3.8816    2.2035   -3.3562 H   0  0  0  0  0  0  0  0  0  0  0  0
    6.0335   -1.3146   -4.6057 H   0  0  0  0  0  0  0  0  0  0  0  0
    5.1999   -1.7366   -6.1365 H   0  0  0  0  0  0  0  0  0  0  0  0
    6.6628   -0.7332   -6.1722 H   0  0  0  0  0  0  0  0  0  0  0  0
    3.4752   -1.8813   -4.5407 H   0  0  0  0  0  0  0  0  0  0  0  0
    2.1793   -2.3426   -2.5151 H   0  0  0  0  0  0  0  0  0  0  0  0
   -0.0779    0.7988   -1.8809 H   0  0  0  0  0  0  0  0  0  0  0  0
   -1.8367    2.1887   -0.9295 H   0  0  0  0  0  0  0  0  0  0  0  0
   -3.9488    2.4787   -0.0112 H   0  0  0  0  0  0  0  0  0  0  0  0
   -4.4314    3.8068    1.0650 H   0  0  0  0  0  0  0  0  0  0  0  0
   -3.0441    4.0281   -0.0241 H   0  0  0  0  0  0  0  0  0  0  0  0
   -0.3100    1.4303    2.9935 H   0  0  0  0  0  0  0  0  0  0  0  0
    1.4870    0.0630    2.0268 H   0  0  0  0  0  0  0  0  0  0  0  0
   -4.3873   -3.4781    4.1288 H   0  0  0  0  0  0  0  0  0  0  0  0
   -5.0080   -2.3763    5.3364 H   0  0  0  0  0  0  0  0  0  0  0  0
   -2.8490   -2.5169    6.5872 H   0  0  0  0  0  0  0  0  0  0  0  0
   -2.2192   -3.6204    5.3669 H   0  0  0  0  0  0  0  0  0  0  0  0
   -3.5760   -4.1083    6.3807 H   0  0  0  0  0  0  0  0  0  0  0  0
   -1.9313   -0.0686    5.5814 H   0  0  0  0  0  0  0  0  0  0  0  0
   -2.4854    1.0734    4.3724 H   0  0  0  0  0  0  0  0  0  0  0  0
   -4.2192   -0.1005    6.5966 H   0  0  0  0  0  0  0  0  0  0  0  0
   -4.7671    1.0433    5.3727 H   0  0  0  0  0  0  0  0  0  0  0  0
   -3.5536    1.5307    6.5523 H   0  0  0  0  0  0  0  0  0  0  0  0
   -0.1398   -2.4258    3.5055 H   0  0  0  0  0  0  0  0  0  0  0  0
   -6.3529    0.2750    3.0237 H   0  0  0  0  0  0  0  0  0  0  0  0
   -6.5203    1.1283   -1.6997 H   0  0  0  0  0  0  0  0  0  0  0  0
   -8.0031    0.3815   -3.2942 H   0  0  0  0  0  0  0  0  0  0  0  0
   -8.9302    1.0993   -4.6228 H   0  0  0  0  0  0  0  0  0  0  0  0
   -7.1780    2.7969   -5.0013 H   0  0  0  0  0  0  0  0  0  0  0  0
   -6.4739    1.1794   -5.1197 H   0  0  0  0  0  0  0  0  0  0  0  0
   -6.2166    2.1600   -3.6722 H   0  0  0  0  0  0  0  0  0  0  0  0
  -11.0257    2.1729    1.0902 H   0  0  0  0  0  0  0  0  0  0  0  0
  -10.5135    7.0883   -2.7013 H   0  0  0  0  0  0  0  0  0  0  0  0
  -14.9372    5.6094   -0.7251 H   0  0  0  0  0  0  0  0  0  0  0  0
  -15.4228    8.1492   -2.9832 H   0  0  0  0  0  0  0  0  0  0  0  0
  -15.6211    9.1280   -0.5138 H   0  0  0  0  0  0  0  0  0  0  0  0
  -16.1306   11.0630   -2.2166 H   0  0  0  0  0  0  0  0  0  0  0  0
  -13.8264   11.8735   -3.2614 H   0  0  0  0  0  0  0  0  0  0  0  0
  -11.8979   10.4386   -2.2002 H   0  0  0  0  0  0  0  0  0  0  0  0
  -13.4557   10.5835   -0.0658 H   0  0  0  0  0  0  0  0  0  0  0  0
  -12.9554    8.8898   -0.2764 H   0  0  0  0  0  0  0  0  0  0  0  0
  -13.1653    8.9451   -4.0080 H   0  0  0  0  0  0  0  0  0  0  0  0
  1  2  2  0  0  0  0
  2  3  1  0  0  0  0
  3  4  2  0  0  0  0
  3  5  1  0  0  0  0
  5  6  2  0  0  0  0
  6  7  1  0  0  0  0
  7  8  2  0  0  0  0
  8  9  1  0  0  0  0
  9 10  2  0  0  0  0
 10 11  1  0  0  0  0
 11 12  2  0  0  0  0
 12 13  1  0  0  0  0
 13 14  3  0  0  0  0
 12 15  1  0  0  0  0
 15 16  3  0  0  0  0
  8 17  1  0  0  0  0
 17 18  1  0  0  0  0
 18 19  1  0  0  0  0
 19 20  2  0  0  0  0
 20 21  1  0  0  0  0
 21 22  1  0  0  0  0
 21 23  1  0  0  0  0
  1 24  1  0  0  0  0
 24 25  2  0  0  0  0
 25 26  1  0  0  0  0
 26 27  1  0  0  0  0
 27 28  2  0  0  0  0
 28 29  1  0  0  0  0
 29 30  2  0  0  0  0
 30 31  1  0  0  0  0
 31 32  1  0  0  0  0
 30 33  1  0  0  0  0
 33 34  2  0  0  0  0
 26 35  1  0  0  0  0
 35 36  2  0  0  0  0
 36 37  1  0  0  0  0
 37 38  2  0  0  0  0
 38 39  1  0  0  0  0
 39 40  1  0  0  0  0
 38 41  1  0  0  0  0
 41 42  2  0  0  0  0
 25 43  1  0  0  0  0
 43 44  1  0  0  0  0
 44 45  1  0  0  0  0
 45 46  2  0  0  0  0
 46 47  1  0  0  0  0
 47 48  1  0  0  0  0
 48 49  2  0  0  0  0
 49 50  1  0  0  0  0
 50 51  2  0  0  0  0
 51 52  1  0  0  0  0
 52 53  1  0  0  0  0
 51 54  1  0  0  0  0
 54 55  2  0  0  0  0
 47 56  1  0  0  0  0
 56 57  2  0  0  0  0
 57 58  1  0  0  0  0
 58 59  2  0  0  0  0
 59 60  1  0  0  0  0
 60 61  1  0  0  0  0
 59 62  1  0  0  0  0
 62 63  2  0  0  0  0
 46 64  1  0  0  0  0
 64 65  1  0  0  0  0
 45 66  1  0  0  0  0
 66 67  1  0  0  0  0
 67 68  1  0  0  0  0
 68 69  1  0  0  0  0
 69 70  2  0  0  0  0
 70 71  1  0  0  0  0
 71 72  1  0  0  0  0
 72 73  1  0  0  0  0
 71 74  1  0  0  0  0
 74 75  1  0  0  0  0
 71 76  1  0  0  0  0
 76 77  1  0  0  0  0
 70 78  1  0  0  0  0
 78 79  2  0  0  0  0
 79 80  1  0  0  0  0
 79 81  1  0  0  0  0
 81 82  2  0  0  0  0
 82 83  1  0  0  0  0
 83 84  1  0  0  0  0
 84 85  1  0  0  0  0
 85 86  1  0  0  0  0
 83 87  2  0  0  0  0
 87 88  1  0  0  0  0
 87 89  1  0  0  0  0
 89 90  2  0  0  0  0
 90 91  1  0  0  0  0
 91 92  2  0  0  0  0
 91 93  1  0  0  0  0
 93 94  2  0  0  0  0
 94 95  1  0  0  0  0
 95 96  2  0  0  0  0
 96 97  1  0  0  0  0
 97 98  2  0  0  0  0
 98 99  1  0  0  0  0
 99100  2  0  0  0  0
100101  1  0  0  0  0
101102  3  0  0  0  0
100103  1  0  0  0  0
103104  3  0  0  0  0
 96105  1  0  0  0  0
105106  1  0  0  0  0
106107  1  0  0  0  0
107108  2  0  0  0  0
108109  1  0  0  0  0
109110  1  0  0  0  0
109111  1  0  0  0  0
 11  2  1  0  0  0  0
 23 17  1  0  0  0  0
 65 24  1  0  0  0  0
 77 66  2  0  0  0  0
 88 81  1  0  0  0  0
 99 90  1  0  0  0  0
111105  1  0  0  0  0
 10  5  1  0  0  0  0
 22 18  1  0  0  0  0
 34 27  1  0  0  0  0
 42 35  1  0  0  0  0
 64 43  2  0  0  0  0
 76 68  2  0  0  0  0
 98 93  1  0  0  0  0
110106  1  0  0  0  0
 23  7  1  0  0  0  0
 55 48  1  0  0  0  0
 63 56  1  0  0  0  0
 80 69  1  0  0  0  0
111 95  1  0  0  0  0
  1112  1  0  0  0  0
  6113  1  0  0  0  0
  9114  1  0  0  0  0
 17115  1  0  0  0  0
 18116  1  0  0  0  0
 19117  1  0  0  0  0
 20118  1  0  0  0  0
 21119  1  0  0  0  0
 22120  1  0  0  0  0
 22121  1  0  0  0  0
 23122  1  0  0  0  0
 28123  1  0  0  0  0
 29124  1  0  0  0  0
 32125  1  0  0  0  0
 32126  1  0  0  0  0
 32127  1  0  0  0  0
 33128  1  0  0  0  0
 34129  1  0  0  0  0
 36130  1  0  0  0  0
 37131  1  0  0  0  0
 40132  1  0  0  0  0
 40133  1  0  0  0  0
 40134  1  0  0  0  0
 41135  1  0  0  0  0
 42136  1  0  0  0  0
 49137  1  0  0  0  0
 50138  1  0  0  0  0
 53139  1  0  0  0  0
 53140  1  0  0  0  0
 53141  1  0  0  0  0
 54142  1  0  0  0  0
 55143  1  0  0  0  0
 57144  1  0  0  0  0
 58145  1  0  0  0  0
 61146  1  0  0  0  0
 61147  1  0  0  0  0
 61148  1  0  0  0  0
 62149  1  0  0  0  0
 63150  1  0  0  0  0
 72151  1  0  0  0  0
 72152  1  0  0  0  0
 73153  1  0  0  0  0
 73154  1  0  0  0  0
 73155  1  0  0  0  0
 74156  1  0  0  0  0
 74157  1  0  0  0  0
 75158  1  0  0  0  0
 75159  1  0  0  0  0
 75160  1  0  0  0  0
 77161  1  0  0  0  0
 78162  1  0  0  0  0
 82163  1  0  0  0  0
 85164  1  0  0  0  0
 85165  1  0  0  0  0
 86166  1  0  0  0  0
 86167  1  0  0  0  0
 86168  1  0  0  0  0
 89169  1  0  0  0  0
 94170  1  0  0  0  0
 97171  1  0  0  0  0
105172  1  0  0  0  0
106173  1  0  0  0  0
107174  1  0  0  0  0
108175  1  0  0  0  0
109176  1  0  0  0  0
110177  1  0  0  0  0
110178  1  0  0  0  0
111179  1  0  0  0  0
M  END
