
  xtb     02162217023D
 energy: -314.503777382081 gnorm: 0.000439755912 xtb: 6.4.1 (unknown)
188208  0     0  0            999 V2000
    2.2303   -0.5465   -7.8745 C   0  0  0  0  0  0  0  0  0  0  0  0
    3.0763    0.5102   -7.8614 C   0  0  0  0  0  0  0  0  0  0  0  0
    3.3470    1.4299   -6.7171 C   0  0  0  0  0  0  0  0  0  0  0  0
    2.7424    1.5356   -5.6704 O   0  0  0  0  0  0  0  0  0  0  0  0
    4.5474    2.1926   -7.0992 C   0  0  0  0  0  0  0  0  0  0  0  0
    5.2130    3.1344   -6.3162 C   0  0  0  0  0  0  0  0  0  0  0  0
    6.3230    3.6770   -6.9139 C   0  0  0  0  0  0  0  0  0  0  0  0
    6.7505    3.3058   -8.1972 C   0  0  0  0  0  0  0  0  0  0  0  0
    6.1076    2.3784   -8.9791 C   0  0  0  0  0  0  0  0  0  0  0  0
    4.9655    1.8196   -8.3920 C   0  0  0  0  0  0  0  0  0  0  0  0
    4.0353    0.8294   -8.9141 C   0  0  0  0  0  0  0  0  0  0  0  0
    4.0159    0.3450  -10.1938 C   0  0  0  0  0  0  0  0  0  0  0  0
    3.0523   -0.5436  -10.7197 C   0  0  0  0  0  0  0  0  0  0  0  0
    2.3073   -1.2466  -11.2383 N   0  0  0  0  0  0  0  0  0  0  0  0
    4.9433    0.7023  -11.1961 C   0  0  0  0  0  0  0  0  0  0  0  0
    5.6618    0.9429  -12.0586 N   0  0  0  0  0  0  0  0  0  0  0  0
    7.9279    4.2484   -8.1641 C   0  0  0  0  0  0  0  0  0  0  0  0
    7.7821    5.5595   -8.9656 C   0  0  0  0  0  0  0  0  0  0  0  0
    8.8388    6.4642   -8.3742 C   0  0  0  0  0  0  0  0  0  0  0  0
    8.4356    6.8156   -7.1598 C   0  0  0  0  0  0  0  0  0  0  0  0
    7.0993    6.1546   -6.9102 C   0  0  0  0  0  0  0  0  0  0  0  0
    6.5261    6.1730   -8.3331 C   0  0  0  0  0  0  0  0  0  0  0  0
    7.4511    4.6618   -6.7348 C   0  0  0  0  0  0  0  0  0  0  0  0
    1.2801   -0.8832   -6.8459 C   0  0  0  0  0  0  0  0  0  0  0  0
    1.0717   -2.2094   -6.4983 C   0  0  0  0  0  0  0  0  0  0  0  0
    1.7364   -3.1785   -7.1566 F   0  0  0  0  0  0  0  0  0  0  0  0
    0.2884   -2.5706   -5.4033 C   0  0  0  0  0  0  0  0  0  0  0  0
    0.1869   -3.8763   -5.0963 F   0  0  0  0  0  0  0  0  0  0  0  0
   -0.2627   -1.6210   -4.5587 C   0  0  0  0  0  0  0  0  0  0  0  0
   -0.1545   -0.2637   -4.9487 C   0  0  0  0  0  0  0  0  0  0  0  0
   -0.7293    0.6974   -4.1907 N   0  0  0  0  0  0  0  0  0  0  0  0
   -0.7121    1.9234   -4.6422 C   0  0  0  0  0  0  0  0  0  0  0  0
   -1.2200    2.9291   -3.9370 O   0  0  0  0  0  0  0  0  0  0  0  0
   -1.7172    2.6383   -2.6349 C   0  0  0  0  0  0  0  0  0  0  0  0
   -3.0399    1.8843   -2.6679 C   0  0  0  0  0  0  0  0  0  0  0  0
   -0.1964    2.2432   -5.9475 C   0  0  0  0  0  0  0  0  0  0  0  0
    0.4181    1.3353   -6.6401 N   0  0  0  0  0  0  0  0  0  0  0  0
    0.5273    0.0886   -6.1367 C   0  0  0  0  0  0  0  0  0  0  0  0
   -0.3766    3.6054   -6.5161 C   0  0  0  0  0  0  0  0  0  0  0  0
   -0.8643   -2.0111   -3.2940 C   0  0  0  0  0  0  0  0  0  0  0  0
   -0.4262   -1.6703   -2.0305 C   0  0  0  0  0  0  0  0  0  0  0  0
    0.6488   -0.8529   -1.7136 N   0  0  0  0  0  0  0  0  0  0  0  0
    0.5964   -0.1474   -0.5019 C   0  0  0  0  0  0  0  0  0  0  0  0
   -0.6042    0.4161   -0.0717 C   0  0  0  0  0  0  0  0  0  0  0  0
   -0.7075    1.0081    1.1717 C   0  0  0  0  0  0  0  0  0  0  0  0
    0.3909    1.0377    2.0189 C   0  0  0  0  0  0  0  0  0  0  0  0
    0.3220    1.6739    3.6671 S   0  0  0  0  0  0  0  0  0  0  0  0
   -1.4389    1.5183    4.0934 C   0  0  0  0  0  0  0  0  0  0  0  0
    1.6108    0.5363    1.5689 C   0  0  0  0  0  0  0  0  0  0  0  0
    1.7163   -0.0463    0.3250 C   0  0  0  0  0  0  0  0  0  0  0  0
    1.7971   -0.8213   -2.5116 C   0  0  0  0  0  0  0  0  0  0  0  0
    2.2454   -1.9703   -3.1606 C   0  0  0  0  0  0  0  0  0  0  0  0
    3.3206   -1.9212   -4.0251 C   0  0  0  0  0  0  0  0  0  0  0  0
    3.9918   -0.7242   -4.2264 C   0  0  0  0  0  0  0  0  0  0  0  0
    5.3146   -0.5249   -5.3816 S   0  0  0  0  0  0  0  0  0  0  0  0
    5.2453   -2.0358   -6.3869 C   0  0  0  0  0  0  0  0  0  0  0  0
    3.6142    0.4037   -3.5015 C   0  0  0  0  0  0  0  0  0  0  0  0
    2.5198    0.3609   -2.6662 C   0  0  0  0  0  0  0  0  0  0  0  0
   -1.2239   -2.3053   -1.0449 C   0  0  0  0  0  0  0  0  0  0  0  0
   -1.1614   -2.3550    0.6741 S   0  0  0  0  0  0  0  0  0  0  0  0
   -2.6227   -3.3306    0.7301 C   0  0  0  0  0  0  0  0  0  0  0  0
   -3.0734   -3.6679   -0.5316 C   0  0  0  0  0  0  0  0  0  0  0  0
   -4.1580   -4.4843   -0.8087 N   0  0  0  0  0  0  0  0  0  0  0  0
   -4.9217   -4.2151   -1.9537 C   0  0  0  0  0  0  0  0  0  0  0  0
   -5.2139   -2.8976   -2.3096 C   0  0  0  0  0  0  0  0  0  0  0  0
   -5.9408   -2.6299   -3.4475 C   0  0  0  0  0  0  0  0  0  0  0  0
   -6.4030   -3.6693   -4.2517 C   0  0  0  0  0  0  0  0  0  0  0  0
   -7.3287   -3.2012   -5.6804 S   0  0  0  0  0  0  0  0  0  0  0  0
   -7.6596   -4.7728   -6.5255 C   0  0  0  0  0  0  0  0  0  0  0  0
   -6.1271   -4.9824   -3.8939 C   0  0  0  0  0  0  0  0  0  0  0  0
   -5.3886   -5.2502   -2.7583 C   0  0  0  0  0  0  0  0  0  0  0  0
   -4.4800   -5.5608    0.0256 C   0  0  0  0  0  0  0  0  0  0  0  0
   -5.8136   -5.9292    0.2131 C   0  0  0  0  0  0  0  0  0  0  0  0
   -6.1368   -6.9742    1.0478 C   0  0  0  0  0  0  0  0  0  0  0  0
   -5.1408   -7.6750    1.7246 C   0  0  0  0  0  0  0  0  0  0  0  0
   -5.6822   -8.9864    2.7765 S   0  0  0  0  0  0  0  0  0  0  0  0
   -4.1469   -9.6390    3.4916 C   0  0  0  0  0  0  0  0  0  0  0  0
   -3.8134   -7.3162    1.5388 C   0  0  0  0  0  0  0  0  0  0  0  0
   -3.4889   -6.2726    0.6945 C   0  0  0  0  0  0  0  0  0  0  0  0
   -2.2540   -3.0842   -1.5395 C   0  0  0  0  0  0  0  0  0  0  0  0
   -2.2283   -3.1153   -3.2697 S   0  0  0  0  0  0  0  0  0  0  0  0
   -3.1960   -3.4559    2.0542 C   0  0  0  0  0  0  0  0  0  0  0  0
   -2.3182   -3.4044    3.1348 C   0  0  0  0  0  0  0  0  0  0  0  0
   -2.8244   -3.1443    4.3926 C   0  0  0  0  0  0  0  0  0  0  0  0
   -2.1464   -2.8824    5.5533 N   0  0  0  0  0  0  0  0  0  0  0  0
   -0.7154   -2.9012    5.7150 C   0  0  0  0  0  0  0  0  0  0  0  0
   -0.0767   -1.5705    5.3261 C   0  0  0  0  0  0  0  0  0  0  0  0
   -3.0458   -2.3959    6.4684 C   0  0  0  0  0  0  0  0  0  0  0  0
   -4.3610   -2.4861    5.9368 C   0  0  0  0  0  0  0  0  0  0  0  0
   -4.2179   -2.9688    4.5994 C   0  0  0  0  0  0  0  0  0  0  0  0
   -5.0939   -3.1504    3.5311 C   0  0  0  0  0  0  0  0  0  0  0  0
   -4.5840   -3.3816    2.2737 C   0  0  0  0  0  0  0  0  0  0  0  0
   -5.4417   -2.0502    6.7015 C   0  0  0  0  0  0  0  0  0  0  0  0
   -5.1978   -1.4562    7.9171 C   0  0  0  0  0  0  0  0  0  0  0  0
   -3.8820   -1.2526    8.3825 C   0  0  0  0  0  0  0  0  0  0  0  0
   -2.8005   -1.7863    7.6812 C   0  0  0  0  0  0  0  0  0  0  0  0
   -3.6671   -0.4445    9.5522 C   0  0  0  0  0  0  0  0  0  0  0  0
   -2.6655    0.4639    9.7028 C   0  0  0  0  0  0  0  0  0  0  0  0
   -1.8307    1.0269    8.6074 C   0  0  0  0  0  0  0  0  0  0  0  0
   -1.7394    0.6605    7.4521 O   0  0  0  0  0  0  0  0  0  0  0  0
   -1.1774    2.2184    9.1753 C   0  0  0  0  0  0  0  0  0  0  0  0
   -0.3358    3.1013    8.5004 C   0  0  0  0  0  0  0  0  0  0  0  0
    0.1315    4.1318    9.2790 C   0  0  0  0  0  0  0  0  0  0  0  0
   -0.2218    4.2832   10.6274 C   0  0  0  0  0  0  0  0  0  0  0  0
   -1.0524    3.4221   11.3036 C   0  0  0  0  0  0  0  0  0  0  0  0
   -1.5300    2.3578   10.5326 C   0  0  0  0  0  0  0  0  0  0  0  0
   -2.4089    1.2533   10.8977 C   0  0  0  0  0  0  0  0  0  0  0  0
   -2.8457    0.9587   12.1614 C   0  0  0  0  0  0  0  0  0  0  0  0
   -3.6152   -0.1740   12.5041 C   0  0  0  0  0  0  0  0  0  0  0  0
   -4.2202   -1.0801   12.8668 N   0  0  0  0  0  0  0  0  0  0  0  0
   -2.5520    1.7272   13.3072 C   0  0  0  0  0  0  0  0  0  0  0  0
   -2.3540    2.3074   14.2779 N   0  0  0  0  0  0  0  0  0  0  0  0
    0.6120    5.5294   10.7879 C   0  0  0  0  0  0  0  0  0  0  0  0
    1.9695    5.3963   11.5214 C   0  0  0  0  0  0  0  0  0  0  0  0
    2.4222    3.9701   11.3284 C   0  0  0  0  0  0  0  0  0  0  0  0
    2.7600    3.8217   10.0544 C   0  0  0  0  0  0  0  0  0  0  0  0
    2.5424    5.1449    9.3629 C   0  0  0  0  0  0  0  0  0  0  0  0
    2.8821    6.1092   10.5107 C   0  0  0  0  0  0  0  0  0  0  0  0
    1.0098    5.3572    9.2879 C   0  0  0  0  0  0  0  0  0  0  0  0
    2.3051   -1.2668   -8.6810 H   0  0  0  0  0  0  0  0  0  0  0  0
    4.8548    3.3865   -5.3306 H   0  0  0  0  0  0  0  0  0  0  0  0
    6.4548    2.0938   -9.9583 H   0  0  0  0  0  0  0  0  0  0  0  0
    8.9081    3.7889   -8.2743 H   0  0  0  0  0  0  0  0  0  0  0  0
    7.7908    5.4363  -10.0450 H   0  0  0  0  0  0  0  0  0  0  0  0
    9.7659    6.7026   -8.8615 H   0  0  0  0  0  0  0  0  0  0  0  0
    8.9588    7.4056   -6.4302 H   0  0  0  0  0  0  0  0  0  0  0  0
    6.4865    6.5744   -6.1169 H   0  0  0  0  0  0  0  0  0  0  0  0
    6.3392    7.1850   -8.6884 H   0  0  0  0  0  0  0  0  0  0  0  0
    5.6277    5.5713   -8.4572 H   0  0  0  0  0  0  0  0  0  0  0  0
    8.1127    4.4762   -5.8907 H   0  0  0  0  0  0  0  0  0  0  0  0
   -1.8420    3.6181   -2.1674 H   0  0  0  0  0  0  0  0  0  0  0  0
   -0.9621    2.0640   -2.0896 H   0  0  0  0  0  0  0  0  0  0  0  0
   -3.4294    1.7916   -1.6576 H   0  0  0  0  0  0  0  0  0  0  0  0
   -3.7637    2.4236   -3.2741 H   0  0  0  0  0  0  0  0  0  0  0  0
   -2.8942    0.8931   -3.0897 H   0  0  0  0  0  0  0  0  0  0  0  0
    0.1560    4.3285   -5.9004 H   0  0  0  0  0  0  0  0  0  0  0  0
   -1.4303    3.8781   -6.5084 H   0  0  0  0  0  0  0  0  0  0  0  0
    0.0095    3.6315   -7.5305 H   0  0  0  0  0  0  0  0  0  0  0  0
   -1.4741    0.3619   -0.7080 H   0  0  0  0  0  0  0  0  0  0  0  0
   -1.6528    1.4298    1.4748 H   0  0  0  0  0  0  0  0  0  0  0  0
   -1.8252    0.5867    3.6919 H   0  0  0  0  0  0  0  0  0  0  0  0
   -1.9960    2.3695    3.7115 H   0  0  0  0  0  0  0  0  0  0  0  0
   -1.4918    1.4957    5.1781 H   0  0  0  0  0  0  0  0  0  0  0  0
    2.4689    0.5830    2.2215 H   0  0  0  0  0  0  0  0  0  0  0  0
    2.6590   -0.4605   -0.0001 H   0  0  0  0  0  0  0  0  0  0  0  0
    1.7455   -2.9120   -2.9882 H   0  0  0  0  0  0  0  0  0  0  0  0
    3.6274   -2.8250   -4.5272 H   0  0  0  0  0  0  0  0  0  0  0  0
    4.2404   -2.1767   -6.7742 H   0  0  0  0  0  0  0  0  0  0  0  0
    5.5652   -2.8932   -5.8023 H   0  0  0  0  0  0  0  0  0  0  0  0
    5.9392   -1.8743   -7.2064 H   0  0  0  0  0  0  0  0  0  0  0  0
    4.1772    1.3156   -3.6135 H   0  0  0  0  0  0  0  0  0  0  0  0
    2.2086    1.2504   -2.1398 H   0  0  0  0  0  0  0  0  0  0  0  0
   -4.8702   -2.0860   -1.6849 H   0  0  0  0  0  0  0  0  0  0  0  0
   -6.1654   -1.6115   -3.7253 H   0  0  0  0  0  0  0  0  0  0  0  0
   -6.7229   -5.2640   -6.7722 H   0  0  0  0  0  0  0  0  0  0  0  0
   -8.2888   -5.4056   -5.9062 H   0  0  0  0  0  0  0  0  0  0  0  0
   -8.1881   -4.5080   -7.4361 H   0  0  0  0  0  0  0  0  0  0  0  0
   -6.4722   -5.8084   -4.4942 H   0  0  0  0  0  0  0  0  0  0  0  0
   -5.1669   -6.2729   -2.4920 H   0  0  0  0  0  0  0  0  0  0  0  0
   -6.5952   -5.3855   -0.2966 H   0  0  0  0  0  0  0  0  0  0  0  0
   -7.1683   -7.2554    1.1948 H   0  0  0  0  0  0  0  0  0  0  0  0
   -3.6421   -8.8619    4.0581 H   0  0  0  0  0  0  0  0  0  0  0  0
   -3.5094  -10.0357    2.7068 H   0  0  0  0  0  0  0  0  0  0  0  0
   -4.4531  -10.4404    4.1567 H   0  0  0  0  0  0  0  0  0  0  0  0
   -3.0173   -7.8436    2.0388 H   0  0  0  0  0  0  0  0  0  0  0  0
   -2.4513   -6.0123    0.5504 H   0  0  0  0  0  0  0  0  0  0  0  0
   -1.2550   -3.4870    2.9663 H   0  0  0  0  0  0  0  0  0  0  0  0
   -0.3141   -3.7102    5.0979 H   0  0  0  0  0  0  0  0  0  0  0  0
   -0.4953   -3.1321    6.7609 H   0  0  0  0  0  0  0  0  0  0  0  0
    0.9946   -1.6022    5.5048 H   0  0  0  0  0  0  0  0  0  0  0  0
   -0.2437   -1.3652    4.2715 H   0  0  0  0  0  0  0  0  0  0  0  0
   -0.5072   -0.7642    5.9143 H   0  0  0  0  0  0  0  0  0  0  0  0
   -6.1587   -3.0504    3.6764 H   0  0  0  0  0  0  0  0  0  0  0  0
   -5.2540   -3.4347    1.4306 H   0  0  0  0  0  0  0  0  0  0  0  0
   -6.4499   -2.1523    6.3297 H   0  0  0  0  0  0  0  0  0  0  0  0
   -6.0183   -1.0724    8.5051 H   0  0  0  0  0  0  0  0  0  0  0  0
   -1.8036   -1.7066    8.0820 H   0  0  0  0  0  0  0  0  0  0  0  0
   -4.4150   -0.5236   10.3323 H   0  0  0  0  0  0  0  0  0  0  0  0
   -0.0903    2.9519    7.4601 H   0  0  0  0  0  0  0  0  0  0  0  0
   -1.3207    3.5554   12.3383 H   0  0  0  0  0  0  0  0  0  0  0  0
    0.0727    6.4306   11.0725 H   0  0  0  0  0  0  0  0  0  0  0  0
    1.9682    5.7653   12.5434 H   0  0  0  0  0  0  0  0  0  0  0  0
    2.3962    3.2245   12.1014 H   0  0  0  0  0  0  0  0  0  0  0  0
    3.0726    2.9269    9.5487 H   0  0  0  0  0  0  0  0  0  0  0  0
    3.0634    5.2847    8.4195 H   0  0  0  0  0  0  0  0  0  0  0  0
    3.9329    6.0730   10.7940 H   0  0  0  0  0  0  0  0  0  0  0  0
    2.5896    7.1396   10.3131 H   0  0  0  0  0  0  0  0  0  0  0  0
    0.7345    6.1474    8.5920 H   0  0  0  0  0  0  0  0  0  0  0  0
  1  2  2  0  0  0  0
  2  3  1  0  0  0  0
  3  4  2  0  0  0  0
  3  5  1  0  0  0  0
  5  6  2  0  0  0  0
  6  7  1  0  0  0  0
  7  8  2  0  0  0  0
  8  9  1  0  0  0  0
  9 10  2  0  0  0  0
 10 11  1  0  0  0  0
 11 12  2  0  0  0  0
 12 13  1  0  0  0  0
 13 14  3  0  0  0  0
 12 15  1  0  0  0  0
 15 16  3  0  0  0  0
  8 17  1  0  0  0  0
 17 18  1  0  0  0  0
 18 19  1  0  0  0  0
 19 20  2  0  0  0  0
 20 21  1  0  0  0  0
 21 22  1  0  0  0  0
 21 23  1  0  0  0  0
  1 24  1  0  0  0  0
 24 25  2  0  0  0  0
 25 26  1  0  0  0  0
 25 27  1  0  0  0  0
 27 28  1  0  0  0  0
 27 29  2  0  0  0  0
 29 30  1  0  0  0  0
 30 31  2  0  0  0  0
 31 32  1  0  0  0  0
 32 33  1  0  0  0  0
 33 34  1  0  0  0  0
 34 35  1  0  0  0  0
 32 36  2  0  0  0  0
 36 37  1  0  0  0  0
 37 38  2  0  0  0  0
 36 39  1  0  0  0  0
 29 40  1  0  0  0  0
 40 41  2  0  0  0  0
 41 42  1  0  0  0  0
 42 43  1  0  0  0  0
 43 44  2  0  0  0  0
 44 45  1  0  0  0  0
 45 46  2  0  0  0  0
 46 47  1  0  0  0  0
 47 48  1  0  0  0  0
 46 49  1  0  0  0  0
 49 50  2  0  0  0  0
 42 51  1  0  0  0  0
 51 52  2  0  0  0  0
 52 53  1  0  0  0  0
 53 54  2  0  0  0  0
 54 55  1  0  0  0  0
 55 56  1  0  0  0  0
 54 57  1  0  0  0  0
 57 58  2  0  0  0  0
 41 59  1  0  0  0  0
 59 60  1  0  0  0  0
 60 61  1  0  0  0  0
 61 62  2  0  0  0  0
 62 63  1  0  0  0  0
 63 64  1  0  0  0  0
 64 65  2  0  0  0  0
 65 66  1  0  0  0  0
 66 67  2  0  0  0  0
 67 68  1  0  0  0  0
 68 69  1  0  0  0  0
 67 70  1  0  0  0  0
 70 71  2  0  0  0  0
 63 72  1  0  0  0  0
 72 73  2  0  0  0  0
 73 74  1  0  0  0  0
 74 75  2  0  0  0  0
 75 76  1  0  0  0  0
 76 77  1  0  0  0  0
 75 78  1  0  0  0  0
 78 79  2  0  0  0  0
 62 80  1  0  0  0  0
 80 81  1  0  0  0  0
 61 82  1  0  0  0  0
 82 83  2  0  0  0  0
 83 84  1  0  0  0  0
 84 85  1  0  0  0  0
 85 86  1  0  0  0  0
 86 87  1  0  0  0  0
 85 88  1  0  0  0  0
 88 89  2  0  0  0  0
 89 90  1  0  0  0  0
 90 91  1  0  0  0  0
 91 92  2  0  0  0  0
 89 93  1  0  0  0  0
 93 94  2  0  0  0  0
 94 95  1  0  0  0  0
 95 96  2  0  0  0  0
 95 97  1  0  0  0  0
 97 98  2  0  0  0  0
 98 99  1  0  0  0  0
 99100  2  0  0  0  0
 99101  1  0  0  0  0
101102  2  0  0  0  0
102103  1  0  0  0  0
103104  2  0  0  0  0
104105  1  0  0  0  0
105106  2  0  0  0  0
106107  1  0  0  0  0
107108  2  0  0  0  0
108109  1  0  0  0  0
109110  3  0  0  0  0
108111  1  0  0  0  0
111112  3  0  0  0  0
104113  1  0  0  0  0
113114  1  0  0  0  0
114115  1  0  0  0  0
115116  2  0  0  0  0
116117  1  0  0  0  0
117118  1  0  0  0  0
117119  1  0  0  0  0
 11  2  1  0  0  0  0
 23 17  1  0  0  0  0
 38 24  1  0  0  0  0
 81 40  1  0  0  0  0
 92 82  1  0  0  0  0
107 98  1  0  0  0  0
119113  1  0  0  0  0
 10  5  1  0  0  0  0
 22 18  1  0  0  0  0
 38 30  1  0  0  0  0
 50 43  1  0  0  0  0
 58 51  1  0  0  0  0
 80 59  2  0  0  0  0
 90 84  2  0  0  0  0
106101  1  0  0  0  0
118114  1  0  0  0  0
 23  7  1  0  0  0  0
 71 64  1  0  0  0  0
 79 72  1  0  0  0  0
 96 88  1  0  0  0  0
119103  1  0  0  0  0
  1120  1  0  0  0  0
  6121  1  0  0  0  0
  9122  1  0  0  0  0
 17123  1  0  0  0  0
 18124  1  0  0  0  0
 19125  1  0  0  0  0
 20126  1  0  0  0  0
 21127  1  0  0  0  0
 22128  1  0  0  0  0
 22129  1  0  0  0  0
 23130  1  0  0  0  0
 34131  1  0  0  0  0
 34132  1  0  0  0  0
 35133  1  0  0  0  0
 35134  1  0  0  0  0
 35135  1  0  0  0  0
 39136  1  0  0  0  0
 39137  1  0  0  0  0
 39138  1  0  0  0  0
 44139  1  0  0  0  0
 45140  1  0  0  0  0
 48141  1  0  0  0  0
 48142  1  0  0  0  0
 48143  1  0  0  0  0
 49144  1  0  0  0  0
 50145  1  0  0  0  0
 52146  1  0  0  0  0
 53147  1  0  0  0  0
 56148  1  0  0  0  0
 56149  1  0  0  0  0
 56150  1  0  0  0  0
 57151  1  0  0  0  0
 58152  1  0  0  0  0
 65153  1  0  0  0  0
 66154  1  0  0  0  0
 69155  1  0  0  0  0
 69156  1  0  0  0  0
 69157  1  0  0  0  0
 70158  1  0  0  0  0
 71159  1  0  0  0  0
 73160  1  0  0  0  0
 74161  1  0  0  0  0
 77162  1  0  0  0  0
 77163  1  0  0  0  0
 77164  1  0  0  0  0
 78165  1  0  0  0  0
 79166  1  0  0  0  0
 83167  1  0  0  0  0
 86168  1  0  0  0  0
 86169  1  0  0  0  0
 87170  1  0  0  0  0
 87171  1  0  0  0  0
 87172  1  0  0  0  0
 91173  1  0  0  0  0
 92174  1  0  0  0  0
 93175  1  0  0  0  0
 94176  1  0  0  0  0
 96177  1  0  0  0  0
 97178  1  0  0  0  0
102179  1  0  0  0  0
105180  1  0  0  0  0
113181  1  0  0  0  0
114182  1  0  0  0  0
115183  1  0  0  0  0
116184  1  0  0  0  0
117185  1  0  0  0  0
118186  1  0  0  0  0
118187  1  0  0  0  0
119188  1  0  0  0  0
M  END
