207

C         -1.74870       -6.66690       -6.40690
C         -0.69660       -7.55660       -6.40010
C          0.54260       -7.38510       -5.64770
O          0.93220       -6.37470       -5.07780
C          1.23290       -8.68140       -5.67100
C          2.41920       -9.01170       -5.01910
C          2.80160      -10.31970       -5.19620
C          2.06310      -11.22870       -5.96500
C          0.89770      -10.90940       -6.62360
C          0.48690       -9.58460       -6.45600
C         -0.68470       -8.88110       -6.98210
C         -1.56290       -9.37700       -7.91120
C         -1.50420      -10.68080       -8.44390
N         -1.51960      -11.73050       -8.90940
C         -2.60800       -8.64160       -8.50990
N         -3.45590       -8.10510       -9.06820
C          3.01430      -12.36470       -5.67930
C          2.55460      -13.39850       -4.62930
C          3.83550      -14.08230       -4.20860
C          4.53440      -13.21900       -3.48250
C          3.73850      -11.93660       -3.40100
C          2.31550      -12.51030       -3.40130
C          3.83880      -11.34890       -4.82480
C         -1.82890       -5.40910       -5.80890
S         -0.52140       -4.51340       -5.06470
C         -1.54890       -3.16790       -4.64030
C         -2.85820       -3.42440       -5.02360
S         -4.37250       -2.62520       -4.74520
C         -5.21750       -3.89710       -5.57660
C         -6.66820       -3.74390       -5.71900
O         -7.26080       -2.76410       -5.33090
O         -7.22520       -4.78610       -6.33180
C         -8.63940       -4.74730       -6.52170
C         -9.37860       -5.21870       -5.27780
C         -4.37720       -4.89210       -6.00710
C         -3.01840       -4.65930       -5.69160
F         -4.80030       -5.98270       -6.64320
C         -0.98500       -2.14470       -3.84870
C         -1.47800       -0.90180       -3.44460
N         -2.54210       -0.22310       -3.99650
C         -2.75500       -0.15770       -5.37730
C         -4.01300        0.19680       -5.86650
C         -4.25980        0.24450       -7.22260
C         -3.25180       -0.06660       -8.12670
S         -3.45080       -0.06650       -9.87760
C         -5.21880        0.26650      -10.11680
C         -1.98670       -0.39720       -7.64380
C         -1.73760       -0.43690       -6.29060
C         -3.27530        0.60880       -3.12620
C         -3.47090        1.95940       -3.40850
C         -4.16070        2.75330       -2.52110
C         -4.67080        2.21680       -1.33900
S         -5.51320        3.33320       -0.27060
C         -6.37430        2.25600        0.90690
C         -4.47720        0.87070       -1.05760
C         -3.78270        0.07510       -1.94660
C         -0.66650       -0.36280       -2.41490
S         -0.75450        1.04480       -1.41910
C          0.76390        0.62090       -0.61190
C          1.32750       -0.53540       -1.15020
N          2.52670       -1.14170       -0.81730
C          2.61240       -2.54070       -0.96360
C          3.67500       -3.12180       -1.65530
C          3.70640       -4.48270       -1.86250
C          2.67580       -5.29090       -1.39190
S          2.76130       -7.02050       -1.74220
C          1.00710       -7.45940       -1.91470
C          1.64060       -4.72420       -0.66090
C          1.61190       -3.36030       -0.44620
C          3.71100       -0.41740       -0.64810
C          3.93390        0.78830       -1.30860
C          5.09490        1.50500       -1.08870
C          6.05290        1.02430       -0.20790
S          7.55080        1.88130        0.16090
C          7.12480        3.61350       -0.16390
C          5.85380       -0.20570        0.41590
C          4.69920       -0.91880        0.20180
C          0.47140       -1.09780       -2.13220
S          0.56670       -2.52170       -3.10730
C          1.12580        1.47430        0.47030
C          0.28860        2.40570        1.03270
C          0.85600        3.13610        2.09950
C          0.27130        4.16430        2.85870
C         -1.13940        4.53950        2.71240
C         -2.14370        3.57250        2.74320
C         -3.46920        3.93750        2.67320
C         -3.85900        5.27240        2.56250
S         -5.59750        5.57910        2.55410
C         -5.83670        7.11650        1.59370
C         -5.32360        6.99710        0.17390
C         -2.84600        6.22580        2.54190
F         -3.12860        7.54470        2.46240
C         -1.51270        5.87470        2.60740
C          1.08000        4.78350        3.80290
C          2.44610        4.44000        3.98650
C          3.04320        3.42330        3.20650
C          4.48110        3.15410        3.29600
C          5.00040        1.86920        3.41750
C          6.36240        1.65350        3.51820
C          7.26000        2.71480        3.48050
S          9.00720        2.61780        3.63880
C          9.34860        0.86570        4.01610
C          9.46310        0.01590        2.76530
C          6.72560        3.99490        3.31000
C          5.37360        4.22610        3.22960
F          7.56560        5.04680        3.21630
C          2.20840        2.76270        2.32580
S          2.68420        1.45230        1.27660
C          3.01800        5.16850        5.04090
C          2.14730        6.04580        5.66090
S          0.55650        6.00680        4.92800
C          2.55510        6.83270        6.76030
C          1.86220        7.73640        7.51250
C          0.45830        8.14250        7.31390
O         -0.32090        7.73110        6.47600
C          0.17640        9.16210        8.33690
C         -1.02530        9.83960        8.53070
C         -0.99750       10.74100        9.56700
C          0.14590       10.95940       10.34800
C          1.33780       10.30020       10.16490
C          1.32930        9.36950        9.12130
C          2.38720        8.48160        8.64480
C          3.63510        8.36880        9.20090
C          4.65620        7.49100        8.77910
N          5.53980        6.80400        8.51900
C          4.08700        9.11480       10.31030
N          4.52890        9.67930       11.20720
C         -0.54050       11.99100       11.20720
C         -0.99920       11.55900       12.62200
C         -1.23330       10.06990       12.56090
C         -2.31580        9.86020       11.82380
C         -2.83360       11.20390       11.37330
C         -2.45100       12.06280       12.58930
C         -1.81510       11.74550       10.33950
H         -2.66140       -6.98820       -6.89360
H          2.95660       -8.28280       -4.43260
H          0.34240      -11.62050       -7.21220
H          3.48560      -12.82060       -6.54770
H          1.73910      -14.04110       -4.95000
H          4.11690      -15.07150       -4.51870
H          5.51650      -13.34310       -3.06520
H          4.00050      -11.24480       -2.60500
H          1.53540      -11.76380       -3.53920
H          2.10670      -13.09360       -2.50600
H          4.86120      -11.12560       -5.12260
H         -8.93540       -3.72330       -6.77350
H         -8.82540       -5.41160       -7.36750
H         -9.04780       -6.21690       -5.00160
H         -9.18680       -4.53910       -4.45070
H        -10.44630       -5.23960       -5.47590
H         -4.81250        0.41430       -5.17550
H         -5.24790        0.51420       -7.55730
H         -5.80920       -0.49360       -9.61380
H         -5.38300        0.21190      -11.18860
H         -5.46430        1.26160       -9.75730
H         -1.19850       -0.61940       -8.34650
H         -0.74560       -0.67970       -5.94300
H         -3.07290        2.37760       -4.32060
H         -4.30910        3.80190       -2.72730
H         -7.03500        1.58280        0.36890
H         -5.66000        1.70520        1.51140
H         -6.94970        2.92480        1.54000
H         -4.86250        0.43040       -0.15240
H         -3.63260       -0.97310       -1.73390
H          4.45930       -2.49570       -2.05330
H          4.51600       -4.93080       -2.41670
H          0.53370       -6.73490       -2.57050
H          0.52210       -7.49700       -0.94370
H          0.98790       -8.44450       -2.37110
H          0.85090       -5.33720       -0.25650
H          0.80050       -2.91960        0.11490
H          3.19070        1.17000       -1.99320
H          5.24280        2.43660       -1.61150
H          7.88240        4.20510        0.34100
H          7.14920        3.81790       -1.23060
H          6.14610        3.82260        0.25760
H          6.61210       -0.59040        1.07930
H          4.53930       -1.86040        0.70450
H         -0.71160        2.57490        0.67410
H         -1.87890        2.53170        2.85260
H         -4.24320        3.18880        2.72200
H         -6.91940        7.24640        1.60910
H         -5.37380        7.94170        2.13010
H         -5.78380        6.14960       -0.32850
H         -5.56020        7.90610       -0.37550
H         -4.24490        6.85920        0.16020
H         -0.77490        6.66080        2.57910
H          4.33040        1.02430        3.46210
H          6.71860        0.64280        3.62800
H          8.57750        0.51010        4.69780
H         10.29830        0.89480        4.55080
H         10.28410        0.36880        2.14640
H          8.55470        0.07160        2.17120
H          9.64950       -1.02190        3.03560
H          5.01970        5.23620        3.09270
H          4.03330        5.03990        5.37310
H          3.59200        6.66550        7.02650
H         -1.87880        9.64290        7.90090
H          2.20700       10.48470       10.77340
H         -0.10170       12.98670       11.19930
H         -0.36380       11.91210       13.42960
H         -0.57530        9.34210       12.99840
H         -2.74310        8.92180       11.52190
H         -3.86920       11.23380       11.04500
H         -2.53490       13.13350       12.40820
H         -3.00930       11.79630       13.48540
H         -2.21090       12.58150        9.76610
