
  xtb     02052214453D
 energy: -283.279326372921 gnorm: 0.000546715140 xtb: 6.4.1 (unknown)
160179  0     0  0            999 V2000
    3.6644    9.7510   -0.6128 C   0  0  0  0  0  0  0  0  0  0  0  0
    4.7839    9.8788   -1.3761 C   0  0  0  0  0  0  0  0  0  0  0  0
    5.1916    8.9259   -2.4435 C   0  0  0  0  0  0  0  0  0  0  0  0
    4.6116    7.9272   -2.8115 O   0  0  0  0  0  0  0  0  0  0  0  0
    6.3793    9.5254   -3.0789 C   0  0  0  0  0  0  0  0  0  0  0  0
    7.1244    8.9838   -4.1237 C   0  0  0  0  0  0  0  0  0  0  0  0
    8.1792    9.7672   -4.5243 C   0  0  0  0  0  0  0  0  0  0  0  0
    8.4629   11.0097   -3.9407 C   0  0  0  0  0  0  0  0  0  0  0  0
    7.7272   11.5627   -2.9202 C   0  0  0  0  0  0  0  0  0  0  0  0
    6.6565   10.7740   -2.4868 C   0  0  0  0  0  0  0  0  0  0  0  0
    5.6814   11.0166   -1.4275 C   0  0  0  0  0  0  0  0  0  0  0  0
    5.6723   12.0909   -0.5764 C   0  0  0  0  0  0  0  0  0  0  0  0
    6.5826   13.1665   -0.6353 C   0  0  0  0  0  0  0  0  0  0  0  0
    7.2869   14.0736   -0.6277 N   0  0  0  0  0  0  0  0  0  0  0  0
    4.7715   12.2715    0.4948 C   0  0  0  0  0  0  0  0  0  0  0  0
    4.0971   12.4931    1.3974 N   0  0  0  0  0  0  0  0  0  0  0  0
    9.6623   11.2404   -4.8257 C   0  0  0  0  0  0  0  0  0  0  0  0
   11.0649   11.0182   -4.2074 C   0  0  0  0  0  0  0  0  0  0  0  0
   10.8887   10.0171   -3.0926 C   0  0  0  0  0  0  0  0  0  0  0  0
   10.6212    8.8407   -3.6435 C   0  0  0  0  0  0  0  0  0  0  0  0
   10.6114    9.0251   -5.1409 C   0  0  0  0  0  0  0  0  0  0  0  0
   11.6847   10.1156   -5.2862 C   0  0  0  0  0  0  0  0  0  0  0  0
    9.3471    9.8556   -5.4742 C   0  0  0  0  0  0  0  0  0  0  0  0
    2.9401    8.5387   -0.4212 C   0  0  0  0  0  0  0  0  0  0  0  0
    1.5467    8.5417   -0.2217 C   0  0  0  0  0  0  0  0  0  0  0  0
    0.7700    7.3242   -0.0791 C   0  0  0  0  0  0  0  0  0  0  0  0
   -0.5372    7.5943    0.0351 N   0  0  0  0  0  0  0  0  0  0  0  0
   -0.7543    9.1795   -0.0203 S   0  0  0  0  0  4  0  0  0  0  0  0
    0.7713    9.6286   -0.2054 N   0  0  0  0  0  0  0  0  0  0  0  0
    1.3602    6.0489   -0.1142 C   0  0  0  0  0  0  0  0  0  0  0  0
    2.7635    6.0511   -0.1897 C   0  0  0  0  0  0  0  0  0  0  0  0
    3.5566    4.9785   -0.0862 N   0  0  0  0  0  0  0  0  0  0  0  0
    5.0784    5.4472   -0.1926 S   0  0  0  0  0  0  0  0  0  0  0  0
    4.8510    7.0233   -0.3294 N   0  0  0  0  0  0  0  0  0  0  0  0
    3.5402    7.2684   -0.3402 C   0  0  0  0  0  0  0  0  0  0  0  0
    0.5847    4.8229   -0.0593 C   0  0  0  0  0  0  0  0  0  0  0  0
   -0.5806    4.7319    0.7105 C   0  0  0  0  0  0  0  0  0  0  0  0
   -1.2733    3.5507    0.8340 C   0  0  0  0  0  0  0  0  0  0  0  0
   -0.8273    2.3843    0.2074 C   0  0  0  0  0  0  0  0  0  0  0  0
    0.2764    2.4971   -0.6440 C   0  0  0  0  0  0  0  0  0  0  0  0
    0.6586    1.4353   -1.3800 F   0  0  0  0  0  0  0  0  0  0  0  0
    0.9667    3.6853   -0.7807 C   0  0  0  0  0  0  0  0  0  0  0  0
    1.9624    3.7322   -1.6771 F   0  0  0  0  0  0  0  0  0  0  0  0
   -1.4276    1.0924    0.4508 C   0  0  0  0  0  0  0  0  0  0  0  0
   -0.7491   -0.0918    0.6900 C   0  0  0  0  0  0  0  0  0  0  0  0
    0.6164   -0.2294    0.8316 N   0  0  0  0  0  0  0  0  0  0  0  0
    1.1784   -1.4707    0.4811 C   0  0  0  0  0  0  0  0  0  0  0  0
    2.0102   -2.1462    1.3678 C   0  0  0  0  0  0  0  0  0  0  0  0
    2.4406   -3.4246    1.0777 C   0  0  0  0  0  0  0  0  0  0  0  0
    2.0445   -4.0416   -0.1019 C   0  0  0  0  0  0  0  0  0  0  0  0
    2.4818   -5.7058   -0.4939 S   0  0  0  0  0  0  0  0  0  0  0  0
    2.5994   -6.4590    1.1579 C   0  0  0  0  0  0  0  0  0  0  0  0
    1.2782   -3.3389   -1.0255 C   0  0  0  0  0  0  0  0  0  0  0  0
    0.8466   -2.0631   -0.7364 C   0  0  0  0  0  0  0  0  0  0  0  0
    1.4032    0.7756    1.3992 C   0  0  0  0  0  0  0  0  0  0  0  0
    0.9013    1.5954    2.4120 C   0  0  0  0  0  0  0  0  0  0  0  0
    1.6685    2.6177    2.9211 C   0  0  0  0  0  0  0  0  0  0  0  0
    2.9582    2.8364    2.4444 C   0  0  0  0  0  0  0  0  0  0  0  0
    3.8455    4.1947    3.1423 S   0  0  0  0  0  0  0  0  0  0  0  0
    5.5791    3.7255    2.8749 C   0  0  0  0  0  0  0  0  0  0  0  0
    3.4734    2.0091    1.4564 C   0  0  0  0  0  0  0  0  0  0  0  0
    2.7023    0.9858    0.9421 C   0  0  0  0  0  0  0  0  0  0  0  0
   -1.6530   -1.1715    0.8600 C   0  0  0  0  0  0  0  0  0  0  0  0
   -1.4314   -2.8648    1.0811 S   0  0  0  0  0  0  0  0  0  0  0  0
   -3.1790   -3.0983    1.1070 C   0  0  0  0  0  0  0  0  0  0  0  0
   -3.8826   -1.8864    0.9045 C   0  0  0  0  0  0  0  0  0  0  0  0
   -5.2431   -1.7570    0.7755 N   0  0  0  0  0  0  0  0  0  0  0  0
   -6.0479   -2.7376    0.1692 C   0  0  0  0  0  0  0  0  0  0  0  0
   -7.3362   -2.9760    0.6477 C   0  0  0  0  0  0  0  0  0  0  0  0
   -8.1075   -3.9728    0.0923 C   0  0  0  0  0  0  0  0  0  0  0  0
   -7.6050   -4.7660   -0.9362 C   0  0  0  0  0  0  0  0  0  0  0  0
   -8.6427   -6.0645   -1.5252 S   0  0  0  0  0  0  0  0  0  0  0  0
   -7.4821   -7.1813   -2.3641 C   0  0  0  0  0  0  0  0  0  0  0  0
   -6.3406   -4.4972   -1.4492 C   0  0  0  0  0  0  0  0  0  0  0  0
   -5.5765   -3.4825   -0.9105 C   0  0  0  0  0  0  0  0  0  0  0  0
   -5.8397   -0.5492    1.1809 C   0  0  0  0  0  0  0  0  0  0  0  0
   -5.4656    0.0458    2.3863 C   0  0  0  0  0  0  0  0  0  0  0  0
   -6.0398    1.2328    2.7791 C   0  0  0  0  0  0  0  0  0  0  0  0
   -7.0042    1.8500    1.9831 C   0  0  0  0  0  0  0  0  0  0  0  0
   -7.6578    3.3707    2.5869 S   0  0  0  0  0  0  0  0  0  0  0  0
   -8.9103    3.8324    1.3572 C   0  0  0  0  0  0  0  0  0  0  0  0
   -7.3885    1.2518    0.7896 C   0  0  0  0  0  0  0  0  0  0  0  0
   -6.8088    0.0630    0.3933 C   0  0  0  0  0  0  0  0  0  0  0  0
   -2.9886   -0.8035    0.7863 C   0  0  0  0  0  0  0  0  0  0  0  0
   -3.1693    0.9048    0.5248 S   0  0  0  0  0  0  0  0  0  0  0  0
   -3.7929   -4.3395    1.2952 C   0  0  0  0  0  0  0  0  0  0  0  0
   -3.2658   -5.6059    1.2123 C   0  0  0  0  0  0  0  0  0  0  0  0
   -1.8702   -5.9611    0.9363 C   0  0  0  0  0  0  0  0  0  0  0  0
   -0.8833   -5.2495    1.0293 O   0  0  0  0  0  0  0  0  0  0  0  0
   -1.8757   -7.3833    0.5558 C   0  0  0  0  0  0  0  0  0  0  0  0
   -0.7905   -8.1358    0.1135 C   0  0  0  0  0  0  0  0  0  0  0  0
   -1.0986   -9.4454   -0.1670 C   0  0  0  0  0  0  0  0  0  0  0  0
   -2.3901   -9.9669   -0.0190 C   0  0  0  0  0  0  0  0  0  0  0  0
   -3.4717   -9.2311    0.4063 C   0  0  0  0  0  0  0  0  0  0  0  0
   -3.1819   -7.8945    0.6952 C   0  0  0  0  0  0  0  0  0  0  0  0
   -4.0541   -6.8170    1.1632 C   0  0  0  0  0  0  0  0  0  0  0  0
   -5.3851   -6.9466    1.4792 C   0  0  0  0  0  0  0  0  0  0  0  0
   -6.1772   -5.9464    2.0758 C   0  0  0  0  0  0  0  0  0  0  0  0
   -6.8772   -5.1986    2.5976 N   0  0  0  0  0  0  0  0  0  0  0  0
   -6.1409   -8.1164    1.2690 C   0  0  0  0  0  0  0  0  0  0  0  0
   -6.8201   -9.0237    1.0813 N   0  0  0  0  0  0  0  0  0  0  0  0
   -1.9719  -11.3448   -0.4685 C   0  0  0  0  0  0  0  0  0  0  0  0
   -1.7849  -12.4040    0.6383 C   0  0  0  0  0  0  0  0  0  0  0  0
   -0.9349  -13.4671   -0.0192 C   0  0  0  0  0  0  0  0  0  0  0  0
    0.2882  -12.9735   -0.1636 C   0  0  0  0  0  0  0  0  0  0  0  0
    0.2855  -11.5686    0.3945 C   0  0  0  0  0  0  0  0  0  0  0  0
   -0.7302  -11.7383    1.5317 C   0  0  0  0  0  0  0  0  0  0  0  0
   -0.5318  -10.7622   -0.6366 C   0  0  0  0  0  0  0  0  0  0  0  0
    3.2418   10.6173   -0.1195 H   0  0  0  0  0  0  0  0  0  0  0  0
    6.8658    8.0263   -4.5484 H   0  0  0  0  0  0  0  0  0  0  0  0
    7.9518   12.5243   -2.4900 H   0  0  0  0  0  0  0  0  0  0  0  0
    9.6245   12.1224   -5.4619 H   0  0  0  0  0  0  0  0  0  0  0  0
   11.5954   11.9316   -3.9524 H   0  0  0  0  0  0  0  0  0  0  0  0
   10.9181   10.2716   -2.0494 H   0  0  0  0  0  0  0  0  0  0  0  0
   10.3819    7.9157   -3.1522 H   0  0  0  0  0  0  0  0  0  0  0  0
   10.7295    8.1237   -5.7367 H   0  0  0  0  0  0  0  0  0  0  0  0
   12.6806    9.7644   -5.0204 H   0  0  0  0  0  0  0  0  0  0  0  0
   11.7074   10.5732   -6.2744 H   0  0  0  0  0  0  0  0  0  0  0  0
    9.1034    9.8327   -6.5347 H   0  0  0  0  0  0  0  0  0  0  0  0
   -0.9173    5.6110    1.2342 H   0  0  0  0  0  0  0  0  0  0  0  0
   -2.1530    3.4984    1.4571 H   0  0  0  0  0  0  0  0  0  0  0  0
    2.2934   -1.6754    2.2979 H   0  0  0  0  0  0  0  0  0  0  0  0
    3.0683   -3.9402    1.7868 H   0  0  0  0  0  0  0  0  0  0  0  0
    3.5249   -6.1688    1.6467 H   0  0  0  0  0  0  0  0  0  0  0  0
    2.5955   -7.5338    1.0035 H   0  0  0  0  0  0  0  0  0  0  0  0
    1.7323   -6.1541    1.7367 H   0  0  0  0  0  0  0  0  0  0  0  0
    1.0070   -3.8119   -1.9566 H   0  0  0  0  0  0  0  0  0  0  0  0
    0.2335   -1.5192   -1.4391 H   0  0  0  0  0  0  0  0  0  0  0  0
   -0.0896    1.4214    2.8032 H   0  0  0  0  0  0  0  0  0  0  0  0
    1.2801    3.2538    3.7012 H   0  0  0  0  0  0  0  0  0  0  0  0
    5.7270    2.7002    3.1996 H   0  0  0  0  0  0  0  0  0  0  0  0
    5.8492    3.8498    1.8289 H   0  0  0  0  0  0  0  0  0  0  0  0
    6.1687    4.4001    3.4878 H   0  0  0  0  0  0  0  0  0  0  0  0
    4.4635    2.1674    1.0620 H   0  0  0  0  0  0  0  0  0  0  0  0
    3.0951    0.3558    0.1583 H   0  0  0  0  0  0  0  0  0  0  0  0
   -7.7154   -2.3978    1.4754 H   0  0  0  0  0  0  0  0  0  0  0  0
   -9.0948   -4.1732    0.4761 H   0  0  0  0  0  0  0  0  0  0  0  0
   -8.0381   -8.0953   -2.5471 H   0  0  0  0  0  0  0  0  0  0  0  0
   -7.1546   -6.7547   -3.3079 H   0  0  0  0  0  0  0  0  0  0  0  0
   -6.6406   -7.3896   -1.7099 H   0  0  0  0  0  0  0  0  0  0  0  0
   -5.9452   -5.0665   -2.2754 H   0  0  0  0  0  0  0  0  0  0  0  0
   -4.5964   -3.2786   -1.3161 H   0  0  0  0  0  0  0  0  0  0  0  0
   -4.7306   -0.4357    3.0138 H   0  0  0  0  0  0  0  0  0  0  0  0
   -5.7553    1.6953    3.7115 H   0  0  0  0  0  0  0  0  0  0  0  0
   -9.3511    4.7546    1.7229 H   0  0  0  0  0  0  0  0  0  0  0  0
   -9.6713    3.0600    1.2950 H   0  0  0  0  0  0  0  0  0  0  0  0
   -8.4406    4.0063    0.3935 H   0  0  0  0  0  0  0  0  0  0  0  0
   -8.1315    1.7034    0.1530 H   0  0  0  0  0  0  0  0  0  0  0  0
   -7.1049   -0.3934   -0.5394 H   0  0  0  0  0  0  0  0  0  0  0  0
   -4.8618   -4.2844    1.4528 H   0  0  0  0  0  0  0  0  0  0  0  0
    0.1842   -7.6895   -0.0025 H   0  0  0  0  0  0  0  0  0  0  0  0
   -4.4607   -9.6465    0.5047 H   0  0  0  0  0  0  0  0  0  0  0  0
   -2.4831  -11.7338   -1.3471 H   0  0  0  0  0  0  0  0  0  0  0  0
   -2.7054  -12.7355    1.1110 H   0  0  0  0  0  0  0  0  0  0  0  0
   -1.3124  -14.4163   -0.3515 H   0  0  0  0  0  0  0  0  0  0  0  0
    1.1367  -13.4277   -0.6408 H   0  0  0  0  0  0  0  0  0  0  0  0
    1.2527  -11.1408    0.6450 H   0  0  0  0  0  0  0  0  0  0  0  0
   -0.3688  -12.4081    2.3103 H   0  0  0  0  0  0  0  0  0  0  0  0
   -1.0558  -10.8013    1.9797 H   0  0  0  0  0  0  0  0  0  0  0  0
   -0.0828  -10.7595   -1.6281 H   0  0  0  0  0  0  0  0  0  0  0  0
  1  2  2  0  0  0  0
  2  3  1  0  0  0  0
  3  4  2  0  0  0  0
  3  5  1  0  0  0  0
  5  6  2  0  0  0  0
  6  7  1  0  0  0  0
  7  8  2  0  0  0  0
  8  9  1  0  0  0  0
  9 10  2  0  0  0  0
 10 11  1  0  0  0  0
 11 12  2  0  0  0  0
 12 13  1  0  0  0  0
 13 14  3  0  0  0  0
 12 15  1  0  0  0  0
 15 16  3  0  0  0  0
  8 17  1  0  0  0  0
 17 18  1  0  0  0  0
 18 19  1  0  0  0  0
 19 20  2  0  0  0  0
 20 21  1  0  0  0  0
 21 22  1  0  0  0  0
 21 23  1  0  0  0  0
  1 24  1  0  0  0  0
 24 25  2  0  0  0  0
 25 26  1  0  0  0  0
 26 27  1  0  0  0  0
 27 28  2  0  0  0  0
 28 29  2  0  0  0  0
 26 30  2  0  0  0  0
 30 31  1  0  0  0  0
 31 32  2  0  0  0  0
 32 33  1  0  0  0  0
 33 34  1  0  0  0  0
 34 35  2  0  0  0  0
 30 36  1  0  0  0  0
 36 37  2  0  0  0  0
 37 38  1  0  0  0  0
 38 39  2  0  0  0  0
 39 40  1  0  0  0  0
 40 41  1  0  0  0  0
 40 42  2  0  0  0  0
 42 43  1  0  0  0  0
 39 44  1  0  0  0  0
 44 45  2  0  0  0  0
 45 46  1  0  0  0  0
 46 47  1  0  0  0  0
 47 48  2  0  0  0  0
 48 49  1  0  0  0  0
 49 50  2  0  0  0  0
 50 51  1  0  0  0  0
 51 52  1  0  0  0  0
 50 53  1  0  0  0  0
 53 54  2  0  0  0  0
 46 55  1  0  0  0  0
 55 56  2  0  0  0  0
 56 57  1  0  0  0  0
 57 58  2  0  0  0  0
 58 59  1  0  0  0  0
 59 60  1  0  0  0  0
 58 61  1  0  0  0  0
 61 62  2  0  0  0  0
 45 63  1  0  0  0  0
 63 64  1  0  0  0  0
 64 65  1  0  0  0  0
 65 66  2  0  0  0  0
 66 67  1  0  0  0  0
 67 68  1  0  0  0  0
 68 69  2  0  0  0  0
 69 70  1  0  0  0  0
 70 71  2  0  0  0  0
 71 72  1  0  0  0  0
 72 73  1  0  0  0  0
 71 74  1  0  0  0  0
 74 75  2  0  0  0  0
 67 76  1  0  0  0  0
 76 77  2  0  0  0  0
 77 78  1  0  0  0  0
 78 79  2  0  0  0  0
 79 80  1  0  0  0  0
 80 81  1  0  0  0  0
 79 82  1  0  0  0  0
 82 83  2  0  0  0  0
 66 84  1  0  0  0  0
 84 85  1  0  0  0  0
 65 86  1  0  0  0  0
 86 87  2  0  0  0  0
 87 88  1  0  0  0  0
 88 89  2  0  0  0  0
 88 90  1  0  0  0  0
 90 91  2  0  0  0  0
 91 92  1  0  0  0  0
 92 93  2  0  0  0  0
 93 94  1  0  0  0  0
 94 95  2  0  0  0  0
 95 96  1  0  0  0  0
 96 97  2  0  0  0  0
 97 98  1  0  0  0  0
 98 99  3  0  0  0  0
 97100  1  0  0  0  0
100101  3  0  0  0  0
 93102  1  0  0  0  0
102103  1  0  0  0  0
103104  1  0  0  0  0
104105  2  0  0  0  0
105106  1  0  0  0  0
106107  1  0  0  0  0
106108  1  0  0  0  0
 11  2  1  0  0  0  0
 23 17  1  0  0  0  0
 35 24  1  0  0  0  0
 42 36  1  0  0  0  0
 85 44  1  0  0  0  0
 96 87  1  0  0  0  0
108102  1  0  0  0  0
 10  5  1  0  0  0  0
 22 18  1  0  0  0  0
 29 25  1  0  0  0  0
 35 31  1  0  0  0  0
 54 47  1  0  0  0  0
 62 55  1  0  0  0  0
 84 63  2  0  0  0  0
 95 90  1  0  0  0  0
107103  1  0  0  0  0
 23  7  1  0  0  0  0
 75 68  1  0  0  0  0
 83 76  1  0  0  0  0
108 92  1  0  0  0  0
  1109  1  0  0  0  0
  6110  1  0  0  0  0
  9111  1  0  0  0  0
 17112  1  0  0  0  0
 18113  1  0  0  0  0
 19114  1  0  0  0  0
 20115  1  0  0  0  0
 21116  1  0  0  0  0
 22117  1  0  0  0  0
 22118  1  0  0  0  0
 23119  1  0  0  0  0
 37120  1  0  0  0  0
 38121  1  0  0  0  0
 48122  1  0  0  0  0
 49123  1  0  0  0  0
 52124  1  0  0  0  0
 52125  1  0  0  0  0
 52126  1  0  0  0  0
 53127  1  0  0  0  0
 54128  1  0  0  0  0
 56129  1  0  0  0  0
 57130  1  0  0  0  0
 60131  1  0  0  0  0
 60132  1  0  0  0  0
 60133  1  0  0  0  0
 61134  1  0  0  0  0
 62135  1  0  0  0  0
 69136  1  0  0  0  0
 70137  1  0  0  0  0
 73138  1  0  0  0  0
 73139  1  0  0  0  0
 73140  1  0  0  0  0
 74141  1  0  0  0  0
 75142  1  0  0  0  0
 77143  1  0  0  0  0
 78144  1  0  0  0  0
 81145  1  0  0  0  0
 81146  1  0  0  0  0
 81147  1  0  0  0  0
 82148  1  0  0  0  0
 83149  1  0  0  0  0
 86150  1  0  0  0  0
 91151  1  0  0  0  0
 94152  1  0  0  0  0
102153  1  0  0  0  0
103154  1  0  0  0  0
104155  1  0  0  0  0
105156  1  0  0  0  0
106157  1  0  0  0  0
107158  1  0  0  0  0
107159  1  0  0  0  0
108160  1  0  0  0  0
M  END
