154

C          5.38870       -7.37190       -0.25800
C          5.55010       -8.28800        0.74810
C          5.07140       -8.16120        2.14490
O          4.35890       -7.30380        2.63740
C          5.72680       -9.24630        2.89380
C          5.58530       -9.51260        4.25470
C          6.31330      -10.59370        4.68890
C          7.12470      -11.35280        3.83420
C          7.27080      -11.10160        2.49050
C          6.53760      -10.00470        2.02670
C          6.42650       -9.44310        0.68380
C          6.99070       -9.97000       -0.44950
C          7.83050      -11.10280       -0.47070
N          8.52720      -12.01100       -0.56350
C          6.79830       -9.48340       -1.76010
N          6.68170       -9.16960       -2.85890
C          7.56530      -12.27690        4.94200
C          8.97870      -12.04230        5.51610
C          8.94460      -12.73980        6.85680
C          8.17590      -12.02190        7.66570
C          7.67730      -10.82700        6.88540
C          8.88860      -10.58160        5.97640
C          6.65990      -11.43160        5.89450
C          4.45680       -6.31590       -0.28190
C          3.27150       -6.19670        0.40180
C          2.62200       -4.96580        0.21910
C          1.45570       -4.51240        0.88330
C          0.87120       -5.25010        1.97500
C         -0.44390       -5.24260        2.36420
C         -0.75370       -5.95810        3.53190
C          0.32230       -6.53850        4.14150
S          0.38100       -7.52450        5.58420
C         -1.21860       -7.16750        6.39450
C         -1.28570       -5.75110        6.93090
Se         1.91670       -6.25520        3.20980
C          0.98070       -3.26480        0.47820
C          1.61470       -2.47800       -0.51630
C          2.79750       -2.92300       -1.15440
C          3.45810       -2.13110       -2.16720
C          2.87820       -1.39450       -3.16350
C          3.76000       -0.70390       -4.01640
C          5.08540       -0.85510       -3.72370
S          6.36680       -0.02290       -4.57300
C          7.81010       -1.06450       -4.15920
C          7.76720       -2.40740       -4.85880
Se         5.33690       -1.97840       -2.22830
C          3.28570       -4.15260       -0.73520
S          4.73790       -4.91960       -1.31560
C          0.98510       -1.22450       -0.67420
C         -0.09130       -1.03400        0.14810
S         -0.39790       -2.43150        1.14860
C         -0.97810        0.09930        0.19140
C         -0.68080        1.34360       -0.36970
O          0.60800        1.59730       -0.80110
C          1.49930        2.11130        0.19010
C          1.91490        1.13760        1.28510
C         -1.69140        2.32270       -0.57870
O         -1.56310        3.39530       -1.40040
C         -0.41850        4.22470       -1.52240
C         -0.33200        5.22350       -0.37250
C         -2.99700        2.16250       -0.07830
C         -3.26110        0.97850        0.65640
C         -2.26510       -0.04950        0.76070
N         -2.69910       -1.10670        1.43960
S         -4.21040       -0.83610        1.91620
N         -4.38810        0.62940        1.27490
C         -4.02130        3.13480       -0.31120
S         -3.77250        4.49830       -1.36800
C         -5.37560        5.04740       -1.07310
C         -6.07330        6.16030       -1.58510
C         -7.40260        6.30420       -1.15100
Si        -7.81690        4.90570        0.05380
C         -9.18020        3.73910       -0.59140
C         -9.34790        2.50360        0.28750
C         -8.12110        5.52420        1.83310
C         -9.46700        6.22550        1.98610
C         -6.07250        4.22040       -0.18970
C         -5.30050        3.14570        0.22710
C         -7.99650        7.40240       -1.72830
C         -7.16090        8.11420       -2.60360
S         -5.57360        7.37230       -2.68880
C         -7.60290        9.24580       -3.29570
C         -6.95730       10.05130       -4.20360
C         -5.57430        9.88780       -4.66860
O         -4.76360        9.04870       -4.31440
C         -5.35060       10.95200       -5.66130
C         -4.22140       11.22860       -6.40600
C         -4.26330       12.29230       -7.29420
C         -5.41050       13.06820       -7.43840
C         -5.42740       14.22300       -8.38960
C         -6.54520       12.78320       -6.67850
C         -6.51780       11.72460       -5.78830
C         -7.53530       11.19230       -4.87980
C         -8.79600       11.71180       -4.72030
C         -9.28640       12.83220       -5.42190
N         -9.75540       13.73580       -5.95390
C         -9.78750       11.22730       -3.84340
N        -10.65280       10.90420       -3.15900
H          6.06180       -7.41700       -1.10530
H          4.94250       -8.90470        4.87230
H          7.89750      -11.69600        1.84710
H          7.33320      -13.33070        4.80070
H          9.79180      -12.30830        4.84630
H          9.42190      -13.68140        7.05550
H          7.88270      -12.24410        8.67510
H          7.30530       -9.98530        7.46320
H          8.70300       -9.87300        5.17140
H          9.76860      -10.27250        6.53810
H          5.82320      -11.92160        6.38890
H          2.85170       -7.01330        0.95730
H         -1.21360       -4.75980        1.78650
H         -1.76250       -6.03050        3.89970
H         -1.27030       -7.89650        7.20290
H         -2.01280       -7.37820        5.67960
H         -0.48820       -5.58320        7.65110
H         -2.24190       -5.58820        7.42420
H         -1.18080       -5.02660        6.12610
H          1.81440       -1.39540       -3.33190
H          3.42160       -0.11020       -4.84780
H          7.82660       -1.17370       -3.07010
H          8.67290       -0.47830       -4.47380
H          7.72740       -2.27300       -5.93710
H          6.89130       -2.97630       -4.54650
H          8.65600       -2.98220       -4.60820
H          1.32250       -0.47360       -1.36210
H          1.05540        2.99910        0.65900
H          2.37740        2.41790       -0.38460
H          2.43920        0.28180        0.87010
H          2.57950        1.65810        1.97040
H          1.05150        0.78390        1.84420
H         -0.58950        4.75950       -2.46060
H          0.49260        3.63390       -1.61870
H         -1.20250        5.87450       -0.38270
H          0.56470        5.82750       -0.47770
H         -0.30190        4.71140        0.58790
H         -8.95000        3.42440       -1.61010
H        -10.12720        4.27700       -0.63870
H         -8.42390        1.93240        0.32370
H         -9.61330        2.78690        1.30280
H        -10.13370        1.85840       -0.10100
H         -7.32540        6.20940        2.12850
H         -8.07660        4.68090        2.52260
H         -9.52940        7.08380        1.32250
H        -10.28290        5.54910        1.74540
H         -9.60580        6.57430        3.00770
H         -5.63520        2.38070        0.90200
H         -9.01230        7.71060       -1.55030
H         -8.63130        9.50110       -3.06930
H         -3.33580       10.62230       -6.29260
H         -3.39250       12.52580       -7.88940
H         -4.76500       14.04370       -9.23310
H         -6.43360       14.40760       -8.75740
H         -5.08660       15.12470       -7.87950
H         -7.42610       13.39250       -6.80080
