219

C         -0.21400       -2.70550       -6.30330
C          0.46120       -3.90390       -6.37940
C          0.46620       -4.95040       -5.36190
O         -0.12380       -4.95110       -4.29140
C          1.31540       -6.03470       -5.88650
C          1.63760       -7.23270       -5.25350
C          2.47330       -8.04370       -5.98370
C          2.95010       -7.69000       -7.25180
C          2.63920       -6.51050       -7.88750
C          1.79300       -5.66870       -7.16100
C          1.28330       -4.33390       -7.48290
C          1.59980       -3.61600       -8.61160
C          1.21890       -2.28820       -8.88220
N          0.98610       -1.20340       -9.18630
C          2.39490       -4.10170       -9.66890
N          3.02320       -4.42870      -10.57350
C          3.73920       -8.96750       -7.40020
C          3.13110      -10.05580       -8.30930
C          3.84460      -11.31970       -7.88690
C          3.39380      -11.65510       -6.68480
C          2.36780      -10.62350       -6.27460
C          1.76740      -10.28810       -7.64590
C          3.20780       -9.36190       -5.98480
C         -0.84270       -2.10450       -5.21890
C         -1.27200       -0.74920       -5.26580
N         -1.62130       -0.11140       -6.42140
C         -2.18870       -0.83150       -7.49590
C         -3.09400       -1.86180       -7.26240
C         -3.64280       -2.56670       -8.31510
C         -3.30000       -2.24360       -9.62230
S         -3.93000       -3.07300      -11.04480
C         -4.94140       -4.41710      -10.36060
C         -2.41310       -1.19420       -9.85780
C         -1.86290       -0.49270       -8.80870
C         -1.55970        1.28650       -6.53330
C         -2.58260        1.99620       -7.15460
C         -2.50740        3.36920       -7.28130
C         -1.40620        4.05700       -6.78640
S         -1.19720        5.80420       -6.88940
C         -2.65760        6.37070       -7.80570
C         -0.38180        3.34750       -6.16240
C         -0.45710        1.97870       -6.03960
C         -1.31890       -0.21110       -3.96720
S         -1.39390        1.39770       -3.31130
C         -1.19990        0.75140       -1.69930
C         -1.24270       -0.63060       -1.66370
N         -1.47330       -1.34230       -0.46790
C         -2.74310       -1.26230        0.10330
C         -3.75730       -0.46720       -0.43200
C         -5.02130       -0.44280        0.12540
C         -5.31400       -1.22720        1.22940
S         -6.89440       -1.24660        2.03430
C         -8.02230       -0.65420        0.74060
C         -4.31730       -2.03650        1.76410
C         -3.05810       -2.06010        1.20930
C         -0.40670       -1.87310        0.29390
C         -0.14090       -1.36560        1.56680
C          0.91120       -1.84980        2.30830
C          1.71930       -2.86660        1.80070
S          3.06360       -3.37360        2.82920
C          4.05700       -4.43580        1.73940
C          1.43000       -3.41010        0.55650
C          0.37270       -2.91480       -0.19160
C         -1.20630       -1.17370       -2.96560
S         -0.88470       -2.75190       -3.57990
C         -0.86200        1.52300       -0.53170
C          0.34420        1.36430        0.13260
N          1.48130        0.76770       -0.35400
C          1.69580        0.48920       -1.73660
C          1.86470       -0.82390       -2.15940
C          2.13130       -1.10370       -3.48100
C          2.27630       -0.07240       -4.40580
S          2.54790       -0.57690       -6.07680
C          3.00090        0.94450       -6.95610
C          2.16750        1.24470       -3.97590
C          1.86360        1.51900       -2.65350
C          2.69430        0.93580        0.37180
C          3.13280        2.20940        0.72420
C          4.28120        2.36660        1.47280
C          4.99640        1.25170        1.88280
S          6.43480        1.43160        2.90500
C          5.71840        2.39150        4.27510
C          4.60200       -0.01500        1.47640
C          3.46160       -0.17030        0.71350
C          0.23580        1.85080        1.46070
S          1.23700        1.66840        2.85470
C         -0.01880        2.36750        3.86940
C         -1.09290        2.85420        3.12680
N         -2.07660        3.70230        3.58790
C         -3.36270        3.58960        3.04000
C         -4.06430        4.71950        2.62950
C         -5.32330        4.60400        2.07490
C         -5.90500        3.35150        1.93210
S         -7.49960        3.08470        1.22100
C         -8.17390        4.75450        1.00080
C         -5.21190        2.21840        2.35050
C         -3.95020        2.33390        2.88830
C         -1.78480        4.71480        4.50860
C         -0.50670        5.26820        4.59290
C         -0.23070        6.25310        5.51400
C         -1.22330        6.72370        6.36990
S         -0.74670        7.98490        7.51060
C         -2.21550        8.20820        8.55430
C         -2.50380        6.19660        6.27390
C         -2.77720        5.20380        5.35510
C         -0.97530        2.44910        1.76760
S         -2.05440        2.41630        0.41390
C          0.20380        2.23120        5.26360
C         -0.70620        2.20160        6.31930
O         -2.00910        2.49330        6.07580
C         -3.02720        1.80320        6.78550
C         -3.03430        0.31010        6.47880
C         -0.10390        1.82530        7.53960
O         -0.84760        1.79190        8.67700
C         -0.66710        0.76940        9.65190
C         -2.03270        0.35470       10.18520
C          1.25860        1.49460        7.40860
S          1.77310        1.70490        5.75490
C          2.12800        1.05670        8.42160
C          3.33860        0.42640        8.30820
S          4.16320       -0.17570        9.74800
C          5.29110       -1.08330        8.77290
C          6.28310       -1.85900        9.31820
C          7.24470       -2.55810        8.56810
N          8.06680       -3.14340        8.01970
C          6.39740       -1.97810       10.71600
N          6.48670       -2.08120       11.85540
N          5.06010       -0.88550        7.44940
C          5.71200       -1.61410        6.40730
C          6.61200       -0.97030        5.57610
C          7.18700       -1.67090        4.53140
C          6.86460       -3.00090        4.32690
C          5.96070       -3.63660        5.16130
C          5.37240       -2.94320        6.20170
C          4.03610       -0.00640        7.12100
O          3.80400        0.30470        5.96600
H         -0.18030       -2.08850       -7.19140
H          1.25190       -7.46240       -4.27230
H          3.02040       -6.25260       -8.86120
H          4.81210       -8.84800       -7.53890
H          3.13940       -9.81980       -9.36990
H          4.61910      -11.79230       -8.46200
H          3.71660      -12.46370       -6.05540
H          1.68010      -10.90580       -5.48170
H          1.12070       -9.41270       -7.64450
H          1.23650      -11.13340       -8.08090
H          3.92770       -9.50530       -5.18080
H         -3.37180       -2.11600       -6.25030
H         -4.34170       -3.35840       -8.09990
H         -4.32980       -5.05870       -9.73320
H         -5.78380       -4.00930       -9.80940
H         -5.30080       -4.97570      -11.21920
H         -2.15090       -0.94510      -10.87390
H         -1.16410        0.30580       -8.99930
H         -3.44430        1.47070       -7.53820
H         -3.31850        3.88960       -7.76370
H         -2.53730        7.44450       -7.91000
H         -3.55940        6.15480       -7.24010
H         -2.68320        5.90600       -8.78690
H          0.47180        3.88740       -5.78150
H          0.33370        1.42370       -5.56430
H         -3.57400        0.15050       -1.29700
H         -5.76710        0.20190       -0.31230
H         -7.91080        0.41780        0.60320
H         -7.82660       -1.19520       -0.18010
H         -9.02310       -0.87440        1.09860
H         -4.54450       -2.65810        2.61690
H         -2.31280       -2.71940        1.62630
H         -0.77240       -0.58780        1.96890
H          1.13560       -1.43780        3.28020
H          4.30620       -3.89940        0.82860
H          4.96180       -4.65640        2.29670
H          3.52500       -5.35730        1.52100
H          2.01480       -4.22150        0.15300
H          0.14390       -3.35110       -1.15310
H          1.76910       -1.62770       -1.44990
H          2.23440       -2.12550       -3.81340
H          3.25920        0.62140       -7.95990
H          2.15670        1.62570       -7.00280
H          3.86040        1.40260       -6.47590
H          2.32630        2.06700       -4.65580
H          1.75950        2.54540       -2.33350
H          2.56530        3.07640        0.41720
H          4.61580        3.35790        1.73800
H          6.52130        2.55070        4.98810
H          5.35500        3.34880        3.91620
H          4.91340        1.81360        4.72150
H          5.17860       -0.87320        1.78480
H          3.14150       -1.15210        0.40640
H         -3.61260        5.69480        2.73610
H         -5.83240        5.49780        1.75190
H         -7.59580        5.29700        0.25810
H         -9.19030        4.61570        0.64560
H         -8.18370        5.27540        1.95380
H         -5.67440        1.24970        2.26050
H         -3.41510        1.45190        3.20610
H          0.27550        4.92900        3.93140
H          0.76090        6.67450        5.57830
H         -1.92650        8.92680        9.31480
H         -2.48310        7.26420        9.01980
H         -3.03690        8.60660        7.96580
H         -3.29870        6.54300        6.91470
H         -3.77210        4.78880        5.30430
H         -3.94990        2.26480        6.42420
H         -2.93370        1.98200        7.86000
H         -3.13200        0.14690        5.40800
H         -3.87310       -0.16460        6.98040
H         -2.10980       -0.15630        6.81390
H         -0.15250       -0.09110        9.21090
H         -0.06590        1.16410       10.48060
H         -1.90150       -0.36380       10.98950
H         -2.63250       -0.09810        9.40070
H         -2.55800        1.22410       10.57120
H          1.78680        1.20150        9.43730
H          6.85730        0.06620        5.74410
H          7.88200       -1.16830        3.87680
H          7.32300       -3.54470        3.51400
H          5.70640       -4.67400        5.00550
H          4.65730       -3.42670        6.85120
