
  xtb     02052206033D
 energy: -332.804059808271 gnorm: 0.000681021363 xtb: 6.4.1 (unknown)
205227  0     0  0            999 V2000
    5.7614    3.7528    7.6102 C   0  0  0  0  0  0  0  0  0  0  0  0
    5.1267    4.8709    8.0489 C   0  0  0  0  0  0  0  0  0  0  0  0
    4.2013    5.7349    7.2627 C   0  0  0  0  0  0  0  0  0  0  0  0
    3.7236    5.5329    6.1678 O   0  0  0  0  0  0  0  0  0  0  0  0
    4.0390    6.9674    8.0580 C   0  0  0  0  0  0  0  0  0  0  0  0
    3.2917    8.0889    7.7008 C   0  0  0  0  0  0  0  0  0  0  0  0
    3.3198    9.0991    8.6310 C   0  0  0  0  0  0  0  0  0  0  0  0
    4.0502    9.0089    9.8246 C   0  0  0  0  0  0  0  0  0  0  0  0
    4.7959    7.9133   10.1859 C   0  0  0  0  0  0  0  0  0  0  0  0
    4.7695    6.8658    9.2579 C   0  0  0  0  0  0  0  0  0  0  0  0
    5.4150    5.5592    9.2995 C   0  0  0  0  0  0  0  0  0  0  0  0
    6.0975    5.0413   10.3680 C   0  0  0  0  0  0  0  0  0  0  0  0
    6.6422    3.7407   10.4386 C   0  0  0  0  0  0  0  0  0  0  0  0
    7.0989    2.6984   10.5940 N   0  0  0  0  0  0  0  0  0  0  0  0
    6.3261    5.7279   11.5792 C   0  0  0  0  0  0  0  0  0  0  0  0
    6.5495    6.2248   12.5898 N   0  0  0  0  0  0  0  0  0  0  0  0
    3.6261   10.3823   10.2818 C   0  0  0  0  0  0  0  0  0  0  0  0
    2.5268   10.4370   11.3640 C   0  0  0  0  0  0  0  0  0  0  0  0
    1.9879   11.8455   11.2613 C   0  0  0  0  0  0  0  0  0  0  0  0
    1.2947   11.9310   10.1331 C   0  0  0  0  0  0  0  0  0  0  0  0
    1.3530   10.5815    9.4545 C   0  0  0  0  0  0  0  0  0  0  0  0
    1.3850    9.6681   10.6867 C   0  0  0  0  0  0  0  0  0  0  0  0
    2.8097   10.4819    8.9533 C   0  0  0  0  0  0  0  0  0  0  0  0
    5.4766    2.9730    6.4362 C   0  0  0  0  0  0  0  0  0  0  0  0
    4.1754    2.8223    5.9351 C   0  0  0  0  0  0  0  0  0  0  0  0
    3.9888    2.0787    4.7988 C   0  0  0  0  0  0  0  0  0  0  0  0
    2.6889    1.7844    4.0914 C   0  0  0  0  0  0  0  0  0  0  0  0
    1.8576    3.0098    3.8021 C   0  0  0  0  0  0  0  0  0  0  0  0
    2.1721    4.1059    3.0270 C   0  0  0  0  0  0  0  0  0  0  0  0
    1.2682    5.1498    2.9577 C   0  0  0  0  0  0  0  0  0  0  0  0
    0.0588    5.1149    3.6590 C   0  0  0  0  0  0  0  0  0  0  0  0
   -0.7127    6.2359    3.5340 O   0  0  0  0  0  0  0  0  0  0  0  0
   -1.8621    6.3900    4.3437 C   0  0  0  0  0  0  0  0  0  0  0  0
   -3.1028    5.7188    3.7618 C   0  0  0  0  0  0  0  0  0  0  0  0
   -0.2711    3.9985    4.4190 C   0  0  0  0  0  0  0  0  0  0  0  0
    0.6359    2.9534    4.4816 C   0  0  0  0  0  0  0  0  0  0  0  0
    0.5689    1.6963    5.2105 C   0  0  0  0  0  0  0  0  0  0  0  0
   -0.4107    1.1705    6.0273 C   0  0  0  0  0  0  0  0  0  0  0  0
   -0.1908   -0.0652    6.6421 C   0  0  0  0  0  0  0  0  0  0  0  0
   -1.2051   -0.5078    7.4352 O   0  0  0  0  0  0  0  0  0  0  0  0
   -1.0581   -1.7313    8.1260 C   0  0  0  0  0  0  0  0  0  0  0  0
   -2.3200   -1.9537    8.9447 C   0  0  0  0  0  0  0  0  0  0  0  0
    1.0039   -0.7480    6.4279 C   0  0  0  0  0  0  0  0  0  0  0  0
    1.9862   -0.2190    5.5984 C   0  0  0  0  0  0  0  0  0  0  0  0
    1.7624    0.9922    4.9887 C   0  0  0  0  0  0  0  0  0  0  0  0
    3.1648    1.0137    2.8898 C   0  0  0  0  0  0  0  0  0  0  0  0
    4.5513    0.7913    2.9589 C   0  0  0  0  0  0  0  0  0  0  0  0
    5.0620    1.4545    4.1404 C   0  0  0  0  0  0  0  0  0  0  0  0
    6.3463    1.5575    4.6608 C   0  0  0  0  0  0  0  0  0  0  0  0
    6.5381    2.3011    5.8058 C   0  0  0  0  0  0  0  0  0  0  0  0
    5.1908    0.0719    1.9597 C   0  0  0  0  0  0  0  0  0  0  0  0
    4.4451   -0.4116    0.9030 C   0  0  0  0  0  0  0  0  0  0  0  0
    3.0676   -0.1840    0.8276 C   0  0  0  0  0  0  0  0  0  0  0  0
    2.4256    0.5475    1.8318 C   0  0  0  0  0  0  0  0  0  0  0  0
    2.2849   -0.6911   -0.2844 C   0  0  0  0  0  0  0  0  0  0  0  0
    2.3101   -1.9442   -0.8636 C   0  0  0  0  0  0  0  0  0  0  0  0
    3.1048   -2.9993   -0.4316 N   0  0  0  0  0  0  0  0  0  0  0  0
    3.6273   -3.8903   -1.3747 C   0  0  0  0  0  0  0  0  0  0  0  0
    3.9884   -3.4420   -2.6426 C   0  0  0  0  0  0  0  0  0  0  0  0
    4.4563   -4.3225   -3.5988 C   0  0  0  0  0  0  0  0  0  0  0  0
    4.5816   -5.6708   -3.2980 C   0  0  0  0  0  0  0  0  0  0  0  0
    5.1628   -6.8881   -4.4372 S   0  0  0  0  0  0  0  0  0  0  0  0
    5.1525   -6.0230   -6.0333 C   0  0  0  0  0  0  0  0  0  0  0  0
    4.2480   -6.1201   -2.0211 C   0  0  0  0  0  0  0  0  0  0  0  0
    3.7720   -5.2451   -1.0719 C   0  0  0  0  0  0  0  0  0  0  0  0
    3.3436   -3.1566    0.9376 C   0  0  0  0  0  0  0  0  0  0  0  0
    2.3390   -2.8715    1.8621 C   0  0  0  0  0  0  0  0  0  0  0  0
    2.5904   -2.9361    3.2150 C   0  0  0  0  0  0  0  0  0  0  0  0
    3.8460   -3.3146    3.6691 C   0  0  0  0  0  0  0  0  0  0  0  0
    4.2343   -3.3569    5.4020 S   0  0  0  0  0  0  0  0  0  0  0  0
    2.8227   -4.3079    6.0495 C   0  0  0  0  0  0  0  0  0  0  0  0
    4.8440   -3.6293    2.7561 C   0  0  0  0  0  0  0  0  0  0  0  0
    4.5979   -3.5503    1.4014 C   0  0  0  0  0  0  0  0  0  0  0  0
    1.3468   -2.0455   -1.9008 C   0  0  0  0  0  0  0  0  0  0  0  0
    0.8820   -3.2907   -3.0059 S   0  0  0  0  0  0  0  0  0  0  0  0
   -0.3805   -2.2572   -3.6676 C   0  0  0  0  0  0  0  0  0  0  0  0
   -0.3841   -0.9898   -3.1025 C   0  0  0  0  0  0  0  0  0  0  0  0
   -1.1652    0.0796   -3.4977 N   0  0  0  0  0  0  0  0  0  0  0  0
   -1.4857    1.0458   -2.5285 C   0  0  0  0  0  0  0  0  0  0  0  0
   -1.3271    2.4025   -2.7920 C   0  0  0  0  0  0  0  0  0  0  0  0
   -1.5387    3.3368   -1.7977 C   0  0  0  0  0  0  0  0  0  0  0  0
   -1.9056    2.9271   -0.5216 C   0  0  0  0  0  0  0  0  0  0  0  0
   -2.1142    4.0286    0.8390 S   0  0  0  0  0  0  0  0  0  0  0  0
   -1.2435    5.5280    0.3057 C   0  0  0  0  0  0  0  0  0  0  0  0
   -2.1282    1.5747   -0.2734 C   0  0  0  0  0  0  0  0  0  0  0  0
   -1.9254    0.6435   -1.2668 C   0  0  0  0  0  0  0  0  0  0  0  0
   -1.5362    0.2615   -4.8357 C   0  0  0  0  0  0  0  0  0  0  0  0
   -2.7828    0.8004   -5.1417 C   0  0  0  0  0  0  0  0  0  0  0  0
   -3.2192    0.8705   -6.4501 C   0  0  0  0  0  0  0  0  0  0  0  0
   -2.4144    0.3981   -7.4780 C   0  0  0  0  0  0  0  0  0  0  0  0
   -2.9057    0.3696   -9.1708 S   0  0  0  0  0  0  0  0  0  0  0  0
   -4.7168    0.4557   -9.0711 C   0  0  0  0  0  0  0  0  0  0  0  0
   -1.1353   -0.0699   -7.1828 C   0  0  0  0  0  0  0  0  0  0  0  0
   -0.6975   -0.1308   -5.8798 C   0  0  0  0  0  0  0  0  0  0  0  0
    0.5944   -0.8969   -2.0803 C   0  0  0  0  0  0  0  0  0  0  0  0
    1.0575    0.3474   -0.9750 S   0  0  0  0  0  0  0  0  0  0  0  0
   -1.2298   -2.7515   -4.7037 C   0  0  0  0  0  0  0  0  0  0  0  0
   -2.5596   -2.4654   -4.9022 C   0  0  0  0  0  0  0  0  0  0  0  0
   -3.0908   -3.0400   -6.0652 C   0  0  0  0  0  0  0  0  0  0  0  0
   -4.6545   -2.6212   -6.7200 S   0  0  0  0  0  0  0  0  0  0  0  0
   -5.7035   -2.5558   -5.2183 C   0  0  0  0  0  0  0  0  0  0  0  0
   -5.9803   -1.1417   -4.7483 C   0  0  0  0  0  0  0  0  0  0  0  0
   -2.1735   -3.8211   -6.7609 C   0  0  0  0  0  0  0  0  0  0  0  0
   -0.6080   -3.7524   -5.9771 S   0  0  0  0  0  0  0  0  0  0  0  0
   -2.2822   -4.6039   -7.9296 C   0  0  0  0  0  0  0  0  0  0  0  0
   -3.3673   -5.3109   -8.3689 C   0  0  0  0  0  0  0  0  0  0  0  0
   -4.5367   -5.6771   -7.5469 C   0  0  0  0  0  0  0  0  0  0  0  0
   -4.7957   -5.3066   -6.4176 O   0  0  0  0  0  0  0  0  0  0  0  0
   -5.2917   -6.6667   -8.3371 C   0  0  0  0  0  0  0  0  0  0  0  0
   -6.4566   -7.3281   -7.9545 C   0  0  0  0  0  0  0  0  0  0  0  0
   -6.9328   -8.2120   -8.8928 C   0  0  0  0  0  0  0  0  0  0  0  0
   -6.2946   -8.4281  -10.1210 C   0  0  0  0  0  0  0  0  0  0  0  0
   -5.1453   -7.7830  -10.5114 C   0  0  0  0  0  0  0  0  0  0  0  0
   -4.6454   -6.8763   -9.5716 C   0  0  0  0  0  0  0  0  0  0  0  0
   -3.4627   -6.0211   -9.6281 C   0  0  0  0  0  0  0  0  0  0  0  0
   -2.6362   -5.8644  -10.7101 C   0  0  0  0  0  0  0  0  0  0  0  0
   -1.5410   -4.9766  -10.7715 C   0  0  0  0  0  0  0  0  0  0  0  0
   -0.6395   -4.2783  -10.9090 N   0  0  0  0  0  0  0  0  0  0  0  0
   -2.7797   -6.5547  -11.9313 C   0  0  0  0  0  0  0  0  0  0  0  0
   -2.8321   -7.0882  -12.9468 N   0  0  0  0  0  0  0  0  0  0  0  0
   -7.3085   -9.4559  -10.5587 C   0  0  0  0  0  0  0  0  0  0  0  0
   -6.8779  -10.9347  -10.4619 C   0  0  0  0  0  0  0  0  0  0  0  0
   -8.1846  -11.6943  -10.4850 C   0  0  0  0  0  0  0  0  0  0  0  0
   -8.7916  -11.4883   -9.3233 C   0  0  0  0  0  0  0  0  0  0  0  0
   -7.9050  -10.5863   -8.4953 C   0  0  0  0  0  0  0  0  0  0  0  0
   -6.5264  -11.0597   -8.9737 C   0  0  0  0  0  0  0  0  0  0  0  0
   -8.0221   -9.2130   -9.1902 C   0  0  0  0  0  0  0  0  0  0  0  0
    6.6168    3.4086    8.1808 H   0  0  0  0  0  0  0  0  0  0  0  0
    2.7526    8.1174    6.7667 H   0  0  0  0  0  0  0  0  0  0  0  0
    5.3618    7.8644   11.1010 H   0  0  0  0  0  0  0  0  0  0  0  0
    4.4298   11.0952   10.4550 H   0  0  0  0  0  0  0  0  0  0  0  0
    2.8413   10.1032   12.3489 H   0  0  0  0  0  0  0  0  0  0  0  0
    2.2056   12.6242   11.9685 H   0  0  0  0  0  0  0  0  0  0  0  0
    0.8180   12.7956    9.7096 H   0  0  0  0  0  0  0  0  0  0  0  0
    0.5972   10.3799    8.7000 H   0  0  0  0  0  0  0  0  0  0  0  0
    1.6205    8.6291   10.4634 H   0  0  0  0  0  0  0  0  0  0  0  0
    0.4601    9.7168   11.2591 H   0  0  0  0  0  0  0  0  0  0  0  0
    3.0685   11.2621    8.2399 H   0  0  0  0  0  0  0  0  0  0  0  0
    3.3331    3.2617    6.4426 H   0  0  0  0  0  0  0  0  0  0  0  0
    3.1103    4.1588    2.4953 H   0  0  0  0  0  0  0  0  0  0  0  0
    1.4893    6.0310    2.3758 H   0  0  0  0  0  0  0  0  0  0  0  0
   -1.6622    6.0264    5.3587 H   0  0  0  0  0  0  0  0  0  0  0  0
   -2.0195    7.4724    4.3929 H   0  0  0  0  0  0  0  0  0  0  0  0
   -3.9450    5.8677    4.4322 H   0  0  0  0  0  0  0  0  0  0  0  0
   -2.9420    4.6535    3.6209 H   0  0  0  0  0  0  0  0  0  0  0  0
   -3.3435    6.1511    2.7942 H   0  0  0  0  0  0  0  0  0  0  0  0
   -1.1996    3.9289    4.9620 H   0  0  0  0  0  0  0  0  0  0  0  0
   -1.3388    1.6861    6.2162 H   0  0  0  0  0  0  0  0  0  0  0  0
   -0.1805   -1.6903    8.7864 H   0  0  0  0  0  0  0  0  0  0  0  0
   -0.9216   -2.5559    7.4112 H   0  0  0  0  0  0  0  0  0  0  0  0
   -3.1855   -1.9932    8.2891 H   0  0  0  0  0  0  0  0  0  0  0  0
   -2.2446   -2.8873    9.4949 H   0  0  0  0  0  0  0  0  0  0  0  0
   -2.4545   -1.1351    9.6462 H   0  0  0  0  0  0  0  0  0  0  0  0
    1.1911   -1.6898    6.9191 H   0  0  0  0  0  0  0  0  0  0  0  0
    2.9137   -0.7524    5.4496 H   0  0  0  0  0  0  0  0  0  0  0  0
    7.1776    1.0635    4.1810 H   0  0  0  0  0  0  0  0  0  0  0  0
    7.5318    2.3986    6.2191 H   0  0  0  0  0  0  0  0  0  0  0  0
    6.2554   -0.1015    1.9994 H   0  0  0  0  0  0  0  0  0  0  0  0
    4.9325   -0.9519    0.1055 H   0  0  0  0  0  0  0  0  0  0  0  0
    1.3619    0.7293    1.7751 H   0  0  0  0  0  0  0  0  0  0  0  0
    3.9078   -2.3916   -2.8823 H   0  0  0  0  0  0  0  0  0  0  0  0
    4.7248   -3.9398   -4.5700 H   0  0  0  0  0  0  0  0  0  0  0  0
    4.1706   -5.5940   -6.2101 H   0  0  0  0  0  0  0  0  0  0  0  0
    5.3647   -6.7826   -6.7793 H   0  0  0  0  0  0  0  0  0  0  0  0
    5.9276   -5.2623   -6.0551 H   0  0  0  0  0  0  0  0  0  0  0  0
    4.3537   -7.1691   -1.7910 H   0  0  0  0  0  0  0  0  0  0  0  0
    3.4957   -5.6052   -0.0923 H   0  0  0  0  0  0  0  0  0  0  0  0
    1.3587   -2.5819    1.5146 H   0  0  0  0  0  0  0  0  0  0  0  0
    1.8071   -2.6801    3.9117 H   0  0  0  0  0  0  0  0  0  0  0  0
    3.0169   -4.4528    7.1072 H   0  0  0  0  0  0  0  0  0  0  0  0
    1.8979   -3.7573    5.9118 H   0  0  0  0  0  0  0  0  0  0  0  0
    2.7765   -5.2666    5.5420 H   0  0  0  0  0  0  0  0  0  0  0  0
    5.8181   -3.9205    3.1172 H   0  0  0  0  0  0  0  0  0  0  0  0
    5.3799   -3.7831    0.6940 H   0  0  0  0  0  0  0  0  0  0  0  0
   -1.0155    2.7205   -3.7760 H   0  0  0  0  0  0  0  0  0  0  0  0
   -1.3969    4.3812   -2.0243 H   0  0  0  0  0  0  0  0  0  0  0  0
   -1.8276    6.0611   -0.4395 H   0  0  0  0  0  0  0  0  0  0  0  0
   -1.1326    6.1360    1.1984 H   0  0  0  0  0  0  0  0  0  0  0  0
   -0.2651    5.2542   -0.0770 H   0  0  0  0  0  0  0  0  0  0  0  0
   -2.4449    1.2662    0.7109 H   0  0  0  0  0  0  0  0  0  0  0  0
   -2.0810   -0.4069   -1.0678 H   0  0  0  0  0  0  0  0  0  0  0  0
   -3.4167    1.1568   -4.3415 H   0  0  0  0  0  0  0  0  0  0  0  0
   -4.1954    1.2795   -6.6543 H   0  0  0  0  0  0  0  0  0  0  0  0
   -5.0692   -0.2969   -8.3717 H   0  0  0  0  0  0  0  0  0  0  0  0
   -5.0762    0.2322  -10.0706 H   0  0  0  0  0  0  0  0  0  0  0  0
   -5.0357    1.4534   -8.7830 H   0  0  0  0  0  0  0  0  0  0  0  0
   -0.4972   -0.3967   -7.9891 H   0  0  0  0  0  0  0  0  0  0  0  0
    0.2926   -0.5017   -5.6616 H   0  0  0  0  0  0  0  0  0  0  0  0
   -3.1271   -1.8591   -4.2212 H   0  0  0  0  0  0  0  0  0  0  0  0
   -6.6259   -3.0574   -5.5087 H   0  0  0  0  0  0  0  0  0  0  0  0
   -5.2015   -3.1584   -4.4655 H   0  0  0  0  0  0  0  0  0  0  0  0
   -6.5114   -0.5838   -5.5163 H   0  0  0  0  0  0  0  0  0  0  0  0
   -6.5958   -1.1677   -3.8509 H   0  0  0  0  0  0  0  0  0  0  0  0
   -5.0559   -0.6160   -4.5231 H   0  0  0  0  0  0  0  0  0  0  0  0
   -1.3558   -4.7111   -8.4823 H   0  0  0  0  0  0  0  0  0  0  0  0
   -6.9165   -7.1323   -6.9983 H   0  0  0  0  0  0  0  0  0  0  0  0
   -4.6644   -7.9620  -11.4585 H   0  0  0  0  0  0  0  0  0  0  0  0
   -7.8491   -9.2293  -11.4757 H   0  0  0  0  0  0  0  0  0  0  0  0
   -6.1229  -11.2369  -11.1825 H   0  0  0  0  0  0  0  0  0  0  0  0
   -8.5468  -12.2393  -11.3369 H   0  0  0  0  0  0  0  0  0  0  0  0
   -9.7623  -11.8266   -9.0110 H   0  0  0  0  0  0  0  0  0  0  0  0
   -8.0860  -10.5721   -7.4237 H   0  0  0  0  0  0  0  0  0  0  0  0
   -6.3215  -12.0891   -8.6842 H   0  0  0  0  0  0  0  0  0  0  0  0
   -5.7036  -10.4217   -8.6567 H   0  0  0  0  0  0  0  0  0  0  0  0
   -9.0386   -8.8235   -9.1953 H   0  0  0  0  0  0  0  0  0  0  0  0
  1  2  2  0  0  0  0
  2  3  1  0  0  0  0
  3  4  2  0  0  0  0
  3  5  1  0  0  0  0
  5  6  2  0  0  0  0
  6  7  1  0  0  0  0
  7  8  2  0  0  0  0
  8  9  1  0  0  0  0
  9 10  2  0  0  0  0
 10 11  1  0  0  0  0
 11 12  2  0  0  0  0
 12 13  1  0  0  0  0
 13 14  3  0  0  0  0
 12 15  1  0  0  0  0
 15 16  3  0  0  0  0
  8 17  1  0  0  0  0
 17 18  1  0  0  0  0
 18 19  1  0  0  0  0
 19 20  2  0  0  0  0
 20 21  1  0  0  0  0
 21 22  1  0  0  0  0
 21 23  1  0  0  0  0
  1 24  1  0  0  0  0
 24 25  2  0  0  0  0
 25 26  1  0  0  0  0
 26 27  1  0  0  0  0
 27 28  1  0  0  0  0
 28 29  2  0  0  0  0
 29 30  1  0  0  0  0
 30 31  2  0  0  0  0
 31 32  1  0  0  0  0
 32 33  1  0  0  0  0
 33 34  1  0  0  0  0
 31 35  1  0  0  0  0
 35 36  2  0  0  0  0
 36 37  1  0  0  0  0
 37 38  2  0  0  0  0
 38 39  1  0  0  0  0
 39 40  1  0  0  0  0
 40 41  1  0  0  0  0
 41 42  1  0  0  0  0
 39 43  2  0  0  0  0
 43 44  1  0  0  0  0
 44 45  2  0  0  0  0
 27 46  1  0  0  0  0
 46 47  2  0  0  0  0
 47 48  1  0  0  0  0
 48 49  1  0  0  0  0
 49 50  2  0  0  0  0
 47 51  1  0  0  0  0
 51 52  2  0  0  0  0
 52 53  1  0  0  0  0
 53 54  2  0  0  0  0
 53 55  1  0  0  0  0
 55 56  2  0  0  0  0
 56 57  1  0  0  0  0
 57 58  1  0  0  0  0
 58 59  2  0  0  0  0
 59 60  1  0  0  0  0
 60 61  2  0  0  0  0
 61 62  1  0  0  0  0
 62 63  1  0  0  0  0
 61 64  1  0  0  0  0
 64 65  2  0  0  0  0
 57 66  1  0  0  0  0
 66 67  2  0  0  0  0
 67 68  1  0  0  0  0
 68 69  2  0  0  0  0
 69 70  1  0  0  0  0
 70 71  1  0  0  0  0
 69 72  1  0  0  0  0
 72 73  2  0  0  0  0
 56 74  1  0  0  0  0
 74 75  1  0  0  0  0
 75 76  1  0  0  0  0
 76 77  2  0  0  0  0
 77 78  1  0  0  0  0
 78 79  1  0  0  0  0
 79 80  2  0  0  0  0
 80 81  1  0  0  0  0
 81 82  2  0  0  0  0
 82 83  1  0  0  0  0
 83 84  1  0  0  0  0
 82 85  1  0  0  0  0
 85 86  2  0  0  0  0
 78 87  1  0  0  0  0
 87 88  2  0  0  0  0
 88 89  1  0  0  0  0
 89 90  2  0  0  0  0
 90 91  1  0  0  0  0
 91 92  1  0  0  0  0
 90 93  1  0  0  0  0
 93 94  2  0  0  0  0
 77 95  1  0  0  0  0
 95 96  1  0  0  0  0
 76 97  1  0  0  0  0
 97 98  2  0  0  0  0
 98 99  1  0  0  0  0
 99100  1  0  0  0  0
100101  1  0  0  0  0
101102  1  0  0  0  0
 99103  2  0  0  0  0
103104  1  0  0  0  0
103105  1  0  0  0  0
105106  2  0  0  0  0
106107  1  0  0  0  0
107108  2  0  0  0  0
107109  1  0  0  0  0
109110  2  0  0  0  0
110111  1  0  0  0  0
111112  2  0  0  0  0
112113  1  0  0  0  0
113114  2  0  0  0  0
114115  1  0  0  0  0
115116  2  0  0  0  0
116117  1  0  0  0  0
117118  3  0  0  0  0
116119  1  0  0  0  0
119120  3  0  0  0  0
112121  1  0  0  0  0
121122  1  0  0  0  0
122123  1  0  0  0  0
123124  2  0  0  0  0
124125  1  0  0  0  0
125126  1  0  0  0  0
125127  1  0  0  0  0
 11  2  1  0  0  0  0
 23 17  1  0  0  0  0
 50 24  1  0  0  0  0
 96 55  1  0  0  0  0
104 97  1  0  0  0  0
115106  1  0  0  0  0
127121  1  0  0  0  0
 10  5  1  0  0  0  0
 22 18  1  0  0  0  0
 48 26  2  0  0  0  0
 65 58  1  0  0  0  0
 73 66  1  0  0  0  0
 95 74  2  0  0  0  0
114109  1  0  0  0  0
126122  1  0  0  0  0
 23  7  1  0  0  0  0
 45 27  1  0  0  0  0
 54 46  1  0  0  0  0
 86 79  1  0  0  0  0
 94 87  1  0  0  0  0
127111  1  0  0  0  0
 36 28  1  0  0  0  0
 45 37  1  0  0  0  0
  1128  1  0  0  0  0
  6129  1  0  0  0  0
  9130  1  0  0  0  0
 17131  1  0  0  0  0
 18132  1  0  0  0  0
 19133  1  0  0  0  0
 20134  1  0  0  0  0
 21135  1  0  0  0  0
 22136  1  0  0  0  0
 22137  1  0  0  0  0
 23138  1  0  0  0  0
 25139  1  0  0  0  0
 29140  1  0  0  0  0
 30141  1  0  0  0  0
 33142  1  0  0  0  0
 33143  1  0  0  0  0
 34144  1  0  0  0  0
 34145  1  0  0  0  0
 34146  1  0  0  0  0
 35147  1  0  0  0  0
 38148  1  0  0  0  0
 41149  1  0  0  0  0
 41150  1  0  0  0  0
 42151  1  0  0  0  0
 42152  1  0  0  0  0
 42153  1  0  0  0  0
 43154  1  0  0  0  0
 44155  1  0  0  0  0
 49156  1  0  0  0  0
 50157  1  0  0  0  0
 51158  1  0  0  0  0
 52159  1  0  0  0  0
 54160  1  0  0  0  0
 59161  1  0  0  0  0
 60162  1  0  0  0  0
 63163  1  0  0  0  0
 63164  1  0  0  0  0
 63165  1  0  0  0  0
 64166  1  0  0  0  0
 65167  1  0  0  0  0
 67168  1  0  0  0  0
 68169  1  0  0  0  0
 71170  1  0  0  0  0
 71171  1  0  0  0  0
 71172  1  0  0  0  0
 72173  1  0  0  0  0
 73174  1  0  0  0  0
 80175  1  0  0  0  0
 81176  1  0  0  0  0
 84177  1  0  0  0  0
 84178  1  0  0  0  0
 84179  1  0  0  0  0
 85180  1  0  0  0  0
 86181  1  0  0  0  0
 88182  1  0  0  0  0
 89183  1  0  0  0  0
 92184  1  0  0  0  0
 92185  1  0  0  0  0
 92186  1  0  0  0  0
 93187  1  0  0  0  0
 94188  1  0  0  0  0
 98189  1  0  0  0  0
101190  1  0  0  0  0
101191  1  0  0  0  0
102192  1  0  0  0  0
102193  1  0  0  0  0
102194  1  0  0  0  0
105195  1  0  0  0  0
110196  1  0  0  0  0
113197  1  0  0  0  0
121198  1  0  0  0  0
122199  1  0  0  0  0
123200  1  0  0  0  0
124201  1  0  0  0  0
125202  1  0  0  0  0
126203  1  0  0  0  0
126204  1  0  0  0  0
127205  1  0  0  0  0
M  END
