
  xtb     02142200013D
 energy: -446.209508738661 gnorm: 0.000764661057 xtb: 6.4.1 (unknown)
270295  0     0  0            999 V2000
   -7.0786    2.8708    4.6176 C   0  0  0  0  0  0  0  0  0  0  0  0
   -6.8649    4.0447    5.3129 C   0  0  0  0  0  0  0  0  0  0  0  0
   -5.7693    4.9720    5.0233 C   0  0  0  0  0  0  0  0  0  0  0  0
   -4.8875    4.8457    4.1859 O   0  0  0  0  0  0  0  0  0  0  0  0
   -6.0187    6.1695    5.8508 C   0  0  0  0  0  0  0  0  0  0  0  0
   -5.2459    7.3246    5.9145 C   0  0  0  0  0  0  0  0  0  0  0  0
   -5.7295    8.2765    6.7810 C   0  0  0  0  0  0  0  0  0  0  0  0
   -6.9025    8.0961    7.5225 C   0  0  0  0  0  0  0  0  0  0  0  0
   -7.6764    6.9593    7.4670 C   0  0  0  0  0  0  0  0  0  0  0  0
   -7.1963    5.9773    6.5985 C   0  0  0  0  0  0  0  0  0  0  0  0
   -7.7211    4.6450    6.2979 C   0  0  0  0  0  0  0  0  0  0  0  0
   -8.7540    4.0213    6.9541 C   0  0  0  0  0  0  0  0  0  0  0  0
   -9.1323    2.6833    6.7273 C   0  0  0  0  0  0  0  0  0  0  0  0
   -9.4723    1.5926    6.6072 N   0  0  0  0  0  0  0  0  0  0  0  0
   -9.5181    4.6151    7.9758 C   0  0  0  0  0  0  0  0  0  0  0  0
  -10.1733    5.0577    8.8093 N   0  0  0  0  0  0  0  0  0  0  0  0
   -6.8023    9.4575    8.1650 C   0  0  0  0  0  0  0  0  0  0  0  0
   -7.7238   10.5795    7.6265 C   0  0  0  0  0  0  0  0  0  0  0  0
   -8.0290   10.2323    6.1907 C   0  0  0  0  0  0  0  0  0  0  0  0
   -6.9171   10.4027    5.4880 C   0  0  0  0  0  0  0  0  0  0  0  0
   -5.8400   10.8686    6.4362 C   0  0  0  0  0  0  0  0  0  0  0  0
   -6.6845   11.6931    7.4207 C   0  0  0  0  0  0  0  0  0  0  0  0
   -5.4928    9.6585    7.3384 C   0  0  0  0  0  0  0  0  0  0  0  0
   -6.1073    2.1556    3.9174 C   0  0  0  0  0  0  0  0  0  0  0  0
   -4.7024    2.0996    4.0628 C   0  0  0  0  0  0  0  0  0  0  0  0
   -4.0011    2.5119    5.1532 N   0  0  0  0  0  0  0  0  0  0  0  0
   -2.6000    2.6693    5.0974 C   0  0  0  0  0  0  0  0  0  0  0  0
   -2.0070    3.4354    4.1022 C   0  0  0  0  0  0  0  0  0  0  0  0
   -0.6339    3.5682    4.0499 C   0  0  0  0  0  0  0  0  0  0  0  0
    0.1606    2.9219    4.9877 C   0  0  0  0  0  0  0  0  0  0  0  0
    1.9243    2.9863    4.9589 S   0  0  0  0  0  0  0  0  0  0  0  0
    2.2710    3.2921    3.2017 C   0  0  0  0  0  0  0  0  0  0  0  0
   -0.4355    2.1931    6.0145 C   0  0  0  0  0  0  0  0  0  0  0  0
   -1.8061    2.0712    6.0742 C   0  0  0  0  0  0  0  0  0  0  0  0
   -4.6062    2.7469    6.3990 C   0  0  0  0  0  0  0  0  0  0  0  0
   -4.2554    3.8827    7.1237 C   0  0  0  0  0  0  0  0  0  0  0  0
   -4.8859    4.1802    8.3170 C   0  0  0  0  0  0  0  0  0  0  0  0
   -5.8729    3.3365    8.8089 C   0  0  0  0  0  0  0  0  0  0  0  0
   -6.8036    3.6528   10.2675 S   0  0  0  0  0  0  0  0  0  0  0  0
   -6.4546    5.3978   10.6258 C   0  0  0  0  0  0  0  0  0  0  0  0
   -6.1674    2.1547    8.1240 C   0  0  0  0  0  0  0  0  0  0  0  0
   -5.5460    1.8637    6.9328 C   0  0  0  0  0  0  0  0  0  0  0  0
   -4.1258    1.4020    2.9737 C   0  0  0  0  0  0  0  0  0  0  0  0
   -2.4998    1.0485    2.4954 S   0  0  0  0  0  0  0  0  0  0  0  0
   -3.0811    0.1768    1.0893 C   0  0  0  0  0  0  0  0  0  0  0  0
   -4.4631    0.0808    1.0490 C   0  0  0  0  0  0  0  0  0  0  0  0
   -5.1623   -0.7180    0.1628 N   0  0  0  0  0  0  0  0  0  0  0  0
   -6.4707   -0.4022   -0.2220 C   0  0  0  0  0  0  0  0  0  0  0  0
   -7.4147   -1.4146   -0.4046 C   0  0  0  0  0  0  0  0  0  0  0  0
   -8.7017   -1.1043   -0.7775 C   0  0  0  0  0  0  0  0  0  0  0  0
   -9.0852    0.2221   -0.9719 C   0  0  0  0  0  0  0  0  0  0  0  0
  -10.7644    0.4935   -1.4423 S   0  0  0  0  0  0  0  0  0  0  0  0
  -10.9507    2.2978   -1.3623 C   0  0  0  0  0  0  0  0  0  0  0  0
   -8.1499    1.2312   -0.7988 C   0  0  0  0  0  0  0  0  0  0  0  0
   -6.8556    0.9178   -0.4300 C   0  0  0  0  0  0  0  0  0  0  0  0
   -4.5760   -1.9201   -0.2738 C   0  0  0  0  0  0  0  0  0  0  0  0
   -4.7037   -2.3303   -1.6009 C   0  0  0  0  0  0  0  0  0  0  0  0
   -4.0015   -3.4245   -2.0567 C   0  0  0  0  0  0  0  0  0  0  0  0
   -3.1795   -4.1482   -1.1941 C   0  0  0  0  0  0  0  0  0  0  0  0
   -2.2124   -5.4438   -1.9018 S   0  0  0  0  0  0  0  0  0  0  0  0
   -1.0570   -5.8809   -0.5710 C   0  0  0  0  0  0  0  0  0  0  0  0
   -3.1518   -3.8174    0.1530 C   0  0  0  0  0  0  0  0  0  0  0  0
   -3.8429   -2.7105    0.6049 C   0  0  0  0  0  0  0  0  0  0  0  0
   -5.0443    0.8274    2.1041 C   0  0  0  0  0  0  0  0  0  0  0  0
   -6.6710    1.1419    2.5778 S   0  0  0  0  0  0  0  0  0  0  0  0
   -2.1551   -0.3333    0.1144 C   0  0  0  0  0  0  0  0  0  0  0  0
   -2.0877    0.0559   -1.2089 C   0  0  0  0  0  0  0  0  0  0  0  0
   -2.7705    1.1810   -1.6655 N   0  0  0  0  0  0  0  0  0  0  0  0
   -3.2655    1.2553   -2.9660 C   0  0  0  0  0  0  0  0  0  0  0  0
   -3.4463    2.4790   -3.6064 C   0  0  0  0  0  0  0  0  0  0  0  0
   -3.9589    2.5392   -4.8882 C   0  0  0  0  0  0  0  0  0  0  0  0
   -4.2872    1.3745   -5.5663 C   0  0  0  0  0  0  0  0  0  0  0  0
   -4.9586    1.3274   -7.1999 S   0  0  0  0  0  0  0  0  0  0  0  0
   -4.8756    3.0544   -7.7548 C   0  0  0  0  0  0  0  0  0  0  0  0
   -4.0915    0.1472   -4.9379 C   0  0  0  0  0  0  0  0  0  0  0  0
   -3.5916    0.0872   -3.6575 C   0  0  0  0  0  0  0  0  0  0  0  0
   -2.5903    2.3396   -0.8769 C   0  0  0  0  0  0  0  0  0  0  0  0
   -3.6490    3.1849   -0.5683 C   0  0  0  0  0  0  0  0  0  0  0  0
   -3.4578    4.3058    0.2191 C   0  0  0  0  0  0  0  0  0  0  0  0
   -2.1900    4.6138    0.6932 C   0  0  0  0  0  0  0  0  0  0  0  0
   -1.7992    6.0487    1.6444 S   0  0  0  0  0  0  0  0  0  0  0  0
   -3.4080    6.7791    2.0481 C   0  0  0  0  0  0  0  0  0  0  0  0
   -1.1235    3.7728    0.3807 C   0  0  0  0  0  0  0  0  0  0  0  0
   -1.3210    2.6485   -0.3857 C   0  0  0  0  0  0  0  0  0  0  0  0
   -1.1034   -0.6833   -1.9118 C   0  0  0  0  0  0  0  0  0  0  0  0
   -0.5471   -0.7207   -3.5449 S   0  0  0  0  0  0  0  0  0  0  0  0
    0.7331   -1.8314   -3.1012 C   0  0  0  0  0  0  0  0  0  0  0  0
    0.6833   -2.2091   -1.7667 C   0  0  0  0  0  0  0  0  0  0  0  0
    1.5034   -3.1268   -1.1287 N   0  0  0  0  0  0  0  0  0  0  0  0
    2.0888   -4.1943   -1.8215 C   0  0  0  0  0  0  0  0  0  0  0  0
    3.3991   -4.5827   -1.5486 C   0  0  0  0  0  0  0  0  0  0  0  0
    4.0071   -5.5872   -2.2743 C   0  0  0  0  0  0  0  0  0  0  0  0
    3.3092   -6.2342   -3.2841 C   0  0  0  0  0  0  0  0  0  0  0  0
    4.0093   -7.5129   -4.2847 S   0  0  0  0  0  0  0  0  0  0  0  0
    5.7961   -7.3142   -4.0214 C   0  0  0  0  0  0  0  0  0  0  0  0
    1.9800   -5.8931   -3.5243 C   0  0  0  0  0  0  0  0  0  0  0  0
    1.3791   -4.8818   -2.8081 C   0  0  0  0  0  0  0  0  0  0  0  0
    1.8903   -2.8521    0.1911 C   0  0  0  0  0  0  0  0  0  0  0  0
    2.0494   -1.5370    0.6215 C   0  0  0  0  0  0  0  0  0  0  0  0
    2.3780   -1.2551    1.9307 C   0  0  0  0  0  0  0  0  0  0  0  0
    2.5829   -2.2904    2.8307 C   0  0  0  0  0  0  0  0  0  0  0  0
    3.0412   -2.0166    4.5152 S   0  0  0  0  0  0  0  0  0  0  0  0
    2.3609   -0.3644    4.8411 C   0  0  0  0  0  0  0  0  0  0  0  0
    2.4568   -3.6086    2.4019 C   0  0  0  0  0  0  0  0  0  0  0  0
    2.1012   -3.8887    1.1006 C   0  0  0  0  0  0  0  0  0  0  0  0
   -0.3819   -1.5485   -1.1045 C   0  0  0  0  0  0  0  0  0  0  0  0
   -0.9260   -1.5103    0.5361 S   0  0  0  0  0  0  0  0  0  0  0  0
    1.7327   -2.2512   -4.0498 C   0  0  0  0  0  0  0  0  0  0  0  0
    3.0928   -2.2935   -3.6296 C   0  0  0  0  0  0  0  0  0  0  0  0
    3.4443   -1.6541   -2.5053 N   0  0  0  0  0  0  0  0  0  0  0  0
    4.6888   -1.7118   -2.0878 C   0  0  0  0  0  0  0  0  0  0  0  0
    4.9265   -0.9840   -0.8348 C   0  0  0  0  0  0  0  0  0  0  0  0
    5.5533   -1.5469    0.2640 C   0  0  0  0  0  0  0  0  0  0  0  0
    5.6359   -0.8393    1.4530 C   0  0  0  0  0  0  0  0  0  0  0  0
    5.1124    0.4400    1.5621 C   0  0  0  0  0  0  0  0  0  0  0  0
    5.1233    1.1990    2.6887 O   0  0  0  0  0  0  0  0  0  0  0  0
    5.8272    0.7282    3.8254 C   0  0  0  0  0  0  0  0  0  0  0  0
    5.7501    1.8057    4.8960 C   0  0  0  0  0  0  0  0  0  0  0  0
    4.4895    1.0283    0.4359 C   0  0  0  0  0  0  0  0  0  0  0  0
    4.3897    0.3013   -0.7327 C   0  0  0  0  0  0  0  0  0  0  0  0
    4.0105    2.2924    0.6058 O   0  0  0  0  0  0  0  0  0  0  0  0
    3.5089    2.9699   -0.5309 C   0  0  0  0  0  0  0  0  0  0  0  0
    3.2148    4.4098   -0.1419 C   0  0  0  0  0  0  0  0  0  0  0  0
    5.6690   -2.4410   -2.8328 C   0  0  0  0  0  0  0  0  0  0  0  0
    7.0854   -2.5116   -2.4804 C   0  0  0  0  0  0  0  0  0  0  0  0
    7.8177   -3.6404   -2.8343 C   0  0  0  0  0  0  0  0  0  0  0  0
    9.1658   -3.7184   -2.5561 C   0  0  0  0  0  0  0  0  0  0  0  0
    9.8424   -2.6766   -1.9283 C   0  0  0  0  0  0  0  0  0  0  0  0
   11.1854   -2.6732   -1.6827 O   0  0  0  0  0  0  0  0  0  0  0  0
   11.9703   -3.8084   -1.9922 C   0  0  0  0  0  0  0  0  0  0  0  0
   11.8245   -4.9245   -0.9618 C   0  0  0  0  0  0  0  0  0  0  0  0
    9.1077   -1.5290   -1.5583 C   0  0  0  0  0  0  0  0  0  0  0  0
    9.6036   -0.4092   -0.9637 O   0  0  0  0  0  0  0  0  0  0  0  0
   10.7907   -0.4535   -0.1890 C   0  0  0  0  0  0  0  0  0  0  0  0
   10.8192    0.8116    0.6563 C   0  0  0  0  0  0  0  0  0  0  0  0
    7.7531   -1.4650   -1.8521 C   0  0  0  0  0  0  0  0  0  0  0  0
    5.3275   -3.0611   -3.9450 N   0  0  0  0  0  0  0  0  0  0  0  0
    4.0649   -2.9839   -4.3884 C   0  0  0  0  0  0  0  0  0  0  0  0
    3.7053   -3.5899   -5.6274 C   0  0  0  0  0  0  0  0  0  0  0  0
    2.4449   -3.2932   -6.1259 C   0  0  0  0  0  0  0  0  0  0  0  0
    1.4717   -2.6557   -5.3472 C   0  0  0  0  0  0  0  0  0  0  0  0
    0.2404   -2.5092   -5.8606 F   0  0  0  0  0  0  0  0  0  0  0  0
    2.1358   -3.5865   -7.3948 F   0  0  0  0  0  0  0  0  0  0  0  0
    4.6727   -4.4482   -6.2579 C   0  0  0  0  0  0  0  0  0  0  0  0
    4.4035   -5.6065   -6.9037 C   0  0  0  0  0  0  0  0  0  0  0  0
    3.0654   -6.2553   -7.0413 C   0  0  0  0  0  0  0  0  0  0  0  0
    2.0319   -5.9484   -6.4931 O   0  0  0  0  0  0  0  0  0  0  0  0
    3.2719   -7.3987   -7.9472 C   0  0  0  0  0  0  0  0  0  0  0  0
    2.2908   -8.2533   -8.4430 C   0  0  0  0  0  0  0  0  0  0  0  0
    2.7662   -9.2075   -9.3091 C   0  0  0  0  0  0  0  0  0  0  0  0
    4.1217   -9.3105   -9.6542 C   0  0  0  0  0  0  0  0  0  0  0  0
    5.1022   -8.4866   -9.1582 C   0  0  0  0  0  0  0  0  0  0  0  0
    4.6388   -7.5068   -8.2734 C   0  0  0  0  0  0  0  0  0  0  0  0
    5.3756   -6.4815   -7.5461 C   0  0  0  0  0  0  0  0  0  0  0  0
    6.7379   -6.4172   -7.4266 C   0  0  0  0  0  0  0  0  0  0  0  0
    7.4576   -5.5225   -6.6061 C   0  0  0  0  0  0  0  0  0  0  0  0
    8.1328   -4.8829   -5.9315 N   0  0  0  0  0  0  0  0  0  0  0  0
    7.6355   -7.3124   -8.0473 C   0  0  0  0  0  0  0  0  0  0  0  0
    8.4297   -8.0023   -8.5073 N   0  0  0  0  0  0  0  0  0  0  0  0
    3.8779  -10.4684  -10.5890 C   0  0  0  0  0  0  0  0  0  0  0  0
    3.8645  -10.1743  -12.1098 C   0  0  0  0  0  0  0  0  0  0  0  0
    3.4540   -8.7309  -12.2652 C   0  0  0  0  0  0  0  0  0  0  0  0
    2.1725   -8.6364  -11.9368 C   0  0  0  0  0  0  0  0  0  0  0  0
    1.6932  -10.0147  -11.5534 C   0  0  0  0  0  0  0  0  0  0  0  0
    2.5510  -10.8721  -12.4975 C   0  0  0  0  0  0  0  0  0  0  0  0
    2.3694  -10.3559  -10.2022 C   0  0  0  0  0  0  0  0  0  0  0  0
   -8.0897    2.4893    4.5434 H   0  0  0  0  0  0  0  0  0  0  0  0
   -4.3467    7.4258    5.3264 H   0  0  0  0  0  0  0  0  0  0  0  0
   -8.5846    6.8382    8.0346 H   0  0  0  0  0  0  0  0  0  0  0  0
   -6.7266    9.4700    9.2510 H   0  0  0  0  0  0  0  0  0  0  0  0
   -8.5792   10.8027    8.2584 H   0  0  0  0  0  0  0  0  0  0  0  0
   -8.9770    9.8551    5.8543 H   0  0  0  0  0  0  0  0  0  0  0  0
   -6.7509   10.1958    4.4469 H   0  0  0  0  0  0  0  0  0  0  0  0
   -4.9802   11.3565    5.9840 H   0  0  0  0  0  0  0  0  0  0  0  0
   -6.1504   11.9619    8.3311 H   0  0  0  0  0  0  0  0  0  0  0  0
   -7.1090   12.5869    6.9659 H   0  0  0  0  0  0  0  0  0  0  0  0
   -4.5626    9.8029    7.8852 H   0  0  0  0  0  0  0  0  0  0  0  0
   -2.6356    3.9433    3.3896 H   0  0  0  0  0  0  0  0  0  0  0  0
   -0.2003    4.1916    3.2854 H   0  0  0  0  0  0  0  0  0  0  0  0
    1.5873    2.6972    2.6033 H   0  0  0  0  0  0  0  0  0  0  0  0
    2.1652    4.3516    2.9867 H   0  0  0  0  0  0  0  0  0  0  0  0
    3.2938    2.9760    3.0161 H   0  0  0  0  0  0  0  0  0  0  0  0
    0.1888    1.7169    6.7547 H   0  0  0  0  0  0  0  0  0  0  0  0
   -2.2694    1.4978    6.8635 H   0  0  0  0  0  0  0  0  0  0  0  0
   -3.4939    4.5442    6.7384 H   0  0  0  0  0  0  0  0  0  0  0  0
   -4.6073    5.0781    8.8443 H   0  0  0  0  0  0  0  0  0  0  0  0
   -6.6235    5.9941    9.7333 H   0  0  0  0  0  0  0  0  0  0  0  0
   -7.1624    5.6804   11.3986 H   0  0  0  0  0  0  0  0  0  0  0  0
   -5.4393    5.5129   10.9946 H   0  0  0  0  0  0  0  0  0  0  0  0
   -6.9033    1.4800    8.5331 H   0  0  0  0  0  0  0  0  0  0  0  0
   -5.7956    0.9562    6.4048 H   0  0  0  0  0  0  0  0  0  0  0  0
   -7.1325   -2.4439   -0.2422 H   0  0  0  0  0  0  0  0  0  0  0  0
   -9.4330   -1.8861   -0.9126 H   0  0  0  0  0  0  0  0  0  0  0  0
  -12.0028    2.4914   -1.5471 H   0  0  0  0  0  0  0  0  0  0  0  0
  -10.3497    2.7722   -2.1329 H   0  0  0  0  0  0  0  0  0  0  0  0
  -10.6778    2.6513   -0.3724 H   0  0  0  0  0  0  0  0  0  0  0  0
   -8.4092    2.2662   -0.9525 H   0  0  0  0  0  0  0  0  0  0  0  0
   -6.1327    1.7079   -0.3030 H   0  0  0  0  0  0  0  0  0  0  0  0
   -5.3389   -1.7711   -2.2711 H   0  0  0  0  0  0  0  0  0  0  0  0
   -4.0617   -3.7175   -3.0938 H   0  0  0  0  0  0  0  0  0  0  0  0
   -1.5785   -6.4113    0.2208 H   0  0  0  0  0  0  0  0  0  0  0  0
   -0.3179   -6.5327   -1.0274 H   0  0  0  0  0  0  0  0  0  0  0  0
   -0.5763   -4.9830   -0.1933 H   0  0  0  0  0  0  0  0  0  0  0  0
   -2.5824   -4.3975    0.8607 H   0  0  0  0  0  0  0  0  0  0  0  0
   -3.7908   -2.4441    1.6504 H   0  0  0  0  0  0  0  0  0  0  0  0
   -3.1750    3.3966   -3.1063 H   0  0  0  0  0  0  0  0  0  0  0  0
   -4.0874    3.5068   -5.3462 H   0  0  0  0  0  0  0  0  0  0  0  0
   -3.8506    3.4096   -7.7025 H   0  0  0  0  0  0  0  0  0  0  0  0
   -5.2110    3.0455   -8.7871 H   0  0  0  0  0  0  0  0  0  0  0  0
   -5.5400    3.6734   -7.1585 H   0  0  0  0  0  0  0  0  0  0  0  0
   -4.3370   -0.7603   -5.4672 H   0  0  0  0  0  0  0  0  0  0  0  0
   -3.4500   -0.8701   -3.1837 H   0  0  0  0  0  0  0  0  0  0  0  0
   -4.6300    2.9700   -0.9640 H   0  0  0  0  0  0  0  0  0  0  0  0
   -4.3050    4.9297    0.4547 H   0  0  0  0  0  0  0  0  0  0  0  0
   -3.9219    7.0765    1.1385 H   0  0  0  0  0  0  0  0  0  0  0  0
   -3.9966    6.0782    2.6351 H   0  0  0  0  0  0  0  0  0  0  0  0
   -3.1810    7.6599    2.6415 H   0  0  0  0  0  0  0  0  0  0  0  0
   -0.1346    4.0229    0.7329 H   0  0  0  0  0  0  0  0  0  0  0  0
   -0.4866    2.0050   -0.6227 H   0  0  0  0  0  0  0  0  0  0  0  0
    3.9571   -4.0729   -0.7770 H   0  0  0  0  0  0  0  0  0  0  0  0
    5.0295   -5.8426   -2.0473 H   0  0  0  0  0  0  0  0  0  0  0  0
    6.2776   -7.9660   -4.7443 H   0  0  0  0  0  0  0  0  0  0  0  0
    6.0749   -6.2800   -4.2042 H   0  0  0  0  0  0  0  0  0  0  0  0
    6.0685   -7.6257   -3.0172 H   0  0  0  0  0  0  0  0  0  0  0  0
    1.4294   -6.4120   -4.2920 H   0  0  0  0  0  0  0  0  0  0  0  0
    0.3530   -4.6198   -3.0161 H   0  0  0  0  0  0  0  0  0  0  0  0
    1.9335   -0.7310   -0.0850 H   0  0  0  0  0  0  0  0  0  0  0  0
    2.4844   -0.2266    2.2330 H   0  0  0  0  0  0  0  0  0  0  0  0
    2.4399   -0.2130    5.9128 H   0  0  0  0  0  0  0  0  0  0  0  0
    2.9383    0.3940    4.3240 H   0  0  0  0  0  0  0  0  0  0  0  0
    1.3191   -0.3377    4.5355 H   0  0  0  0  0  0  0  0  0  0  0  0
    2.6240   -4.4099    3.1053 H   0  0  0  0  0  0  0  0  0  0  0  0
    1.9817   -4.9142    0.7827 H   0  0  0  0  0  0  0  0  0  0  0  0
    5.9630   -2.5436    0.2081 H   0  0  0  0  0  0  0  0  0  0  0  0
    6.1062   -1.3068    2.3027 H   0  0  0  0  0  0  0  0  0  0  0  0
    6.8747    0.5328    3.5588 H   0  0  0  0  0  0  0  0  0  0  0  0
    5.3798   -0.2060    4.1906 H   0  0  0  0  0  0  0  0  0  0  0  0
    6.1884    2.7287    4.5259 H   0  0  0  0  0  0  0  0  0  0  0  0
    6.2929    1.4827    5.7794 H   0  0  0  0  0  0  0  0  0  0  0  0
    4.7160    2.0002    5.1692 H   0  0  0  0  0  0  0  0  0  0  0  0
    3.8955    0.7065   -1.6006 H   0  0  0  0  0  0  0  0  0  0  0  0
    4.2543    2.9472   -1.3373 H   0  0  0  0  0  0  0  0  0  0  0  0
    2.5921    2.4801   -0.8894 H   0  0  0  0  0  0  0  0  0  0  0  0
    4.1088    4.8723    0.2667 H   0  0  0  0  0  0  0  0  0  0  0  0
    2.4316    4.4470    0.6087 H   0  0  0  0  0  0  0  0  0  0  0  0
    2.8924    4.9661   -1.0175 H   0  0  0  0  0  0  0  0  0  0  0  0
    7.3274   -4.4530   -3.3437 H   0  0  0  0  0  0  0  0  0  0  0  0
    9.6970   -4.6028   -2.8666 H   0  0  0  0  0  0  0  0  0  0  0  0
   11.7474   -4.1714   -3.0018 H   0  0  0  0  0  0  0  0  0  0  0  0
   12.9966   -3.4301   -1.9825 H   0  0  0  0  0  0  0  0  0  0  0  0
   12.0930   -4.5544    0.0248 H   0  0  0  0  0  0  0  0  0  0  0  0
   12.4848   -5.7475   -1.2205 H   0  0  0  0  0  0  0  0  0  0  0  0
   10.8016   -5.2909   -0.9250 H   0  0  0  0  0  0  0  0  0  0  0  0
   11.6711   -0.4959   -0.8396 H   0  0  0  0  0  0  0  0  0  0  0  0
   10.7885   -1.3404    0.4552 H   0  0  0  0  0  0  0  0  0  0  0  0
   10.8088    1.6861    0.0118 H   0  0  0  0  0  0  0  0  0  0  0  0
   11.7173    0.8284    1.2672 H   0  0  0  0  0  0  0  0  0  0  0  0
    9.9454    0.8489    1.3016 H   0  0  0  0  0  0  0  0  0  0  0  0
    7.2447   -0.5493   -1.5987 H   0  0  0  0  0  0  0  0  0  0  0  0
    5.6990   -4.1438   -6.0944 H   0  0  0  0  0  0  0  0  0  0  0  0
    1.2582   -8.1350   -8.1548 H   0  0  0  0  0  0  0  0  0  0  0  0
    6.1398   -8.5772   -9.4338 H   0  0  0  0  0  0  0  0  0  0  0  0
    4.3991  -11.3932  -10.3500 H   0  0  0  0  0  0  0  0  0  0  0  0
    4.7665  -10.4763  -12.6355 H   0  0  0  0  0  0  0  0  0  0  0  0
    4.1310   -7.9413  -12.5342 H   0  0  0  0  0  0  0  0  0  0  0  0
    1.5654   -7.7523  -11.8752 H   0  0  0  0  0  0  0  0  0  0  0  0
    0.6180  -10.1717  -11.5725 H   0  0  0  0  0  0  0  0  0  0  0  0
    2.2928  -10.7308  -13.5459 H   0  0  0  0  0  0  0  0  0  0  0  0
    2.5353  -11.9337  -12.2545 H   0  0  0  0  0  0  0  0  0  0  0  0
    1.9049  -11.2069   -9.7081 H   0  0  0  0  0  0  0  0  0  0  0  0
  1  2  2  0  0  0  0
  2  3  1  0  0  0  0
  3  4  2  0  0  0  0
  3  5  1  0  0  0  0
  5  6  2  0  0  0  0
  6  7  1  0  0  0  0
  7  8  2  0  0  0  0
  8  9  1  0  0  0  0
  9 10  2  0  0  0  0
 10 11  1  0  0  0  0
 11 12  2  0  0  0  0
 12 13  1  0  0  0  0
 13 14  3  0  0  0  0
 12 15  1  0  0  0  0
 15 16  3  0  0  0  0
  8 17  1  0  0  0  0
 17 18  1  0  0  0  0
 18 19  1  0  0  0  0
 19 20  2  0  0  0  0
 20 21  1  0  0  0  0
 21 22  1  0  0  0  0
 21 23  1  0  0  0  0
  1 24  1  0  0  0  0
 24 25  2  0  0  0  0
 25 26  1  0  0  0  0
 26 27  1  0  0  0  0
 27 28  2  0  0  0  0
 28 29  1  0  0  0  0
 29 30  2  0  0  0  0
 30 31  1  0  0  0  0
 31 32  1  0  0  0  0
 30 33  1  0  0  0  0
 33 34  2  0  0  0  0
 26 35  1  0  0  0  0
 35 36  2  0  0  0  0
 36 37  1  0  0  0  0
 37 38  2  0  0  0  0
 38 39  1  0  0  0  0
 39 40  1  0  0  0  0
 38 41  1  0  0  0  0
 41 42  2  0  0  0  0
 25 43  1  0  0  0  0
 43 44  1  0  0  0  0
 44 45  1  0  0  0  0
 45 46  2  0  0  0  0
 46 47  1  0  0  0  0
 47 48  1  0  0  0  0
 48 49  2  0  0  0  0
 49 50  1  0  0  0  0
 50 51  2  0  0  0  0
 51 52  1  0  0  0  0
 52 53  1  0  0  0  0
 51 54  1  0  0  0  0
 54 55  2  0  0  0  0
 47 56  1  0  0  0  0
 56 57  2  0  0  0  0
 57 58  1  0  0  0  0
 58 59  2  0  0  0  0
 59 60  1  0  0  0  0
 60 61  1  0  0  0  0
 59 62  1  0  0  0  0
 62 63  2  0  0  0  0
 46 64  1  0  0  0  0
 64 65  1  0  0  0  0
 45 66  1  0  0  0  0
 66 67  2  0  0  0  0
 67 68  1  0  0  0  0
 68 69  1  0  0  0  0
 69 70  2  0  0  0  0
 70 71  1  0  0  0  0
 71 72  2  0  0  0  0
 72 73  1  0  0  0  0
 73 74  1  0  0  0  0
 72 75  1  0  0  0  0
 75 76  2  0  0  0  0
 68 77  1  0  0  0  0
 77 78  2  0  0  0  0
 78 79  1  0  0  0  0
 79 80  2  0  0  0  0
 80 81  1  0  0  0  0
 81 82  1  0  0  0  0
 80 83  1  0  0  0  0
 83 84  2  0  0  0  0
 67 85  1  0  0  0  0
 85 86  1  0  0  0  0
 86 87  1  0  0  0  0
 87 88  2  0  0  0  0
 88 89  1  0  0  0  0
 89 90  1  0  0  0  0
 90 91  2  0  0  0  0
 91 92  1  0  0  0  0
 92 93  2  0  0  0  0
 93 94  1  0  0  0  0
 94 95  1  0  0  0  0
 93 96  1  0  0  0  0
 96 97  2  0  0  0  0
 89 98  1  0  0  0  0
 98 99  2  0  0  0  0
 99100  1  0  0  0  0
100101  2  0  0  0  0
101102  1  0  0  0  0
102103  1  0  0  0  0
101104  1  0  0  0  0
104105  2  0  0  0  0
 88106  1  0  0  0  0
106107  1  0  0  0  0
 87108  1  0  0  0  0
108109  1  0  0  0  0
109110  2  0  0  0  0
110111  1  0  0  0  0
111112  1  0  0  0  0
112113  2  0  0  0  0
113114  1  0  0  0  0
114115  2  0  0  0  0
115116  1  0  0  0  0
116117  1  0  0  0  0
117118  1  0  0  0  0
115119  1  0  0  0  0
119120  2  0  0  0  0
119121  1  0  0  0  0
121122  1  0  0  0  0
122123  1  0  0  0  0
111124  2  0  0  0  0
124125  1  0  0  0  0
125126  2  0  0  0  0
126127  1  0  0  0  0
127128  2  0  0  0  0
128129  1  0  0  0  0
129130  1  0  0  0  0
130131  1  0  0  0  0
128132  1  0  0  0  0
132133  1  0  0  0  0
133134  1  0  0  0  0
134135  1  0  0  0  0
132136  2  0  0  0  0
124137  1  0  0  0  0
137138  2  0  0  0  0
138139  1  0  0  0  0
139140  2  0  0  0  0
140141  1  0  0  0  0
141142  1  0  0  0  0
140143  1  0  0  0  0
139144  1  0  0  0  0
144145  2  0  0  0  0
145146  1  0  0  0  0
146147  2  0  0  0  0
146148  1  0  0  0  0
148149  2  0  0  0  0
149150  1  0  0  0  0
150151  2  0  0  0  0
151152  1  0  0  0  0
152153  2  0  0  0  0
153154  1  0  0  0  0
154155  2  0  0  0  0
155156  1  0  0  0  0
156157  3  0  0  0  0
155158  1  0  0  0  0
158159  3  0  0  0  0
151160  1  0  0  0  0
160161  1  0  0  0  0
161162  1  0  0  0  0
162163  2  0  0  0  0
163164  1  0  0  0  0
164165  1  0  0  0  0
164166  1  0  0  0  0
 11  2  1  0  0  0  0
 23 17  1  0  0  0  0
 65 24  1  0  0  0  0
107 66  1  0  0  0  0
141108  2  0  0  0  0
154145  1  0  0  0  0
166160  1  0  0  0  0
 10  5  1  0  0  0  0
 22 18  1  0  0  0  0
 34 27  1  0  0  0  0
 42 35  1  0  0  0  0
 64 43  2  0  0  0  0
 76 69  1  0  0  0  0
 84 77  1  0  0  0  0
106 85  2  0  0  0  0
138109  1  0  0  0  0
153148  1  0  0  0  0
165161  1  0  0  0  0
 23  7  1  0  0  0  0
 55 48  1  0  0  0  0
 63 56  1  0  0  0  0
 97 90  1  0  0  0  0
105 98  1  0  0  0  0
120112  1  0  0  0  0
136125  1  0  0  0  0
166150  1  0  0  0  0
  1167  1  0  0  0  0
  6168  1  0  0  0  0
  9169  1  0  0  0  0
 17170  1  0  0  0  0
 18171  1  0  0  0  0
 19172  1  0  0  0  0
 20173  1  0  0  0  0
 21174  1  0  0  0  0
 22175  1  0  0  0  0
 22176  1  0  0  0  0
 23177  1  0  0  0  0
 28178  1  0  0  0  0
 29179  1  0  0  0  0
 32180  1  0  0  0  0
 32181  1  0  0  0  0
 32182  1  0  0  0  0
 33183  1  0  0  0  0
 34184  1  0  0  0  0
 36185  1  0  0  0  0
 37186  1  0  0  0  0
 40187  1  0  0  0  0
 40188  1  0  0  0  0
 40189  1  0  0  0  0
 41190  1  0  0  0  0
 42191  1  0  0  0  0
 49192  1  0  0  0  0
 50193  1  0  0  0  0
 53194  1  0  0  0  0
 53195  1  0  0  0  0
 53196  1  0  0  0  0
 54197  1  0  0  0  0
 55198  1  0  0  0  0
 57199  1  0  0  0  0
 58200  1  0  0  0  0
 61201  1  0  0  0  0
 61202  1  0  0  0  0
 61203  1  0  0  0  0
 62204  1  0  0  0  0
 63205  1  0  0  0  0
 70206  1  0  0  0  0
 71207  1  0  0  0  0
 74208  1  0  0  0  0
 74209  1  0  0  0  0
 74210  1  0  0  0  0
 75211  1  0  0  0  0
 76212  1  0  0  0  0
 78213  1  0  0  0  0
 79214  1  0  0  0  0
 82215  1  0  0  0  0
 82216  1  0  0  0  0
 82217  1  0  0  0  0
 83218  1  0  0  0  0
 84219  1  0  0  0  0
 91220  1  0  0  0  0
 92221  1  0  0  0  0
 95222  1  0  0  0  0
 95223  1  0  0  0  0
 95224  1  0  0  0  0
 96225  1  0  0  0  0
 97226  1  0  0  0  0
 99227  1  0  0  0  0
100228  1  0  0  0  0
103229  1  0  0  0  0
103230  1  0  0  0  0
103231  1  0  0  0  0
104232  1  0  0  0  0
105233  1  0  0  0  0
113234  1  0  0  0  0
114235  1  0  0  0  0
117236  1  0  0  0  0
117237  1  0  0  0  0
118238  1  0  0  0  0
118239  1  0  0  0  0
118240  1  0  0  0  0
120241  1  0  0  0  0
122242  1  0  0  0  0
122243  1  0  0  0  0
123244  1  0  0  0  0
123245  1  0  0  0  0
123246  1  0  0  0  0
126247  1  0  0  0  0
127248  1  0  0  0  0
130249  1  0  0  0  0
130250  1  0  0  0  0
131251  1  0  0  0  0
131252  1  0  0  0  0
131253  1  0  0  0  0
134254  1  0  0  0  0
134255  1  0  0  0  0
135256  1  0  0  0  0
135257  1  0  0  0  0
135258  1  0  0  0  0
136259  1  0  0  0  0
144260  1  0  0  0  0
149261  1  0  0  0  0
152262  1  0  0  0  0
160263  1  0  0  0  0
161264  1  0  0  0  0
162265  1  0  0  0  0
163266  1  0  0  0  0
164267  1  0  0  0  0
165268  1  0  0  0  0
165269  1  0  0  0  0
166270  1  0  0  0  0
M  END
