181

C         -7.14340       -0.42550        2.43460
C         -7.39720       -0.34170        3.76590
C         -6.39970       -0.53980        4.84710
O         -5.19470       -0.64370        4.73800
C         -7.17460       -0.66650        6.09210
C         -6.66520       -0.92170        7.36420
C         -7.62450       -1.00900        8.34320
C         -8.99340       -0.86410        8.07650
C         -9.50930       -0.61830        6.82690
C         -8.54800       -0.51560        5.81510
C         -8.71300       -0.27320        4.38620
C         -9.88810        0.03220        3.75660
C        -10.03470        0.30740        2.37880
N        -10.25750        0.55170        1.27950
C        -11.13560        0.14260        4.40770
N        -12.18020        0.25450        4.87060
C         -9.37800       -1.07530        9.51960
C         -9.75290        0.18730       10.32440
C         -9.60880       -0.24660       11.76520
C         -8.31330       -0.38260       12.01820
C         -7.55990       -0.04270       10.75250
C         -8.48450        1.03780       10.17710
C         -7.85230       -1.23500        9.81690
C         -5.85820       -0.44040        1.79700
C         -5.69020       -1.25600        0.66050
N         -6.66110       -2.05820        0.14900
C         -6.27040       -2.72820       -0.86590
C         -7.11940       -3.66760       -1.63540
C         -6.52720       -5.07640       -1.65720
S         -4.58370       -2.46560       -1.32830
C         -4.45910       -1.32560       -0.02660
C         -3.35790       -0.55490        0.32810
C         -3.52670        0.27990        1.44000
C         -4.74990        0.33190        2.14990
S         -4.66900        1.60500        3.31970
C         -3.02750        1.95650        2.76800
C         -2.27180        3.09300        3.34900
C         -2.94730        4.42460        3.01670
N         -2.59990        1.19640        1.83700
C         -2.13670       -0.50610       -0.44430
C         -2.01020       -0.21290       -1.78950
N         -3.05270        0.09820       -2.64670
C         -2.96590       -0.28840       -3.98990
C         -2.37510       -1.50300       -4.34060
C         -2.25390       -1.85830       -5.66490
C         -2.73040       -1.01830       -6.66890
S         -2.50760       -1.57510       -8.32970
C         -3.04450       -0.16520       -9.33940
C         -3.34800        0.17630       -6.32260
C         -3.45860        0.53870       -4.99480
C         -4.20060        0.74100       -2.16130
C         -4.10090        1.73890       -1.19530
C         -5.23410        2.27570       -0.61580
C         -6.49120        1.82910       -1.00010
S         -8.00510        2.38680       -0.28940
C         -7.48500        3.22400        1.23400
C         -6.59610        0.88770       -2.02310
C         -5.46750        0.35250       -2.60030
C         -0.64230       -0.17940       -2.16260
S          0.18960        0.10640       -3.64810
C          1.74280       -0.05680       -2.83280
C          1.60860       -0.38550       -1.48850
N          2.62740       -0.73450       -0.61950
C          2.46080       -0.48240        0.75080
C          2.85740       -1.43220        1.69220
C          2.63930       -1.21140        3.03340
C          2.01460       -0.04320        3.46150
S          1.72790        0.13810        5.19620
C          0.24570        1.19070        5.22980
C          1.65880        0.92490        2.53310
C          1.88330        0.70710        1.18810
C          3.79820       -1.35830       -1.06630
C          5.02220       -1.04120       -0.47960
C          6.20210       -1.53500       -0.99750
C          6.17970       -2.34650       -2.12290
S          7.63950       -2.87430       -2.97130
C          8.93870       -2.73920       -1.71030
C          4.95560       -2.73360       -2.66380
C          3.77680       -2.26080       -2.13140
C          0.23690       -0.42050       -1.11950
S         -0.60090       -0.67820        0.37060
C          2.92780        0.07500       -3.61360
C          3.09760       -0.39930       -4.90210
C          4.41530       -0.33140       -5.33970
C          4.86550       -0.92480       -6.60060
C          5.88870       -1.87100       -6.62060
C          6.30360       -2.42160       -7.81830
C          5.70100       -2.04160       -9.00550
C          4.66680       -1.12050       -8.99030
C          4.24520       -0.56890       -7.79540
C          5.27330        0.26380       -4.39720
S          4.38350        0.76750       -2.98200
C          6.65700        0.35680       -4.57710
C          7.63820        0.67960       -3.67390
C          7.42830        1.14740       -2.30310
O          6.38660        1.52890       -1.79530
C          8.74790        1.10560       -1.64660
C          9.02970        1.37370       -0.30850
C         10.35300        1.21460        0.02720
C         11.32500        0.81940       -0.90110
C         11.06100        0.55600       -2.22470
C          9.71960        0.71160       -2.58870
C          9.05930        0.49720       -3.87780
C          9.69620        0.17290       -5.04860
C         11.08860       -0.00920       -5.17200
N         12.21260       -0.17150       -5.34450
C          9.08030       -0.00070       -6.30580
N          8.67870       -0.14980       -7.37210
C         12.43380        0.86110        0.12110
C         13.37490        2.08260        0.06740
C         14.02330        2.09980        1.43280
C         13.10310        2.47580        2.31180
C         11.81710        2.71920        1.55510
C         12.38570        3.24390        0.23040
C         11.35000        1.30340        1.15620
H         -7.96900       -0.57340        1.74900
H         -5.60430       -1.03720        7.52210
H        -10.56510       -0.52340        6.63640
H        -10.03860       -1.91730        9.71650
H        -10.69790        0.64270       10.04170
H        -10.43850       -0.45710       12.41410
H         -7.84470       -0.72940       12.92050
H         -6.50700        0.20360       10.86110
H         -8.51280        1.92980       10.80080
H         -8.25480        1.31840        9.15080
H         -7.49470       -2.18400       10.21220
H         -8.11010       -3.67440       -1.17890
H         -7.21160       -3.29940       -2.66090
H         -6.42890       -5.46170       -0.64510
H         -5.54440       -5.06830       -2.12350
H         -7.17440       -5.74270       -2.22100
H         -1.26220        3.07150        2.93640
H         -2.21730        2.97570        4.43400
H         -3.00130        4.56240        1.93930
H         -2.37970        5.24750        3.44310
H         -3.95600        4.44940        3.42330
H         -2.01980       -2.16710       -3.56690
H         -1.79210       -2.79440       -5.93890
H         -2.83170       -0.44440      -10.36660
H         -4.11120       -0.00010       -9.21720
H         -2.47320        0.71820       -9.07020
H         -3.74030        0.84020       -7.07570
H         -3.92790        1.47500       -4.73120
H         -3.12630        2.08200       -0.88050
H         -5.12330        3.03820        0.13910
H         -6.96880        4.15150        1.00330
H         -8.40380        3.43990        1.77050
H         -6.85890        2.56180        1.82540
H         -7.57710        0.56540       -2.33630
H         -5.55490       -0.39520       -3.37490
H          3.31720       -2.35120        1.36050
H          2.92970       -1.95070        3.76380
H         -0.18740        1.06640        6.21740
H         -0.44870        0.84730        4.46920
H          0.51620        2.23180        5.07680
H          1.21060        1.85350        2.84810
H          1.61350        1.46540        0.46830
H          5.05190       -0.36060        0.35680
H          7.13430       -1.24600       -0.53870
H          9.81320       -3.22100       -2.13660
H          8.62440       -3.26280       -0.81260
H          9.16330       -1.69740       -1.49880
H          4.94030       -3.40010       -3.51250
H          2.83410       -2.56740       -2.55850
H          2.30370       -0.86000       -5.46460
H          6.34330       -2.18990       -5.69270
H          7.10260       -3.14720       -7.82290
H          6.03400       -2.46570       -9.94070
H          4.18880       -0.82780       -9.91360
H          3.44710        0.15920       -7.78060
H          6.98610        0.03720       -5.55780
H          8.24740        1.66940        0.37330
H         11.82040        0.24650       -2.92260
H         12.96180       -0.07620        0.28770
H         14.04000        2.10680       -0.79140
H         15.03560        1.79350        1.62020
H         13.19310        2.54610        3.38000
H         11.06380        3.32440        2.05240
H         12.89090        4.20080        0.34990
H         11.65180        3.31760       -0.57000
H         11.15650        0.66190        2.01430
