
  xtb     02062203443D
 energy: -314.385731347903 gnorm: 0.000540253898 xtb: 6.4.1 (unknown)
184204  0     0  0            999 V2000
   -9.0459   -3.0119    0.6089 C   0  0  0  0  0  0  0  0  0  0  0  0
   -8.4181   -3.7755    1.5309 C   0  0  0  0  0  0  0  0  0  0  0  0
   -7.4885   -3.2489    2.5795 C   0  0  0  0  0  0  0  0  0  0  0  0
   -6.9989   -2.1443    2.6571 O   0  0  0  0  0  0  0  0  0  0  0  0
   -7.3445   -4.3401    3.5555 C   0  0  0  0  0  0  0  0  0  0  0  0
   -6.6005   -4.3018    4.7330 C   0  0  0  0  0  0  0  0  0  0  0  0
   -6.5555   -5.4974    5.4055 C   0  0  0  0  0  0  0  0  0  0  0  0
   -7.2269   -6.6452    4.9589 C   0  0  0  0  0  0  0  0  0  0  0  0
   -7.9922   -6.6888    3.8194 C   0  0  0  0  0  0  0  0  0  0  0  0
   -8.0313   -5.4868    3.1051 C   0  0  0  0  0  0  0  0  0  0  0  0
   -8.6734   -5.1768    1.8371 C   0  0  0  0  0  0  0  0  0  0  0  0
   -9.2892   -6.0662    0.9996 C   0  0  0  0  0  0  0  0  0  0  0  0
   -9.7703   -5.7410   -0.2873 C   0  0  0  0  0  0  0  0  0  0  0  0
  -10.1521   -5.5540   -1.3536 N   0  0  0  0  0  0  0  0  0  0  0  0
   -9.4700   -7.4372    1.2797 C   0  0  0  0  0  0  0  0  0  0  0  0
   -9.6453   -8.5597    1.4429 N   0  0  0  0  0  0  0  0  0  0  0  0
   -6.7002   -7.4891    6.0919 C   0  0  0  0  0  0  0  0  0  0  0  0
   -5.5392   -8.4624    5.7662 C   0  0  0  0  0  0  0  0  0  0  0  0
   -4.8065   -7.8740    4.5856 C   0  0  0  0  0  0  0  0  0  0  0  0
   -4.1708   -6.7875    5.0032 C   0  0  0  0  0  0  0  0  0  0  0  0
   -4.4613   -6.6226    6.4751 C   0  0  0  0  0  0  0  0  0  0  0  0
   -4.5664   -8.0962    6.8983 C   0  0  0  0  0  0  0  0  0  0  0  0
   -5.9512   -6.2115    6.5865 C   0  0  0  0  0  0  0  0  0  0  0  0
   -8.6017   -1.6830    0.2329 C   0  0  0  0  0  0  0  0  0  0  0  0
   -9.5169   -0.6424   -0.0215 C   0  0  0  0  0  0  0  0  0  0  0  0
   -9.0749    0.6134   -0.3775 C   0  0  0  0  0  0  0  0  0  0  0  0
  -10.0389    1.7027   -0.6164 C   0  0  0  0  0  0  0  0  0  0  0  0
  -11.2400    1.5914   -0.5185 O   0  0  0  0  0  0  0  0  0  0  0  0
   -9.4723    2.9120   -0.9735 N   0  0  0  0  0  0  0  0  0  0  0  0
   -8.1392    3.2426   -1.1355 C   0  0  0  0  0  0  0  0  0  0  0  0
   -7.8190    4.3660   -1.4503 O   0  0  0  0  0  0  0  0  0  0  0  0
   -7.1933    2.1377   -0.8948 C   0  0  0  0  0  0  0  0  0  0  0  0
   -5.8380    2.3448   -1.0291 C   0  0  0  0  0  0  0  0  0  0  0  0
   -4.9125    1.3046   -0.7936 C   0  0  0  0  0  0  0  0  0  0  0  0
   -5.4000    0.0585   -0.4630 C   0  0  0  0  0  0  0  0  0  0  0  0
   -6.7736   -0.1811   -0.3053 C   0  0  0  0  0  0  0  0  0  0  0  0
   -7.2508   -1.4465    0.0677 C   0  0  0  0  0  0  0  0  0  0  0  0
   -7.6942    0.8715   -0.5209 C   0  0  0  0  0  0  0  0  0  0  0  0
   -3.4878    1.5631   -0.9297 C   0  0  0  0  0  0  0  0  0  0  0  0
   -2.4128    1.1921   -0.1392 C   0  0  0  0  0  0  0  0  0  0  0  0
   -2.4186    0.4573    1.0499 N   0  0  0  0  0  0  0  0  0  0  0  0
   -2.8877   -0.8560    1.1333 C   0  0  0  0  0  0  0  0  0  0  0  0
   -3.4660   -1.3033    2.3233 C   0  0  0  0  0  0  0  0  0  0  0  0
   -3.9991   -2.5682    2.4047 C   0  0  0  0  0  0  0  0  0  0  0  0
   -3.9796   -3.4162    1.2992 C   0  0  0  0  0  0  0  0  0  0  0  0
   -4.7775   -4.9870    1.4975 S   0  0  0  0  0  0  0  0  0  0  0  0
   -5.0474   -5.5440   -0.2114 C   0  0  0  0  0  0  0  0  0  0  0  0
   -3.3526   -3.0044    0.1320 C   0  0  0  0  0  0  0  0  0  0  0  0
   -2.8033   -1.7356    0.0542 C   0  0  0  0  0  0  0  0  0  0  0  0
   -1.5924    0.9436    2.0776 C   0  0  0  0  0  0  0  0  0  0  0  0
   -1.5730    2.3048    2.3675 C   0  0  0  0  0  0  0  0  0  0  0  0
   -0.7085    2.8143    3.3163 C   0  0  0  0  0  0  0  0  0  0  0  0
    0.1478    1.9643    4.0019 C   0  0  0  0  0  0  0  0  0  0  0  0
    1.3234    2.4948    5.2082 S   0  0  0  0  0  0  0  0  0  0  0  0
    1.2124    4.3050    5.1612 C   0  0  0  0  0  0  0  0  0  0  0  0
    0.1055    0.5959    3.7413 C   0  0  0  0  0  0  0  0  0  0  0  0
   -0.7488    0.0899    2.7886 C   0  0  0  0  0  0  0  0  0  0  0  0
   -1.2102    1.7821   -0.6090 C   0  0  0  0  0  0  0  0  0  0  0  0
    0.4391    1.6811   -0.0724 S   0  0  0  0  0  0  0  0  0  0  0  0
    0.9174    2.7474   -1.3774 C   0  0  0  0  0  0  0  0  0  0  0  0
   -0.1228    3.0227   -2.2726 C   0  0  0  0  0  0  0  0  0  0  0  0
    0.0514    3.5368   -3.5364 N   0  0  0  0  0  0  0  0  0  0  0  0
   -0.9577    4.3103   -4.1183 C   0  0  0  0  0  0  0  0  0  0  0  0
   -1.2281    4.2184   -5.4806 C   0  0  0  0  0  0  0  0  0  0  0  0
   -2.2290    4.9787   -6.0516 C   0  0  0  0  0  0  0  0  0  0  0  0
   -2.9842    5.8408   -5.2661 C   0  0  0  0  0  0  0  0  0  0  0  0
   -4.2884    6.8557   -5.8761 S   0  0  0  0  0  0  0  0  0  0  0  0
   -4.3063    6.5261   -7.6614 C   0  0  0  0  0  0  0  0  0  0  0  0
   -2.7138    5.9360   -3.9012 C   0  0  0  0  0  0  0  0  0  0  0  0
   -1.7107    5.1855   -3.3334 C   0  0  0  0  0  0  0  0  0  0  0  0
    1.2180    3.2155   -4.2561 C   0  0  0  0  0  0  0  0  0  0  0  0
    1.8531    4.1681   -5.0535 C   0  0  0  0  0  0  0  0  0  0  0  0
    3.0500    3.8716   -5.6677 C   0  0  0  0  0  0  0  0  0  0  0  0
    3.6415    2.6199   -5.5035 C   0  0  0  0  0  0  0  0  0  0  0  0
    5.2122    2.3749   -6.2629 S   0  0  0  0  0  0  0  0  0  0  0  0
    5.4931    0.5888   -6.1066 C   0  0  0  0  0  0  0  0  0  0  0  0
    2.9871    1.6517   -4.7517 C   0  0  0  0  0  0  0  0  0  0  0  0
    1.7848    1.9477   -4.1442 C   0  0  0  0  0  0  0  0  0  0  0  0
   -1.3491    2.5216   -1.7690 C   0  0  0  0  0  0  0  0  0  0  0  0
   -2.9960    2.5590   -2.2934 S   0  0  0  0  0  0  0  0  0  0  0  0
    2.2688    3.1747   -1.4473 C   0  0  0  0  0  0  0  0  0  0  0  0
    2.7169    4.3193   -2.1056 C   0  0  0  0  0  0  0  0  0  0  0  0
    1.8335    5.2673   -2.4783 F   0  0  0  0  0  0  0  0  0  0  0  0
    4.0668    4.5268   -2.3643 C   0  0  0  0  0  0  0  0  0  0  0  0
    4.4156    5.5987   -3.0934 F   0  0  0  0  0  0  0  0  0  0  0  0
    5.0527    3.6265   -1.9672 C   0  0  0  0  0  0  0  0  0  0  0  0
    4.6461    2.5938   -1.0686 C   0  0  0  0  0  0  0  0  0  0  0  0
    5.5517    1.8475   -0.4246 N   0  0  0  0  0  0  0  0  0  0  0  0
    5.1558    0.9210    0.4169 C   0  0  0  0  0  0  0  0  0  0  0  0
    6.2451    0.1598    1.1105 C   0  0  0  0  0  0  0  0  0  0  0  0
    6.5806    0.8083    2.4558 C   0  0  0  0  0  0  0  0  0  0  0  0
    3.7753    0.7175    0.6811 C   0  0  0  0  0  0  0  0  0  0  0  0
    2.8847    1.4596    0.0652 N   0  0  0  0  0  0  0  0  0  0  0  0
    3.2731    2.3940   -0.8032 C   0  0  0  0  0  0  0  0  0  0  0  0
    3.2225   -0.2962    1.6356 C   0  0  0  0  0  0  0  0  0  0  0  0
    2.6312   -1.4766    0.8621 C   0  0  0  0  0  0  0  0  0  0  0  0
    6.4165    3.7873   -2.3567 C   0  0  0  0  0  0  0  0  0  0  0  0
    7.2690    2.7457   -2.5581 C   0  0  0  0  0  0  0  0  0  0  0  0
    6.8456    1.3507   -2.8253 C   0  0  0  0  0  0  0  0  0  0  0  0
    5.7159    0.9109   -2.9347 O   0  0  0  0  0  0  0  0  0  0  0  0
    8.0829    0.6038   -3.1132 C   0  0  0  0  0  0  0  0  0  0  0  0
    8.1878   -0.7549   -3.4040 C   0  0  0  0  0  0  0  0  0  0  0  0
    9.4708   -1.1796   -3.6490 C   0  0  0  0  0  0  0  0  0  0  0  0
   10.5705   -0.3111   -3.6281 C   0  0  0  0  0  0  0  0  0  0  0  0
   10.4805    1.0329   -3.3551 C   0  0  0  0  0  0  0  0  0  0  0  0
    9.1845    1.4821   -3.0844 C   0  0  0  0  0  0  0  0  0  0  0  0
    8.7075    2.8151   -2.7274 C   0  0  0  0  0  0  0  0  0  0  0  0
    9.4950    3.9120   -2.4971 C   0  0  0  0  0  0  0  0  0  0  0  0
   10.8972    3.9355   -2.6473 C   0  0  0  0  0  0  0  0  0  0  0  0
   12.0375    4.0236   -2.7507 N   0  0  0  0  0  0  0  0  0  0  0  0
    9.0277    5.1638   -2.0419 C   0  0  0  0  0  0  0  0  0  0  0  0
    8.7403    6.2025   -1.6461 N   0  0  0  0  0  0  0  0  0  0  0  0
   11.5474   -1.4126   -3.9547 C   0  0  0  0  0  0  0  0  0  0  0  0
   12.4112   -1.9721   -2.7973 C   0  0  0  0  0  0  0  0  0  0  0  0
   11.6274   -1.7443   -1.5287 C   0  0  0  0  0  0  0  0  0  0  0  0
   10.5868   -2.5666   -1.5428 C   0  0  0  0  0  0  0  0  0  0  0  0
   10.6482   -3.3652   -2.8214 C   0  0  0  0  0  0  0  0  0  0  0  0
   12.1709   -3.4771   -2.9976 C   0  0  0  0  0  0  0  0  0  0  0  0
   10.3229   -2.3811   -3.9728 C   0  0  0  0  0  0  0  0  0  0  0  0
   -9.9260   -3.3861    0.1008 H   0  0  0  0  0  0  0  0  0  0  0  0
   -6.1051   -3.3966    5.0485 H   0  0  0  0  0  0  0  0  0  0  0  0
   -8.5137   -7.5738    3.4943 H   0  0  0  0  0  0  0  0  0  0  0  0
   -7.4448   -7.9331    6.7491 H   0  0  0  0  0  0  0  0  0  0  0  0
   -5.8361   -9.5039    5.6775 H   0  0  0  0  0  0  0  0  0  0  0  0
   -4.8717   -8.2600    3.5855 H   0  0  0  0  0  0  0  0  0  0  0  0
   -3.6047   -6.0867    4.4183 H   0  0  0  0  0  0  0  0  0  0  0  0
   -3.7761   -5.9891    7.0324 H   0  0  0  0  0  0  0  0  0  0  0  0
   -4.9867   -8.2333    7.8936 H   0  0  0  0  0  0  0  0  0  0  0  0
   -3.6170   -8.6241    6.8239 H   0  0  0  0  0  0  0  0  0  0  0  0
   -6.2029   -5.8182    7.5694 H   0  0  0  0  0  0  0  0  0  0  0  0
  -10.5787   -0.8097    0.0836 H   0  0  0  0  0  0  0  0  0  0  0  0
  -10.1304    3.6688   -1.1375 H   0  0  0  0  0  0  0  0  0  0  0  0
   -5.4924    3.3280   -1.3149 H   0  0  0  0  0  0  0  0  0  0  0  0
   -4.7316   -0.7720   -0.3349 H   0  0  0  0  0  0  0  0  0  0  0  0
   -6.5366   -2.2433    0.2066 H   0  0  0  0  0  0  0  0  0  0  0  0
   -3.5133   -0.6389    3.1717 H   0  0  0  0  0  0  0  0  0  0  0  0
   -4.4615   -2.9081    3.3165 H   0  0  0  0  0  0  0  0  0  0  0  0
   -5.7056   -6.4047   -0.1405 H   0  0  0  0  0  0  0  0  0  0  0  0
   -5.5284   -4.7562   -0.7845 H   0  0  0  0  0  0  0  0  0  0  0  0
   -4.1072   -5.8422   -0.6659 H   0  0  0  0  0  0  0  0  0  0  0  0
   -3.2854   -3.6571   -0.7242 H   0  0  0  0  0  0  0  0  0  0  0  0
   -2.3246   -1.4134   -0.8598 H   0  0  0  0  0  0  0  0  0  0  0  0
   -2.2343    2.9719    1.8344 H   0  0  0  0  0  0  0  0  0  0  0  0
   -0.7150    3.8749    3.5088 H   0  0  0  0  0  0  0  0  0  0  0  0
    1.9758    4.6630    5.8451 H   0  0  0  0  0  0  0  0  0  0  0  0
    0.2332    4.6286    5.5023 H   0  0  0  0  0  0  0  0  0  0  0  0
    1.4202    4.6605    4.1562 H   0  0  0  0  0  0  0  0  0  0  0  0
    0.7644   -0.0617    4.2880 H   0  0  0  0  0  0  0  0  0  0  0  0
   -0.7521   -0.9681    2.5747 H   0  0  0  0  0  0  0  0  0  0  0  0
   -0.6530    3.5418   -6.0953 H   0  0  0  0  0  0  0  0  0  0  0  0
   -2.4134    4.8821   -7.1092 H   0  0  0  0  0  0  0  0  0  0  0  0
   -4.5463    5.4832   -7.8463 H   0  0  0  0  0  0  0  0  0  0  0  0
   -3.3500    6.7972   -8.0991 H   0  0  0  0  0  0  0  0  0  0  0  0
   -5.0890    7.1602   -8.0660 H   0  0  0  0  0  0  0  0  0  0  0  0
   -3.2967    6.6146   -3.2981 H   0  0  0  0  0  0  0  0  0  0  0  0
   -1.4856    5.2869   -2.2828 H   0  0  0  0  0  0  0  0  0  0  0  0
    1.4199    5.1513   -5.1565 H   0  0  0  0  0  0  0  0  0  0  0  0
    3.5544    4.6180   -6.2614 H   0  0  0  0  0  0  0  0  0  0  0  0
    4.7001    0.0498   -6.6169 H   0  0  0  0  0  0  0  0  0  0  0  0
    6.4461    0.3977   -6.5907 H   0  0  0  0  0  0  0  0  0  0  0  0
    5.5474    0.3169   -5.0568 H   0  0  0  0  0  0  0  0  0  0  0  0
    3.4109    0.6716   -4.6144 H   0  0  0  0  0  0  0  0  0  0  0  0
    1.2891    1.1879   -3.5581 H   0  0  0  0  0  0  0  0  0  0  0  0
    5.9476   -0.8791    1.2574 H   0  0  0  0  0  0  0  0  0  0  0  0
    7.1294    0.1849    0.4718 H   0  0  0  0  0  0  0  0  0  0  0  0
    7.3766    0.2562    2.9491 H   0  0  0  0  0  0  0  0  0  0  0  0
    6.9121    1.8319    2.3002 H   0  0  0  0  0  0  0  0  0  0  0  0
    5.7112    0.8250    3.1095 H   0  0  0  0  0  0  0  0  0  0  0  0
    3.9883   -0.6461    2.3254 H   0  0  0  0  0  0  0  0  0  0  0  0
    2.4224    0.1822    2.2041 H   0  0  0  0  0  0  0  0  0  0  0  0
    3.3952   -1.9646    0.2602 H   0  0  0  0  0  0  0  0  0  0  0  0
    1.8417   -1.1230    0.2044 H   0  0  0  0  0  0  0  0  0  0  0  0
    2.2129   -2.2047    1.5525 H   0  0  0  0  0  0  0  0  0  0  0  0
    6.7583    4.8035   -2.5053 H   0  0  0  0  0  0  0  0  0  0  0  0
    7.3147   -1.3895   -3.4156 H   0  0  0  0  0  0  0  0  0  0  0  0
   11.3351    1.6885   -3.3521 H   0  0  0  0  0  0  0  0  0  0  0  0
   12.1150   -1.2909   -4.8749 H   0  0  0  0  0  0  0  0  0  0  0  0
   13.4407   -1.6247   -2.7940 H   0  0  0  0  0  0  0  0  0  0  0  0
   11.8710   -0.9919   -0.8017 H   0  0  0  0  0  0  0  0  0  0  0  0
    9.7866   -2.6385   -0.8293 H   0  0  0  0  0  0  0  0  0  0  0  0
   10.0732   -4.2876   -2.8397 H   0  0  0  0  0  0  0  0  0  0  0  0
   12.6407   -4.0851   -2.2260 H   0  0  0  0  0  0  0  0  0  0  0  0
   12.4686   -3.8369   -3.9816 H   0  0  0  0  0  0  0  0  0  0  0  0
   10.0923   -2.8949   -4.9043 H   0  0  0  0  0  0  0  0  0  0  0  0
  1  2  2  0  0  0  0
  2  3  1  0  0  0  0
  3  4  2  0  0  0  0
  3  5  1  0  0  0  0
  5  6  2  0  0  0  0
  6  7  1  0  0  0  0
  7  8  2  0  0  0  0
  8  9  1  0  0  0  0
  9 10  2  0  0  0  0
 10 11  1  0  0  0  0
 11 12  2  0  0  0  0
 12 13  1  0  0  0  0
 13 14  3  0  0  0  0
 12 15  1  0  0  0  0
 15 16  3  0  0  0  0
  8 17  1  0  0  0  0
 17 18  1  0  0  0  0
 18 19  1  0  0  0  0
 19 20  2  0  0  0  0
 20 21  1  0  0  0  0
 21 22  1  0  0  0  0
 21 23  1  0  0  0  0
  1 24  1  0  0  0  0
 24 25  2  0  0  0  0
 25 26  1  0  0  0  0
 26 27  1  0  0  0  0
 27 28  2  0  0  0  0
 27 29  1  0  0  0  0
 29 30  1  0  0  0  0
 30 31  2  0  0  0  0
 30 32  1  0  0  0  0
 32 33  2  0  0  0  0
 33 34  1  0  0  0  0
 34 35  2  0  0  0  0
 35 36  1  0  0  0  0
 36 37  2  0  0  0  0
 36 38  1  0  0  0  0
 34 39  1  0  0  0  0
 39 40  2  0  0  0  0
 40 41  1  0  0  0  0
 41 42  1  0  0  0  0
 42 43  2  0  0  0  0
 43 44  1  0  0  0  0
 44 45  2  0  0  0  0
 45 46  1  0  0  0  0
 46 47  1  0  0  0  0
 45 48  1  0  0  0  0
 48 49  2  0  0  0  0
 41 50  1  0  0  0  0
 50 51  2  0  0  0  0
 51 52  1  0  0  0  0
 52 53  2  0  0  0  0
 53 54  1  0  0  0  0
 54 55  1  0  0  0  0
 53 56  1  0  0  0  0
 56 57  2  0  0  0  0
 40 58  1  0  0  0  0
 58 59  1  0  0  0  0
 59 60  1  0  0  0  0
 60 61  2  0  0  0  0
 61 62  1  0  0  0  0
 62 63  1  0  0  0  0
 63 64  2  0  0  0  0
 64 65  1  0  0  0  0
 65 66  2  0  0  0  0
 66 67  1  0  0  0  0
 67 68  1  0  0  0  0
 66 69  1  0  0  0  0
 69 70  2  0  0  0  0
 62 71  1  0  0  0  0
 71 72  2  0  0  0  0
 72 73  1  0  0  0  0
 73 74  2  0  0  0  0
 74 75  1  0  0  0  0
 75 76  1  0  0  0  0
 74 77  1  0  0  0  0
 77 78  2  0  0  0  0
 61 79  1  0  0  0  0
 79 80  1  0  0  0  0
 60 81  1  0  0  0  0
 81 82  2  0  0  0  0
 82 83  1  0  0  0  0
 82 84  1  0  0  0  0
 84 85  1  0  0  0  0
 84 86  2  0  0  0  0
 86 87  1  0  0  0  0
 87 88  2  0  0  0  0
 88 89  1  0  0  0  0
 89 90  1  0  0  0  0
 90 91  1  0  0  0  0
 89 92  2  0  0  0  0
 92 93  1  0  0  0  0
 93 94  2  0  0  0  0
 92 95  1  0  0  0  0
 95 96  1  0  0  0  0
 86 97  1  0  0  0  0
 97 98  2  0  0  0  0
 98 99  1  0  0  0  0
 99100  2  0  0  0  0
 99101  1  0  0  0  0
101102  2  0  0  0  0
102103  1  0  0  0  0
103104  2  0  0  0  0
104105  1  0  0  0  0
105106  2  0  0  0  0
106107  1  0  0  0  0
107108  2  0  0  0  0
108109  1  0  0  0  0
109110  3  0  0  0  0
108111  1  0  0  0  0
111112  3  0  0  0  0
104113  1  0  0  0  0
113114  1  0  0  0  0
114115  1  0  0  0  0
115116  2  0  0  0  0
116117  1  0  0  0  0
117118  1  0  0  0  0
117119  1  0  0  0  0
 11  2  1  0  0  0  0
 23 17  1  0  0  0  0
 37 24  1  0  0  0  0
 80 39  1  0  0  0  0
 94 81  1  0  0  0  0
107 98  1  0  0  0  0
119113  1  0  0  0  0
 10  5  1  0  0  0  0
 22 18  1  0  0  0  0
 38 26  2  0  0  0  0
 49 42  1  0  0  0  0
 57 50  1  0  0  0  0
 79 58  2  0  0  0  0
 94 87  1  0  0  0  0
106101  1  0  0  0  0
118114  1  0  0  0  0
 23  7  1  0  0  0  0
 38 32  1  0  0  0  0
 70 63  1  0  0  0  0
 78 71  1  0  0  0  0
119103  1  0  0  0  0
  1120  1  0  0  0  0
  6121  1  0  0  0  0
  9122  1  0  0  0  0
 17123  1  0  0  0  0
 18124  1  0  0  0  0
 19125  1  0  0  0  0
 20126  1  0  0  0  0
 21127  1  0  0  0  0
 22128  1  0  0  0  0
 22129  1  0  0  0  0
 23130  1  0  0  0  0
 25131  1  0  0  0  0
 29132  1  0  0  0  0
 33133  1  0  0  0  0
 35134  1  0  0  0  0
 37135  1  0  0  0  0
 43136  1  0  0  0  0
 44137  1  0  0  0  0
 47138  1  0  0  0  0
 47139  1  0  0  0  0
 47140  1  0  0  0  0
 48141  1  0  0  0  0
 49142  1  0  0  0  0
 51143  1  0  0  0  0
 52144  1  0  0  0  0
 55145  1  0  0  0  0
 55146  1  0  0  0  0
 55147  1  0  0  0  0
 56148  1  0  0  0  0
 57149  1  0  0  0  0
 64150  1  0  0  0  0
 65151  1  0  0  0  0
 68152  1  0  0  0  0
 68153  1  0  0  0  0
 68154  1  0  0  0  0
 69155  1  0  0  0  0
 70156  1  0  0  0  0
 72157  1  0  0  0  0
 73158  1  0  0  0  0
 76159  1  0  0  0  0
 76160  1  0  0  0  0
 76161  1  0  0  0  0
 77162  1  0  0  0  0
 78163  1  0  0  0  0
 90164  1  0  0  0  0
 90165  1  0  0  0  0
 91166  1  0  0  0  0
 91167  1  0  0  0  0
 91168  1  0  0  0  0
 95169  1  0  0  0  0
 95170  1  0  0  0  0
 96171  1  0  0  0  0
 96172  1  0  0  0  0
 96173  1  0  0  0  0
 97174  1  0  0  0  0
102175  1  0  0  0  0
105176  1  0  0  0  0
113177  1  0  0  0  0
114178  1  0  0  0  0
115179  1  0  0  0  0
116180  1  0  0  0  0
117181  1  0  0  0  0
118182  1  0  0  0  0
118183  1  0  0  0  0
119184  1  0  0  0  0
M  END
