
  xtb     02082213393D
 energy: -288.901150281141 gnorm: 0.000486512472 xtb: 6.4.1 (unknown)
170190  0     0  0            999 V2000
   -6.4248    4.7551   -6.6926 C   0  0  0  0  0  0  0  0  0  0  0  0
   -7.3035    5.8048   -6.7440 C   0  0  0  0  0  0  0  0  0  0  0  0
   -7.3020    7.0318   -5.9159 C   0  0  0  0  0  0  0  0  0  0  0  0
   -6.5915    7.3146   -4.9652 O   0  0  0  0  0  0  0  0  0  0  0  0
   -8.2957    7.9317   -6.5296 C   0  0  0  0  0  0  0  0  0  0  0  0
   -8.6386    9.2134   -6.1004 C   0  0  0  0  0  0  0  0  0  0  0  0
   -9.6092    9.8191   -6.8607 C   0  0  0  0  0  0  0  0  0  0  0  0
  -10.1965    9.2006   -7.9725 C   0  0  0  0  0  0  0  0  0  0  0  0
   -9.8671    7.9398   -8.4091 C   0  0  0  0  0  0  0  0  0  0  0  0
   -8.8824    7.3040   -7.6465 C   0  0  0  0  0  0  0  0  0  0  0  0
   -8.3018    5.9728   -7.7857 C   0  0  0  0  0  0  0  0  0  0  0  0
   -8.7035    5.0229   -8.6889 C   0  0  0  0  0  0  0  0  0  0  0  0
   -9.6845    5.2281   -9.6821 C   0  0  0  0  0  0  0  0  0  0  0  0
  -10.4621    5.3220  -10.5217 N   0  0  0  0  0  0  0  0  0  0  0  0
   -8.2374    3.6917   -8.7493 C   0  0  0  0  0  0  0  0  0  0  0  0
   -7.9426    2.5867   -8.8562 N   0  0  0  0  0  0  0  0  0  0  0  0
  -11.0877   10.3824   -8.2611 C   0  0  0  0  0  0  0  0  0  0  0  0
  -10.6633   11.2993   -9.4276 C   0  0  0  0  0  0  0  0  0  0  0  0
  -11.4146   12.5851   -9.1681 C   0  0  0  0  0  0  0  0  0  0  0  0
  -10.8591   13.1716   -8.1155 C   0  0  0  0  0  0  0  0  0  0  0  0
   -9.7226   12.2922   -7.6458 C   0  0  0  0  0  0  0  0  0  0  0  0
   -9.2549   11.7242   -8.9920 C   0  0  0  0  0  0  0  0  0  0  0  0
  -10.4333   11.0726   -7.0212 C   0  0  0  0  0  0  0  0  0  0  0  0
   -5.5327    4.4114   -5.6594 C   0  0  0  0  0  0  0  0  0  0  0  0
   -5.5361    4.7829   -4.3357 C   0  0  0  0  0  0  0  0  0  0  0  0
   -4.4951    4.2233   -3.5792 C   0  0  0  0  0  0  0  0  0  0  0  0
   -4.1837    4.5152   -2.2260 C   0  0  0  0  0  0  0  0  0  0  0  0
   -4.8137    5.6045   -1.5288 C   0  0  0  0  0  0  0  0  0  0  0  0
   -4.9717    5.7482   -0.1719 C   0  0  0  0  0  0  0  0  0  0  0  0
   -5.4536    6.9873    0.2666 C   0  0  0  0  0  0  0  0  0  0  0  0
   -5.6735    7.9070   -0.7249 C   0  0  0  0  0  0  0  0  0  0  0  0
   -6.2606    9.5185   -0.3981 S   0  0  0  0  0  0  0  0  0  0  0  0
   -5.6738   10.4499   -1.8607 C   0  0  0  0  0  0  0  0  0  0  0  0
   -6.6302   10.3553   -3.0320 C   0  0  0  0  0  0  0  0  0  0  0  0
   -5.3811    7.1729   -2.4261 Se  0  0  0  0  0  2  0  0  0  0  0  0
   -3.1669    3.7399   -1.6705 C   0  0  0  0  0  0  0  0  0  0  0  0
   -2.4356    2.7765   -2.4098 C   0  0  0  0  0  0  0  0  0  0  0  0
   -2.6670    2.5783   -3.7910 C   0  0  0  0  0  0  0  0  0  0  0  0
   -1.8503    1.6936   -4.5923 C   0  0  0  0  0  0  0  0  0  0  0  0
   -2.2569    0.9055   -5.6348 C   0  0  0  0  0  0  0  0  0  0  0  0
   -1.2538    0.1462   -6.2665 C   0  0  0  0  0  0  0  0  0  0  0  0
    0.0062    0.3175   -5.7689 C   0  0  0  0  0  0  0  0  0  0  0  0
    1.4336   -0.4690   -6.3983 S   0  0  0  0  0  0  0  0  0  0  0  0
    2.4957   -0.5083   -4.9088 C   0  0  0  0  0  0  0  0  0  0  0  0
    1.9503   -1.4428   -3.8501 C   0  0  0  0  0  0  0  0  0  0  0  0
    0.0237    1.5808   -4.3740 Se  0  0  0  0  0  2  0  0  0  0  0  0
   -3.7198    3.3049   -4.3355 C   0  0  0  0  0  0  0  0  0  0  0  0
   -4.2515    3.2535   -5.9914 S   0  0  0  0  0  0  0  0  0  0  0  0
   -1.4897    2.1039   -1.6064 C   0  0  0  0  0  0  0  0  0  0  0  0
   -1.4346    2.5491   -0.3164 C   0  0  0  0  0  0  0  0  0  0  0  0
   -2.5879    3.8293   -0.0233 S   0  0  0  0  0  0  0  0  0  0  0  0
   -0.5825    2.0542    0.7060 C   0  0  0  0  0  0  0  0  0  0  0  0
   -0.5167    2.4267    2.0291 C   0  0  0  0  0  0  0  0  0  0  0  0
    0.4461    1.7062    2.7546 C   0  0  0  0  0  0  0  0  0  0  0  0
    0.8038    1.8304    4.0505 O   0  0  0  0  0  0  0  0  0  0  0  0
   -0.0330    2.5581    4.9305 C   0  0  0  0  0  0  0  0  0  0  0  0
   -1.2993    1.7877    5.2845 C   0  0  0  0  0  0  0  0  0  0  0  0
    1.1206    0.7707    1.9764 C   0  0  0  0  0  0  0  0  0  0  0  0
    0.5685    0.8037    0.3333 S   0  0  0  0  0  0  0  0  0  0  0  0
    2.0932   -0.1545    2.4259 C   0  0  0  0  0  0  0  0  0  0  0  0
    2.7985   -1.0584    1.6802 C   0  0  0  0  0  0  0  0  0  0  0  0
    3.6340   -1.9017    2.4460 C   0  0  0  0  0  0  0  0  0  0  0  0
    4.4889   -2.9298    1.9942 C   0  0  0  0  0  0  0  0  0  0  0  0
    4.6062   -3.3036    0.6009 C   0  0  0  0  0  0  0  0  0  0  0  0
    5.7363   -3.7313   -0.0393 C   0  0  0  0  0  0  0  0  0  0  0  0
    5.5736   -4.1658   -1.3694 C   0  0  0  0  0  0  0  0  0  0  0  0
    4.2955   -4.1234   -1.8406 C   0  0  0  0  0  0  0  0  0  0  0  0
    3.8276   -4.5331   -3.4750 S   0  0  0  0  0  0  0  0  0  0  0  0
    2.1671   -5.2411   -3.1749 C   0  0  0  0  0  0  0  0  0  0  0  0
    2.2411   -6.5550   -2.4257 C   0  0  0  0  0  0  0  0  0  0  0  0
    3.1150   -3.4106   -0.5531 Se  0  0  0  0  0  2  0  0  0  0  0  0
    5.2019   -3.6191    2.9751 C   0  0  0  0  0  0  0  0  0  0  0  0
    5.0946   -3.3261    4.3611 C   0  0  0  0  0  0  0  0  0  0  0  0
    4.2772   -2.2560    4.8105 C   0  0  0  0  0  0  0  0  0  0  0  0
    4.1962   -1.8929    6.2027 C   0  0  0  0  0  0  0  0  0  0  0  0
    5.1959   -1.9189    7.1397 C   0  0  0  0  0  0  0  0  0  0  0  0
    4.8396   -1.5254    8.4413 C   0  0  0  0  0  0  0  0  0  0  0  0
    3.5255   -1.1819    8.6032 C   0  0  0  0  0  0  0  0  0  0  0  0
    2.8313   -0.7304   10.1417 S   0  0  0  0  0  0  0  0  0  0  0  0
    1.1789   -0.1275    9.6471 C   0  0  0  0  0  0  0  0  0  0  0  0
    1.2307    1.2470    9.0102 C   0  0  0  0  0  0  0  0  0  0  0  0
    2.5773   -1.3192    6.9802 Se  0  0  0  0  0  2  0  0  0  0  0  0
    3.5543   -1.5937    3.8286 C   0  0  0  0  0  0  0  0  0  0  0  0
    2.4624   -0.2657    4.1292 S   0  0  0  0  0  0  0  0  0  0  0  0
    5.8033   -4.2550    5.1346 C   0  0  0  0  0  0  0  0  0  0  0  0
    6.4685   -5.2205    4.4001 C   0  0  0  0  0  0  0  0  0  0  0  0
    6.2273   -4.9969    2.6815 S   0  0  0  0  0  0  0  0  0  0  0  0
    7.2318   -6.2261    5.0275 C   0  0  0  0  0  0  0  0  0  0  0  0
    7.9517   -7.2590    4.4972 C   0  0  0  0  0  0  0  0  0  0  0  0
    8.0773   -7.5907    3.0669 C   0  0  0  0  0  0  0  0  0  0  0  0
    7.6173   -6.9823    2.1194 O   0  0  0  0  0  0  0  0  0  0  0  0
    8.8816   -8.8222    3.0002 C   0  0  0  0  0  0  0  0  0  0  0  0
    9.2411   -9.5235    1.8517 C   0  0  0  0  0  0  0  0  0  0  0  0
    9.9928  -10.6474    2.0953 C   0  0  0  0  0  0  0  0  0  0  0  0
   10.3646  -11.0420    3.3878 C   0  0  0  0  0  0  0  0  0  0  0  0
   10.0203  -10.3566    4.5282 C   0  0  0  0  0  0  0  0  0  0  0  0
    9.2501   -9.2114    4.3039 C   0  0  0  0  0  0  0  0  0  0  0  0
    8.7025   -8.2453    5.2538 C   0  0  0  0  0  0  0  0  0  0  0  0
    8.8956   -8.2745    6.6113 C   0  0  0  0  0  0  0  0  0  0  0  0
    9.6380   -9.2615    7.2934 C   0  0  0  0  0  0  0  0  0  0  0  0
   10.2206  -10.0253    7.9227 N   0  0  0  0  0  0  0  0  0  0  0  0
    8.4077   -7.3310    7.5398 C   0  0  0  0  0  0  0  0  0  0  0  0
    8.0600   -6.6143    8.3681 N   0  0  0  0  0  0  0  0  0  0  0  0
   11.1002  -12.2608    2.8903 C   0  0  0  0  0  0  0  0  0  0  0  0
   10.4044  -13.6357    3.0452 C   0  0  0  0  0  0  0  0  0  0  0  0
    8.9202  -13.3663    3.0579 C   0  0  0  0  0  0  0  0  0  0  0  0
    8.5659  -12.9935    1.8353 C   0  0  0  0  0  0  0  0  0  0  0  0
    9.8044  -13.0043    0.9736 C   0  0  0  0  0  0  0  0  0  0  0  0
   10.5698  -14.1730    1.6146 C   0  0  0  0  0  0  0  0  0  0  0  0
   10.6845  -11.8222    1.4506 C   0  0  0  0  0  0  0  0  0  0  0  0
   -6.3814    4.1011   -7.5552 H   0  0  0  0  0  0  0  0  0  0  0  0
   -8.1688    9.6547   -5.2367 H   0  0  0  0  0  0  0  0  0  0  0  0
  -10.3269    7.4778   -9.2663 H   0  0  0  0  0  0  0  0  0  0  0  0
  -12.1575   10.1838   -8.2432 H   0  0  0  0  0  0  0  0  0  0  0  0
  -10.7719   10.8591  -10.4149 H   0  0  0  0  0  0  0  0  0  0  0  0
  -12.2791   12.8973   -9.7240 H   0  0  0  0  0  0  0  0  0  0  0  0
  -11.1669   14.0717   -7.6164 H   0  0  0  0  0  0  0  0  0  0  0  0
   -8.9738   12.7581   -7.0107 H   0  0  0  0  0  0  0  0  0  0  0  0
   -8.5495   10.8997   -8.9051 H   0  0  0  0  0  0  0  0  0  0  0  0
   -8.8383   12.4930   -9.6406 H   0  0  0  0  0  0  0  0  0  0  0  0
  -11.0675   11.3358   -6.1767 H   0  0  0  0  0  0  0  0  0  0  0  0
   -6.3273    5.3763   -3.9185 H   0  0  0  0  0  0  0  0  0  0  0  0
   -4.7635    4.9508    0.5204 H   0  0  0  0  0  0  0  0  0  0  0  0
   -5.6087    7.2212    1.3058 H   0  0  0  0  0  0  0  0  0  0  0  0
   -5.5774   11.4776   -1.5101 H   0  0  0  0  0  0  0  0  0  0  0  0
   -4.6868   10.0591   -2.1153 H   0  0  0  0  0  0  0  0  0  0  0  0
   -6.6913    9.3257   -3.3885 H   0  0  0  0  0  0  0  0  0  0  0  0
   -6.2703   10.9825   -3.8460 H   0  0  0  0  0  0  0  0  0  0  0  0
   -7.6229   10.6907   -2.7378 H   0  0  0  0  0  0  0  0  0  0  0  0
   -3.2924    0.8095   -5.9142 H   0  0  0  0  0  0  0  0  0  0  0  0
   -1.4617   -0.5385   -7.0702 H   0  0  0  0  0  0  0  0  0  0  0  0
    2.5833    0.5194   -4.5427 H   0  0  0  0  0  0  0  0  0  0  0  0
    3.4658   -0.8458   -5.2711 H   0  0  0  0  0  0  0  0  0  0  0  0
    0.9801   -1.0992   -3.4902 H   0  0  0  0  0  0  0  0  0  0  0  0
    2.6355   -1.4856   -3.0039 H   0  0  0  0  0  0  0  0  0  0  0  0
    1.8375   -2.4428   -4.2607 H   0  0  0  0  0  0  0  0  0  0  0  0
   -0.8821    1.2798   -1.9390 H   0  0  0  0  0  0  0  0  0  0  0  0
   -1.1531    3.1930    2.4338 H   0  0  0  0  0  0  0  0  0  0  0  0
   -0.2760    3.5385    4.5040 H   0  0  0  0  0  0  0  0  0  0  0  0
    0.5816    2.7066    5.8219 H   0  0  0  0  0  0  0  0  0  0  0  0
   -1.8804    2.3486    6.0109 H   0  0  0  0  0  0  0  0  0  0  0  0
   -1.9091    1.6212    4.3992 H   0  0  0  0  0  0  0  0  0  0  0  0
   -1.0335    0.8224    5.7092 H   0  0  0  0  0  0  0  0  0  0  0  0
    2.7154   -1.0854    0.6063 H   0  0  0  0  0  0  0  0  0  0  0  0
    6.7022   -3.7259    0.4352 H   0  0  0  0  0  0  0  0  0  0  0  0
    6.3921   -4.5274   -1.9671 H   0  0  0  0  0  0  0  0  0  0  0  0
    1.5922   -4.4921   -2.6212 H   0  0  0  0  0  0  0  0  0  0  0  0
    1.7335   -5.3699   -4.1660 H   0  0  0  0  0  0  0  0  0  0  0  0
    1.2402   -6.9585   -2.2865 H   0  0  0  0  0  0  0  0  0  0  0  0
    2.8370   -7.2761   -2.9802 H   0  0  0  0  0  0  0  0  0  0  0  0
    2.6954   -6.4113   -1.4458 H   0  0  0  0  0  0  0  0  0  0  0  0
    6.2129   -2.1640    6.8836 H   0  0  0  0  0  0  0  0  0  0  0  0
    5.5450   -1.4921    9.2534 H   0  0  0  0  0  0  0  0  0  0  0  0
    0.6020   -0.1137   10.5713 H   0  0  0  0  0  0  0  0  0  0  0  0
    0.7538   -0.8736    8.9682 H   0  0  0  0  0  0  0  0  0  0  0  0
    1.6770    1.9649    9.6942 H   0  0  0  0  0  0  0  0  0  0  0  0
    0.2234    1.5755    8.7621 H   0  0  0  0  0  0  0  0  0  0  0  0
    1.8226    1.2234    8.0947 H   0  0  0  0  0  0  0  0  0  0  0  0
    5.8094   -4.2606    6.2099 H   0  0  0  0  0  0  0  0  0  0  0  0
    7.2217   -6.1412    6.1076 H   0  0  0  0  0  0  0  0  0  0  0  0
    8.9348   -9.1808    0.8756 H   0  0  0  0  0  0  0  0  0  0  0  0
   10.3161  -10.6755    5.5134 H   0  0  0  0  0  0  0  0  0  0  0  0
   12.1621  -12.3045    3.1236 H   0  0  0  0  0  0  0  0  0  0  0  0
   10.7883  -14.2465    3.8578 H   0  0  0  0  0  0  0  0  0  0  0  0
    8.3100  -13.4175    3.9406 H   0  0  0  0  0  0  0  0  0  0  0  0
    7.6004  -12.6703    1.4924 H   0  0  0  0  0  0  0  0  0  0  0  0
    9.6417  -13.0414   -0.1004 H   0  0  0  0  0  0  0  0  0  0  0  0
   11.6084  -14.2397    1.2935 H   0  0  0  0  0  0  0  0  0  0  0  0
   10.0762  -15.1321    1.4653 H   0  0  0  0  0  0  0  0  0  0  0  0
   11.4751  -11.5816    0.7425 H   0  0  0  0  0  0  0  0  0  0  0  0
  1  2  2  0  0  0  0
  2  3  1  0  0  0  0
  3  4  2  0  0  0  0
  3  5  1  0  0  0  0
  5  6  2  0  0  0  0
  6  7  1  0  0  0  0
  7  8  2  0  0  0  0
  8  9  1  0  0  0  0
  9 10  2  0  0  0  0
 10 11  1  0  0  0  0
 11 12  2  0  0  0  0
 12 13  1  0  0  0  0
 13 14  3  0  0  0  0
 12 15  1  0  0  0  0
 15 16  3  0  0  0  0
  8 17  1  0  0  0  0
 17 18  1  0  0  0  0
 18 19  1  0  0  0  0
 19 20  2  0  0  0  0
 20 21  1  0  0  0  0
 21 22  1  0  0  0  0
 21 23  1  0  0  0  0
  1 24  1  0  0  0  0
 24 25  2  0  0  0  0
 25 26  1  0  0  0  0
 26 27  2  0  0  0  0
 27 28  1  0  0  0  0
 28 29  2  0  0  0  0
 29 30  1  0  0  0  0
 30 31  2  0  0  0  0
 31 32  1  0  0  0  0
 32 33  1  0  0  0  0
 33 34  1  0  0  0  0
 31 35  1  0  0  0  0
 27 36  1  0  0  0  0
 36 37  2  0  0  0  0
 37 38  1  0  0  0  0
 38 39  1  0  0  0  0
 39 40  2  0  0  0  0
 40 41  1  0  0  0  0
 41 42  2  0  0  0  0
 42 43  1  0  0  0  0
 43 44  1  0  0  0  0
 44 45  1  0  0  0  0
 42 46  1  0  0  0  0
 38 47  2  0  0  0  0
 47 48  1  0  0  0  0
 37 49  1  0  0  0  0
 49 50  2  0  0  0  0
 50 51  1  0  0  0  0
 50 52  1  0  0  0  0
 52 53  2  0  0  0  0
 53 54  1  0  0  0  0
 54 55  1  0  0  0  0
 55 56  1  0  0  0  0
 56 57  1  0  0  0  0
 54 58  2  0  0  0  0
 58 59  1  0  0  0  0
 58 60  1  0  0  0  0
 60 61  2  0  0  0  0
 61 62  1  0  0  0  0
 62 63  2  0  0  0  0
 63 64  1  0  0  0  0
 64 65  2  0  0  0  0
 65 66  1  0  0  0  0
 66 67  2  0  0  0  0
 67 68  1  0  0  0  0
 68 69  1  0  0  0  0
 69 70  1  0  0  0  0
 67 71  1  0  0  0  0
 63 72  1  0  0  0  0
 72 73  2  0  0  0  0
 73 74  1  0  0  0  0
 74 75  1  0  0  0  0
 75 76  2  0  0  0  0
 76 77  1  0  0  0  0
 77 78  2  0  0  0  0
 78 79  1  0  0  0  0
 79 80  1  0  0  0  0
 80 81  1  0  0  0  0
 78 82  1  0  0  0  0
 74 83  2  0  0  0  0
 83 84  1  0  0  0  0
 73 85  1  0  0  0  0
 85 86  2  0  0  0  0
 86 87  1  0  0  0  0
 86 88  1  0  0  0  0
 88 89  2  0  0  0  0
 89 90  1  0  0  0  0
 90 91  2  0  0  0  0
 90 92  1  0  0  0  0
 92 93  2  0  0  0  0
 93 94  1  0  0  0  0
 94 95  2  0  0  0  0
 95 96  1  0  0  0  0
 96 97  2  0  0  0  0
 97 98  1  0  0  0  0
 98 99  2  0  0  0  0
 99100  1  0  0  0  0
100101  3  0  0  0  0
 99102  1  0  0  0  0
102103  3  0  0  0  0
 95104  1  0  0  0  0
104105  1  0  0  0  0
105106  1  0  0  0  0
106107  2  0  0  0  0
107108  1  0  0  0  0
108109  1  0  0  0  0
108110  1  0  0  0  0
 11  2  1  0  0  0  0
 23 17  1  0  0  0  0
 48 24  1  0  0  0  0
 59 52  1  0  0  0  0
 84 60  1  0  0  0  0
 98 89  1  0  0  0  0
110104  1  0  0  0  0
 10  5  1  0  0  0  0
 22 18  1  0  0  0  0
 47 26  1  0  0  0  0
 83 62  1  0  0  0  0
 97 92  1  0  0  0  0
109105  1  0  0  0  0
 23  7  1  0  0  0  0
 35 28  1  0  0  0  0
 51 36  1  0  0  0  0
 71 64  1  0  0  0  0
 87 72  1  0  0  0  0
110 94  1  0  0  0  0
 46 39  1  0  0  0  0
 82 75  1  0  0  0  0
  1111  1  0  0  0  0
  6112  1  0  0  0  0
  9113  1  0  0  0  0
 17114  1  0  0  0  0
 18115  1  0  0  0  0
 19116  1  0  0  0  0
 20117  1  0  0  0  0
 21118  1  0  0  0  0
 22119  1  0  0  0  0
 22120  1  0  0  0  0
 23121  1  0  0  0  0
 25122  1  0  0  0  0
 29123  1  0  0  0  0
 30124  1  0  0  0  0
 33125  1  0  0  0  0
 33126  1  0  0  0  0
 34127  1  0  0  0  0
 34128  1  0  0  0  0
 34129  1  0  0  0  0
 40130  1  0  0  0  0
 41131  1  0  0  0  0
 44132  1  0  0  0  0
 44133  1  0  0  0  0
 45134  1  0  0  0  0
 45135  1  0  0  0  0
 45136  1  0  0  0  0
 49137  1  0  0  0  0
 53138  1  0  0  0  0
 56139  1  0  0  0  0
 56140  1  0  0  0  0
 57141  1  0  0  0  0
 57142  1  0  0  0  0
 57143  1  0  0  0  0
 61144  1  0  0  0  0
 65145  1  0  0  0  0
 66146  1  0  0  0  0
 69147  1  0  0  0  0
 69148  1  0  0  0  0
 70149  1  0  0  0  0
 70150  1  0  0  0  0
 70151  1  0  0  0  0
 76152  1  0  0  0  0
 77153  1  0  0  0  0
 80154  1  0  0  0  0
 80155  1  0  0  0  0
 81156  1  0  0  0  0
 81157  1  0  0  0  0
 81158  1  0  0  0  0
 85159  1  0  0  0  0
 88160  1  0  0  0  0
 93161  1  0  0  0  0
 96162  1  0  0  0  0
104163  1  0  0  0  0
105164  1  0  0  0  0
106165  1  0  0  0  0
107166  1  0  0  0  0
108167  1  0  0  0  0
109168  1  0  0  0  0
109169  1  0  0  0  0
110170  1  0  0  0  0
M  END
