
  xtb     02172219503D
 energy: -311.588643182312 gnorm: 0.000271575677 xtb: 6.4.1 (unknown)
188207  0     0  0            999 V2000
   -2.8982    2.2315   -6.9557 C   0  0  0  0  0  0  0  0  0  0  0  0
   -2.8075    3.5392   -7.3817 C   0  0  0  0  0  0  0  0  0  0  0  0
   -2.1093    4.5958   -6.6326 C   0  0  0  0  0  0  0  0  0  0  0  0
   -1.5878    4.5072   -5.5353 O   0  0  0  0  0  0  0  0  0  0  0  0
   -2.0472    5.7580   -7.5421 C   0  0  0  0  0  0  0  0  0  0  0  0
   -1.4642    6.9940   -7.2842 C   0  0  0  0  0  0  0  0  0  0  0  0
   -1.5644    7.8876   -8.3245 C   0  0  0  0  0  0  0  0  0  0  0  0
   -2.1949    7.5742   -9.5344 C   0  0  0  0  0  0  0  0  0  0  0  0
   -2.7741    6.3556   -9.8020 C   0  0  0  0  0  0  0  0  0  0  0  0
   -2.6809    5.4348   -8.7575 C   0  0  0  0  0  0  0  0  0  0  0  0
   -3.1835    4.0665   -8.6625 C   0  0  0  0  0  0  0  0  0  0  0  0
   -4.0075    3.4444   -9.5690 C   0  0  0  0  0  0  0  0  0  0  0  0
   -4.4199    4.0005  -10.7936 C   0  0  0  0  0  0  0  0  0  0  0  0
   -4.8082    4.3857  -11.8045 N   0  0  0  0  0  0  0  0  0  0  0  0
   -4.6205    2.1973   -9.3413 C   0  0  0  0  0  0  0  0  0  0  0  0
   -5.2034    1.2157   -9.2072 N   0  0  0  0  0  0  0  0  0  0  0  0
   -1.9090    8.9316  -10.1273 C   0  0  0  0  0  0  0  0  0  0  0  0
   -0.7536    9.0432  -11.1525 C   0  0  0  0  0  0  0  0  0  0  0  0
    0.2121    7.9291  -10.8340 C   0  0  0  0  0  0  0  0  0  0  0  0
    0.8081    8.2254   -9.6868 C   0  0  0  0  0  0  0  0  0  0  0  0
    0.2561    9.5457   -9.2091 C   0  0  0  0  0  0  0  0  0  0  0  0
    0.0077   10.2390  -10.5581 C   0  0  0  0  0  0  0  0  0  0  0  0
   -1.2076    9.2816   -8.7770 C   0  0  0  0  0  0  0  0  0  0  0  0
   -2.8190    1.8089   -5.6257 C   0  0  0  0  0  0  0  0  0  0  0  0
   -3.1143    2.4789   -4.4207 C   0  0  0  0  0  0  0  0  0  0  0  0
   -3.7945    3.6527   -4.2859 N   0  0  0  0  0  0  0  0  0  0  0  0
   -3.6903    4.3808   -3.0794 C   0  0  0  0  0  0  0  0  0  0  0  0
   -2.4440    4.7212   -2.5568 C   0  0  0  0  0  0  0  0  0  0  0  0
   -2.3649    5.4005   -1.3618 C   0  0  0  0  0  0  0  0  0  0  0  0
   -3.5236    5.7503   -0.6688 C   0  0  0  0  0  0  0  0  0  0  0  0
   -3.2942    6.5766    0.8726 S   0  0  0  0  0  0  0  0  0  0  0  0
   -4.9730    6.7105    1.5517 C   0  0  0  0  0  0  0  0  0  0  0  0
   -4.7657    5.4452   -1.2102 C   0  0  0  0  0  0  0  0  0  0  0  0
   -4.8455    4.7664   -2.4110 C   0  0  0  0  0  0  0  0  0  0  0  0
   -4.6052    4.1945   -5.2926 C   0  0  0  0  0  0  0  0  0  0  0  0
   -4.5527    5.5652   -5.5535 C   0  0  0  0  0  0  0  0  0  0  0  0
   -5.2838    6.1029   -6.5888 C   0  0  0  0  0  0  0  0  0  0  0  0
   -6.0966    5.2910   -7.3789 C   0  0  0  0  0  0  0  0  0  0  0  0
   -6.9113    6.0734   -8.7285 S   0  0  0  0  0  0  0  0  0  0  0  0
   -7.8093    4.7299   -9.5522 C   0  0  0  0  0  0  0  0  0  0  0  0
   -6.2083    3.9384   -7.0737 C   0  0  0  0  0  0  0  0  0  0  0  0
   -5.4656    3.3979   -6.0439 C   0  0  0  0  0  0  0  0  0  0  0  0
   -2.7043    1.6998   -3.3122 C   0  0  0  0  0  0  0  0  0  0  0  0
   -2.7398    1.9407   -1.5984 S   0  0  0  0  0  0  0  0  0  0  0  0
   -1.9286    0.4191   -1.3504 C   0  0  0  0  0  0  0  0  0  0  0  0
   -1.7561   -0.3039   -2.5190 C   0  0  0  0  0  0  0  0  0  0  0  0
   -1.2829   -1.6010   -2.5911 N   0  0  0  0  0  0  0  0  0  0  0  0
   -1.4374   -2.4735   -1.5069 C   0  0  0  0  0  0  0  0  0  0  0  0
   -2.6277   -2.5069   -0.7822 C   0  0  0  0  0  0  0  0  0  0  0  0
   -2.7429   -3.2905    0.3479 C   0  0  0  0  0  0  0  0  0  0  0  0
   -1.6728   -4.0691    0.7667 C   0  0  0  0  0  0  0  0  0  0  0  0
   -1.6962   -5.0289    2.2557 S   0  0  0  0  0  0  0  0  0  0  0  0
   -3.4625   -5.3683    2.5053 C   0  0  0  0  0  0  0  0  0  0  0  0
   -0.4993   -4.0799    0.0183 C   0  0  0  0  0  0  0  0  0  0  0  0
   -0.3822   -3.2949   -1.1076 C   0  0  0  0  0  0  0  0  0  0  0  0
   -0.5320   -2.0060   -3.7064 C   0  0  0  0  0  0  0  0  0  0  0  0
   -0.7010   -3.2886   -4.2273 C   0  0  0  0  0  0  0  0  0  0  0  0
    0.0154   -3.6852   -5.3330 C   0  0  0  0  0  0  0  0  0  0  0  0
    0.9113   -2.8105   -5.9465 C   0  0  0  0  0  0  0  0  0  0  0  0
    1.7629   -3.4306   -7.3631 S   0  0  0  0  0  0  0  0  0  0  0  0
    2.7042   -2.0009   -7.9669 C   0  0  0  0  0  0  0  0  0  0  0  0
    1.0916   -1.5388   -5.4221 C   0  0  0  0  0  0  0  0  0  0  0  0
    0.3774   -1.1429   -4.3074 C   0  0  0  0  0  0  0  0  0  0  0  0
   -2.1870    0.4530   -3.6377 C   0  0  0  0  0  0  0  0  0  0  0  0
   -2.2173    0.1669   -5.3377 S   0  0  0  0  0  0  0  0  0  0  0  0
   -1.4802    0.0457   -0.0238 C   0  0  0  0  0  0  0  0  0  0  0  0
   -0.2002   -0.4724    0.1563 C   0  0  0  0  0  0  0  0  0  0  0  0
    0.6546   -0.5045   -0.8839 F   0  0  0  0  0  0  0  0  0  0  0  0
    0.2206   -0.9190    1.3919 C   0  0  0  0  0  0  0  0  0  0  0  0
    1.4773   -1.3880    1.5166 F   0  0  0  0  0  0  0  0  0  0  0  0
   -0.6258   -0.8750    2.4955 C   0  0  0  0  0  0  0  0  0  0  0  0
   -1.9047   -0.3230    2.3345 C   0  0  0  0  0  0  0  0  0  0  0  0
   -2.7685   -0.2995    3.4086 O   0  0  0  0  0  0  0  0  0  0  0  0
   -3.3035   -1.5690    3.7667 C   0  0  0  0  0  0  0  0  0  0  0  0
   -3.7890   -1.5012    5.2041 C   0  0  0  0  0  0  0  0  0  0  0  0
   -2.3220    0.1755    1.0958 C   0  0  0  0  0  0  0  0  0  0  0  0
   -3.5517    0.7048    0.8463 O   0  0  0  0  0  0  0  0  0  0  0  0
   -4.0987    1.6497    1.7612 C   0  0  0  0  0  0  0  0  0  0  0  0
   -3.2201    2.8847    1.9048 C   0  0  0  0  0  0  0  0  0  0  0  0
   -0.1551   -1.3978    3.7889 C   0  0  0  0  0  0  0  0  0  0  0  0
    0.4737   -2.6346    3.8230 C   0  0  0  0  0  0  0  0  0  0  0  0
    0.9925   -3.0724    5.0303 C   0  0  0  0  0  0  0  0  0  0  0  0
    1.6929   -4.2153    5.3075 N   0  0  0  0  0  0  0  0  0  0  0  0
    2.0901   -5.2085    4.3435 C   0  0  0  0  0  0  0  0  0  0  0  0
    3.4312   -4.8575    3.7025 C   0  0  0  0  0  0  0  0  0  0  0  0
    2.1230   -4.1517    6.6081 C   0  0  0  0  0  0  0  0  0  0  0  0
    1.6062   -2.9794    7.2210 C   0  0  0  0  0  0  0  0  0  0  0  0
    0.8826   -2.2833    6.2046 C   0  0  0  0  0  0  0  0  0  0  0  0
    0.2175   -1.0618    6.1571 C   0  0  0  0  0  0  0  0  0  0  0  0
   -0.2920   -0.6271    4.9541 C   0  0  0  0  0  0  0  0  0  0  0  0
    1.8878   -2.7167    8.5598 C   0  0  0  0  0  0  0  0  0  0  0  0
    2.7147   -3.5756    9.2422 C   0  0  0  0  0  0  0  0  0  0  0  0
    3.3073   -4.6872    8.6055 C   0  0  0  0  0  0  0  0  0  0  0  0
    2.9695   -5.0053    7.2906 C   0  0  0  0  0  0  0  0  0  0  0  0
    4.2827   -5.4486    9.3402 C   0  0  0  0  0  0  0  0  0  0  0  0
    5.4389   -5.9667    8.8513 C   0  0  0  0  0  0  0  0  0  0  0  0
    6.0720   -5.6266    7.5475 C   0  0  0  0  0  0  0  0  0  0  0  0
    5.5717   -5.1166    6.5680 O   0  0  0  0  0  0  0  0  0  0  0  0
    7.4945   -5.9871    7.6981 C   0  0  0  0  0  0  0  0  0  0  0  0
    8.5119   -5.7446    6.7773 C   0  0  0  0  0  0  0  0  0  0  0  0
    9.7519   -6.1675    7.1898 C   0  0  0  0  0  0  0  0  0  0  0  0
    9.9683   -6.7884    8.4283 C   0  0  0  0  0  0  0  0  0  0  0  0
    8.9735   -7.0414    9.3419 C   0  0  0  0  0  0  0  0  0  0  0  0
    7.7028   -6.6161    8.9418 C   0  0  0  0  0  0  0  0  0  0  0  0
    6.4249   -6.6945    9.6375 C   0  0  0  0  0  0  0  0  0  0  0  0
    6.1693   -7.3965   10.7839 C   0  0  0  0  0  0  0  0  0  0  0  0
    7.1404   -8.1171   11.5099 C   0  0  0  0  0  0  0  0  0  0  0  0
    7.8849   -8.7152   12.1471 N   0  0  0  0  0  0  0  0  0  0  0  0
    4.8896   -7.5350   11.3640 C   0  0  0  0  0  0  0  0  0  0  0  0
    3.8780   -7.7123   11.8773 N   0  0  0  0  0  0  0  0  0  0  0  0
   11.4517   -6.9215    8.1913 C   0  0  0  0  0  0  0  0  0  0  0  0
   12.3892   -5.9221    8.9135 C   0  0  0  0  0  0  0  0  0  0  0  0
   11.5799   -4.6726    9.1575 C   0  0  0  0  0  0  0  0  0  0  0  0
   11.3746   -4.0876    7.9850 C   0  0  0  0  0  0  0  0  0  0  0  0
   12.0417   -4.9311    6.9267 C   0  0  0  0  0  0  0  0  0  0  0  0
   13.2449   -5.4617    7.7225 C   0  0  0  0  0  0  0  0  0  0  0  0
   11.2100   -6.2329    6.8112 C   0  0  0  0  0  0  0  0  0  0  0  0
   -2.9744    1.4457   -7.6984 H   0  0  0  0  0  0  0  0  0  0  0  0
   -0.9886    7.1979   -6.3372 H   0  0  0  0  0  0  0  0  0  0  0  0
   -3.2536    6.1243  -10.7388 H   0  0  0  0  0  0  0  0  0  0  0  0
   -2.7788    9.5179  -10.4169 H   0  0  0  0  0  0  0  0  0  0  0  0
   -1.0747    9.1185  -12.1880 H   0  0  0  0  0  0  0  0  0  0  0  0
    0.3169    7.0395  -11.4271 H   0  0  0  0  0  0  0  0  0  0  0  0
    1.5099    7.6326   -9.1298 H   0  0  0  0  0  0  0  0  0  0  0  0
    0.8550   10.0788   -8.4751 H   0  0  0  0  0  0  0  0  0  0  0  0
   -0.5971   11.1413  -10.4771 H   0  0  0  0  0  0  0  0  0  0  0  0
    0.9294   10.4608  -11.0942 H   0  0  0  0  0  0  0  0  0  0  0  0
   -1.6190   10.0977   -8.1859 H   0  0  0  0  0  0  0  0  0  0  0  0
   -1.5555    4.4609   -3.1095 H   0  0  0  0  0  0  0  0  0  0  0  0
   -1.4054    5.6670   -0.9461 H   0  0  0  0  0  0  0  0  0  0  0  0
   -4.8535    7.1408    2.5412 H   0  0  0  0  0  0  0  0  0  0  0  0
   -5.4193    5.7234    1.6288 H   0  0  0  0  0  0  0  0  0  0  0  0
   -5.5762    7.3710    0.9357 H   0  0  0  0  0  0  0  0  0  0  0  0
   -5.6776    5.7237   -0.7078 H   0  0  0  0  0  0  0  0  0  0  0  0
   -5.8112    4.5234   -2.8298 H   0  0  0  0  0  0  0  0  0  0  0  0
   -3.9140    6.1957   -4.9538 H   0  0  0  0  0  0  0  0  0  0  0  0
   -5.2181    7.1562   -6.8141 H   0  0  0  0  0  0  0  0  0  0  0  0
   -7.1168    3.9624   -9.8848 H   0  0  0  0  0  0  0  0  0  0  0  0
   -8.2838    5.1880  -10.4143 H   0  0  0  0  0  0  0  0  0  0  0  0
   -8.5642    4.3228   -8.8860 H   0  0  0  0  0  0  0  0  0  0  0  0
   -6.8584    3.2904   -7.6385 H   0  0  0  0  0  0  0  0  0  0  0  0
   -5.5484    2.3428   -5.8308 H   0  0  0  0  0  0  0  0  0  0  0  0
   -3.4624   -1.8971   -1.0938 H   0  0  0  0  0  0  0  0  0  0  0  0
   -3.6708   -3.2831    0.8974 H   0  0  0  0  0  0  0  0  0  0  0  0
   -3.9705   -4.4852    2.8825 H   0  0  0  0  0  0  0  0  0  0  0  0
   -3.8988   -5.7045    1.5698 H   0  0  0  0  0  0  0  0  0  0  0  0
   -3.5100   -6.1612    3.2452 H   0  0  0  0  0  0  0  0  0  0  0  0
    0.3268   -4.6967    0.3375 H   0  0  0  0  0  0  0  0  0  0  0  0
    0.5387   -3.2889   -1.6700 H   0  0  0  0  0  0  0  0  0  0  0  0
   -1.4007   -3.9658   -3.7605 H   0  0  0  0  0  0  0  0  0  0  0  0
   -0.1159   -4.6745   -5.7436 H   0  0  0  0  0  0  0  0  0  0  0  0
    3.4575   -1.7142   -7.2386 H   0  0  0  0  0  0  0  0  0  0  0  0
    2.0282   -1.1788   -8.1825 H   0  0  0  0  0  0  0  0  0  0  0  0
    3.1854   -2.3333   -8.8814 H   0  0  0  0  0  0  0  0  0  0  0  0
    1.7899   -0.8459   -5.8625 H   0  0  0  0  0  0  0  0  0  0  0  0
    0.5392   -0.1609   -3.8894 H   0  0  0  0  0  0  0  0  0  0  0  0
   -4.1377   -1.8035    3.0869 H   0  0  0  0  0  0  0  0  0  0  0  0
   -2.5347   -2.3434    3.6621 H   0  0  0  0  0  0  0  0  0  0  0  0
   -2.9488   -1.3100    5.8660 H   0  0  0  0  0  0  0  0  0  0  0  0
   -4.2533   -2.4435    5.4815 H   0  0  0  0  0  0  0  0  0  0  0  0
   -4.5138   -0.6995    5.3165 H   0  0  0  0  0  0  0  0  0  0  0  0
   -4.2668    1.1909    2.7392 H   0  0  0  0  0  0  0  0  0  0  0  0
   -5.0600    1.9109    1.3111 H   0  0  0  0  0  0  0  0  0  0  0  0
   -2.2621    2.6154    2.3440 H   0  0  0  0  0  0  0  0  0  0  0  0
   -3.0431    3.3388    0.9323 H   0  0  0  0  0  0  0  0  0  0  0  0
   -3.7068    3.6075    2.5533 H   0  0  0  0  0  0  0  0  0  0  0  0
    0.5577   -3.2284    2.9271 H   0  0  0  0  0  0  0  0  0  0  0  0
    1.3058   -5.2794    3.5850 H   0  0  0  0  0  0  0  0  0  0  0  0
    2.1576   -6.1735    4.8529 H   0  0  0  0  0  0  0  0  0  0  0  0
    3.3636   -3.8992    3.1924 H   0  0  0  0  0  0  0  0  0  0  0  0
    4.2046   -4.7945    4.4645 H   0  0  0  0  0  0  0  0  0  0  0  0
    3.7098   -5.6197    2.9798 H   0  0  0  0  0  0  0  0  0  0  0  0
    0.1255   -0.4547    7.0452 H   0  0  0  0  0  0  0  0  0  0  0  0
   -0.7833    0.3311    4.8876 H   0  0  0  0  0  0  0  0  0  0  0  0
    1.4730   -1.8464    9.0453 H   0  0  0  0  0  0  0  0  0  0  0  0
    2.9669   -3.3767   10.2734 H   0  0  0  0  0  0  0  0  0  0  0  0
    3.3566   -5.8995    6.8328 H   0  0  0  0  0  0  0  0  0  0  0  0
    4.1073   -5.5218   10.4079 H   0  0  0  0  0  0  0  0  0  0  0  0
    8.3027   -5.2617    5.8355 H   0  0  0  0  0  0  0  0  0  0  0  0
    9.1532   -7.5148   10.2929 H   0  0  0  0  0  0  0  0  0  0  0  0
   11.8460   -7.9356    8.1939 H   0  0  0  0  0  0  0  0  0  0  0  0
   12.9089   -6.3331    9.7748 H   0  0  0  0  0  0  0  0  0  0  0  0
   11.2032   -4.3816   10.1206 H   0  0  0  0  0  0  0  0  0  0  0  0
   10.7916   -3.2105    7.7726 H   0  0  0  0  0  0  0  0  0  0  0  0
   12.2453   -4.4396    5.9790 H   0  0  0  0  0  0  0  0  0  0  0  0
   13.9515   -4.6775    7.9900 H   0  0  0  0  0  0  0  0  0  0  0  0
   13.7698   -6.2758    7.2245 H   0  0  0  0  0  0  0  0  0  0  0  0
   11.4460   -6.7976    5.9113 H   0  0  0  0  0  0  0  0  0  0  0  0
  1  2  2  0  0  0  0
  2  3  1  0  0  0  0
  3  4  2  0  0  0  0
  3  5  1  0  0  0  0
  5  6  2  0  0  0  0
  6  7  1  0  0  0  0
  7  8  2  0  0  0  0
  8  9  1  0  0  0  0
  9 10  2  0  0  0  0
 10 11  1  0  0  0  0
 11 12  2  0  0  0  0
 12 13  1  0  0  0  0
 13 14  3  0  0  0  0
 12 15  1  0  0  0  0
 15 16  3  0  0  0  0
  8 17  1  0  0  0  0
 17 18  1  0  0  0  0
 18 19  1  0  0  0  0
 19 20  2  0  0  0  0
 20 21  1  0  0  0  0
 21 22  1  0  0  0  0
 21 23  1  0  0  0  0
  1 24  1  0  0  0  0
 24 25  2  0  0  0  0
 25 26  1  0  0  0  0
 26 27  1  0  0  0  0
 27 28  2  0  0  0  0
 28 29  1  0  0  0  0
 29 30  2  0  0  0  0
 30 31  1  0  0  0  0
 31 32  1  0  0  0  0
 30 33  1  0  0  0  0
 33 34  2  0  0  0  0
 26 35  1  0  0  0  0
 35 36  2  0  0  0  0
 36 37  1  0  0  0  0
 37 38  2  0  0  0  0
 38 39  1  0  0  0  0
 39 40  1  0  0  0  0
 38 41  1  0  0  0  0
 41 42  2  0  0  0  0
 25 43  1  0  0  0  0
 43 44  1  0  0  0  0
 44 45  1  0  0  0  0
 45 46  2  0  0  0  0
 46 47  1  0  0  0  0
 47 48  1  0  0  0  0
 48 49  2  0  0  0  0
 49 50  1  0  0  0  0
 50 51  2  0  0  0  0
 51 52  1  0  0  0  0
 52 53  1  0  0  0  0
 51 54  1  0  0  0  0
 54 55  2  0  0  0  0
 47 56  1  0  0  0  0
 56 57  2  0  0  0  0
 57 58  1  0  0  0  0
 58 59  2  0  0  0  0
 59 60  1  0  0  0  0
 60 61  1  0  0  0  0
 59 62  1  0  0  0  0
 62 63  2  0  0  0  0
 46 64  1  0  0  0  0
 64 65  1  0  0  0  0
 45 66  1  0  0  0  0
 66 67  2  0  0  0  0
 67 68  1  0  0  0  0
 67 69  1  0  0  0  0
 69 70  1  0  0  0  0
 69 71  2  0  0  0  0
 71 72  1  0  0  0  0
 72 73  1  0  0  0  0
 73 74  1  0  0  0  0
 74 75  1  0  0  0  0
 72 76  2  0  0  0  0
 76 77  1  0  0  0  0
 77 78  1  0  0  0  0
 78 79  1  0  0  0  0
 71 80  1  0  0  0  0
 80 81  2  0  0  0  0
 81 82  1  0  0  0  0
 82 83  1  0  0  0  0
 83 84  1  0  0  0  0
 84 85  1  0  0  0  0
 83 86  1  0  0  0  0
 86 87  2  0  0  0  0
 87 88  1  0  0  0  0
 88 89  1  0  0  0  0
 89 90  2  0  0  0  0
 87 91  1  0  0  0  0
 91 92  2  0  0  0  0
 92 93  1  0  0  0  0
 93 94  2  0  0  0  0
 93 95  1  0  0  0  0
 95 96  2  0  0  0  0
 96 97  1  0  0  0  0
 97 98  2  0  0  0  0
 97 99  1  0  0  0  0
 99100  2  0  0  0  0
100101  1  0  0  0  0
101102  2  0  0  0  0
102103  1  0  0  0  0
103104  2  0  0  0  0
104105  1  0  0  0  0
105106  2  0  0  0  0
106107  1  0  0  0  0
107108  3  0  0  0  0
106109  1  0  0  0  0
109110  3  0  0  0  0
102111  1  0  0  0  0
111112  1  0  0  0  0
112113  1  0  0  0  0
113114  2  0  0  0  0
114115  1  0  0  0  0
115116  1  0  0  0  0
115117  1  0  0  0  0
 11  2  1  0  0  0  0
 23 17  1  0  0  0  0
 65 24  1  0  0  0  0
 76 66  1  0  0  0  0
 90 80  1  0  0  0  0
105 96  1  0  0  0  0
117111  1  0  0  0  0
 10  5  1  0  0  0  0
 22 18  1  0  0  0  0
 34 27  1  0  0  0  0
 42 35  1  0  0  0  0
 64 43  2  0  0  0  0
 88 82  2  0  0  0  0
104 99  1  0  0  0  0
116112  1  0  0  0  0
 23  7  1  0  0  0  0
 55 48  1  0  0  0  0
 63 56  1  0  0  0  0
 94 86  1  0  0  0  0
117101  1  0  0  0  0
  1118  1  0  0  0  0
  6119  1  0  0  0  0
  9120  1  0  0  0  0
 17121  1  0  0  0  0
 18122  1  0  0  0  0
 19123  1  0  0  0  0
 20124  1  0  0  0  0
 21125  1  0  0  0  0
 22126  1  0  0  0  0
 22127  1  0  0  0  0
 23128  1  0  0  0  0
 28129  1  0  0  0  0
 29130  1  0  0  0  0
 32131  1  0  0  0  0
 32132  1  0  0  0  0
 32133  1  0  0  0  0
 33134  1  0  0  0  0
 34135  1  0  0  0  0
 36136  1  0  0  0  0
 37137  1  0  0  0  0
 40138  1  0  0  0  0
 40139  1  0  0  0  0
 40140  1  0  0  0  0
 41141  1  0  0  0  0
 42142  1  0  0  0  0
 49143  1  0  0  0  0
 50144  1  0  0  0  0
 53145  1  0  0  0  0
 53146  1  0  0  0  0
 53147  1  0  0  0  0
 54148  1  0  0  0  0
 55149  1  0  0  0  0
 57150  1  0  0  0  0
 58151  1  0  0  0  0
 61152  1  0  0  0  0
 61153  1  0  0  0  0
 61154  1  0  0  0  0
 62155  1  0  0  0  0
 63156  1  0  0  0  0
 74157  1  0  0  0  0
 74158  1  0  0  0  0
 75159  1  0  0  0  0
 75160  1  0  0  0  0
 75161  1  0  0  0  0
 78162  1  0  0  0  0
 78163  1  0  0  0  0
 79164  1  0  0  0  0
 79165  1  0  0  0  0
 79166  1  0  0  0  0
 81167  1  0  0  0  0
 84168  1  0  0  0  0
 84169  1  0  0  0  0
 85170  1  0  0  0  0
 85171  1  0  0  0  0
 85172  1  0  0  0  0
 89173  1  0  0  0  0
 90174  1  0  0  0  0
 91175  1  0  0  0  0
 92176  1  0  0  0  0
 94177  1  0  0  0  0
 95178  1  0  0  0  0
100179  1  0  0  0  0
103180  1  0  0  0  0
111181  1  0  0  0  0
112182  1  0  0  0  0
113183  1  0  0  0  0
114184  1  0  0  0  0
115185  1  0  0  0  0
116186  1  0  0  0  0
116187  1  0  0  0  0
117188  1  0  0  0  0
M  END
