172

C         -5.62630        3.09000       -2.17580
C         -5.57020        4.38000       -2.62610
C         -6.57760        5.36090       -2.15980
O         -7.64490        5.11980       -1.63820
C         -5.97190        6.68640       -2.41110
C         -6.47220        7.92910       -2.02990
C         -5.65970        8.98690       -2.36290
C         -4.43720        8.82510       -3.02700
C         -3.93710        7.60700       -3.42290
C         -4.74850        6.51900       -3.09380
C         -4.57380        5.09570       -3.37910
C         -3.79370        4.56750       -4.38180
C         -2.82200        5.30030       -5.08000
N         -1.99350        5.86840       -5.63830
C         -3.97830        3.25360       -4.85580
N         -4.17810        2.21410       -5.30250
C         -4.14310       10.30480       -3.01630
C         -3.12190       10.79850       -1.96970
C         -3.39490       12.28190       -1.86940
C         -4.55500       12.43710       -1.24430
C         -5.08510       11.06120       -0.91110
C         -3.76380       10.32310       -0.65990
C         -5.50860       10.48620       -2.27930
C         -4.59380        2.14850       -2.05780
C         -4.73600        0.84120       -1.55740
N         -5.92900        0.20190       -1.37210
C         -6.02490       -0.78450       -0.37340
C         -6.66400       -1.99350       -0.62700
C         -6.75090       -2.96040        0.35490
C         -6.19330       -2.73440        1.60770
S         -6.23910       -3.88860        2.93610
C         -6.94700       -5.38640        2.19320
C         -5.56190       -1.51820        1.86710
C         -5.48150       -0.55210        0.89090
C         -7.02680        0.42040       -2.22730
C         -8.32190        0.40530       -1.71170
C         -9.39910        0.61310       -2.54390
C         -9.20710        0.84270       -3.90520
S        -10.65860        1.10070       -4.87170
C        -10.01720        1.58420       -6.49950
C         -7.91710        0.84380       -4.42180
C         -6.83680        0.62910       -3.59040
C         -3.47340        0.25210       -1.30890
S         -2.93300       -1.24910       -0.64090
C         -1.26480       -0.80520       -0.93330
C         -1.13320        0.45410       -1.49440
N          0.03530        1.10800       -1.84940
C          1.21670        0.92930       -1.12940
C          2.44950        0.86300       -1.77570
C          3.59800        0.56000       -1.07430
C          3.53870        0.31200        0.29000
S          4.95420       -0.17100        1.23140
C          5.92480       -1.08590       -0.00740
C          2.32650        0.45930        0.95770
C          1.18190        0.77550        0.25920
C          0.02640        1.74730       -3.10500
C          0.68530        2.95620       -3.30010
C          0.68200        3.56690       -4.54080
C          0.00710        2.98320       -5.60610
S         -0.00260        3.61450       -7.24930
C          0.76460        5.25150       -7.10200
C         -0.68010        1.78670       -5.40400
C         -0.66530        1.17250       -4.17310
C         -2.40290        1.04790       -1.68220
S         -2.89810        2.58410       -2.28170
C         -0.18140       -1.65120       -0.47920
C         -0.14950       -2.14800        0.80850
F         -1.20060       -1.96460        1.62390
C          0.99150       -2.76000        1.34490
F          0.92070       -3.17940        2.61000
C          2.15170       -2.90770        0.60900
C          2.11060       -2.51850       -0.75660
N          3.19100       -2.68770       -1.54030
C          3.11600       -2.41070       -2.81930
C          4.34870       -2.71150       -3.61900
C          4.36060       -4.18810       -4.02550
C          1.90060       -1.93860       -3.39100
N          0.86970       -1.67600       -2.62530
C          0.94250       -1.92960       -1.30780
C          1.71770       -1.73540       -4.86540
C          2.27660       -0.39710       -5.35530
C          3.37420       -3.38550        1.25270
C          4.33540       -4.17360        0.60440
C          5.44020       -4.55170        1.33210
C          5.50450       -4.14410        2.67180
N          4.56270       -3.35510        3.19760
N          3.54550       -2.99040        2.51400
C          6.59360       -4.51150        3.55270
C          6.47000       -4.72870        4.87460
C          7.66260       -4.70710        5.77710
O          8.81740       -4.83890        5.44700
C          7.11620       -4.42700        7.11530
C          7.83490       -4.13780        8.27520
C          7.04940       -3.87700        9.37130
C          5.64720       -3.89810        9.32510
C          4.92360       -4.18830        8.19410
C          5.70410       -4.46080        7.06740
C          5.28670       -4.82180        5.71890
C          4.08640       -5.37000        5.36940
C          3.01650       -5.56450        6.26900
N          2.12770       -5.76180        6.96710
C          3.81640       -5.90590        4.09230
N          3.57750       -6.40440        3.08630
C          5.51450       -3.51530       10.77700
C          5.13790       -2.04830       11.10170
C          5.62520       -1.21360        9.94310
C          6.95060       -1.19350        9.98810
C          7.38380       -2.01480       11.17750
C          6.22240       -1.72680       12.14230
C          7.07470       -3.49250       10.82960
H         -6.57290        2.81190       -1.72340
H         -7.41950        8.01260       -1.52060
H         -2.99450        7.49100       -3.93210
H         -4.01140       10.77000       -3.99150
H         -2.09410       10.50180       -2.16080
H         -2.76490       13.03850       -2.29940
H         -5.08740       13.34920       -1.04780
H         -5.84580       11.00430       -0.13720
H         -3.24060       10.70240        0.21650
H         -3.86710        9.24240       -0.58300
H         -6.28760       11.07130       -2.76470
H         -7.09070       -2.17730       -1.60180
H         -7.25120       -3.88730        0.12690
H         -6.91600       -6.14010        2.97380
H         -6.33820       -5.70220        1.35140
H         -7.97620       -5.20920        1.89520
H         -5.13810       -1.34420        2.84360
H         -5.00310        0.39270        1.10190
H         -8.47530        0.24210       -0.65550
H        -10.40240        0.61210       -2.14740
H         -9.49940        0.74930       -6.96270
H         -9.36480        2.44600       -6.39540
H        -10.88890        1.84880       -7.08990
H         -7.73310        1.00210       -5.47150
H         -5.84120        0.63450       -4.00770
H          2.50410        1.02440       -2.84070
H          4.53530        0.50120       -1.60470
H          5.25500       -1.73210       -0.56900
H          6.45510       -0.39820       -0.66020
H          6.64060       -1.67940        0.55310
H          2.29360        0.30860        2.02550
H          0.24480        0.88610        0.78410
H          1.21050        3.41530       -2.47540
H          1.20570        4.50110       -4.66250
H          0.18300        5.85080       -6.40880
H          1.80100        5.15480       -6.79140
H          0.71650        5.68390       -8.09640
H         -1.21330        1.34140       -6.22920
H         -1.17330        0.23070       -4.03350
H          5.22200       -2.51150       -2.99540
H          4.40010       -2.08630       -4.50820
H          4.34050       -4.82130       -3.14200
H          5.26000       -4.41160       -4.59350
H          3.49480       -4.43000       -4.63790
H          0.64770       -1.76090       -5.07330
H          2.20030       -2.55060       -5.40710
H          1.71720        0.42510       -4.91920
H          3.32680       -0.28150       -5.09670
H          2.17860       -0.33420       -6.43610
H          4.19400       -4.47310       -0.42040
H          6.21220       -5.17820        0.91160
H          7.59200       -4.53590        3.13200
H          8.91360       -4.12710        8.27090
H          3.84650       -4.19070        8.16210
H          4.99220       -4.22820       11.41160
H          4.10200       -1.90350       11.39580
H          4.97910       -0.78490        9.19990
H          7.63210       -0.74360        9.29010
H          8.39250       -1.83820       11.54160
H          6.19590       -0.68900       12.47070
H          6.20290       -2.38740       13.00810
H          7.57270       -4.19010       11.50000
