190

C         -4.63970       -2.43720       -1.16200
C         -3.67920       -3.35930       -1.48410
C         -2.25740       -3.06920       -1.71020
O         -1.68420       -2.00170       -1.57340
C         -1.63690       -4.32970       -2.14090
C         -0.30450       -4.52100       -2.49750
C         -0.00130       -5.81800       -2.83380
C         -0.95210       -6.84730       -2.81130
C         -2.27360       -6.66610       -2.47480
C         -2.60750       -5.35230       -2.13290
C         -3.88570       -4.77760       -1.71310
C         -5.05070       -5.47860       -1.53380
C         -6.26920       -4.94240       -1.06800
N         -7.29350       -4.59470       -0.67970
C         -5.19560       -6.86160       -1.77040
N         -5.39340       -7.97940       -1.94420
C          0.05460       -7.89150       -3.22430
C          0.61760       -8.82250       -2.12100
C          0.53950       -8.05540       -0.82430
C          1.44240       -7.08500       -0.87180
C          2.14530       -7.17550       -2.20320
C          2.12020       -8.69690       -2.41950
C          1.10950       -6.74080       -3.26880
C         -4.50140       -1.06630       -0.88070
C         -5.57310       -0.23460       -0.58530
C         -5.24370        1.09060       -0.27070
C         -6.29600        2.09500       -0.08290
C         -6.23020        3.34400       -0.72050
O         -5.05870        3.64910       -1.33640
C         -4.95600        4.88150       -2.02780
C         -3.52710        5.03410       -2.52330
C         -7.34650        4.17480       -0.72440
C         -8.49990        3.78660       -0.07350
C         -8.55930        2.59530        0.62400
C         -7.46010        1.74590        0.62520
O         -7.41390        0.56590        1.29570
C         -8.55200        0.11500        2.00300
C         -8.22250       -1.25890        2.56660
C         -3.86960        1.27930       -0.33060
S         -3.01800       -0.16730       -0.79920
C         -2.94580        2.34190       -0.05430
C         -2.66110        3.01360        1.12190
N         -3.49140        3.02000        2.24970
C         -4.64190        3.81500        2.22460
C         -5.81010        3.40760        2.86120
C         -6.92970        4.21490        2.86200
C         -6.90680        5.43710        2.20540
S         -8.27870        6.54360        2.11960
C         -9.59130        5.68860        3.03520
C         -5.74600        5.84010        1.55050
C         -4.62560        5.04060        1.55950
C         -3.03870        2.38950        3.40540
C         -2.11210        1.34900        3.31970
C         -1.64940        0.71300        4.45520
C         -2.10980        1.09600        5.70650
S         -1.61440        0.32170        7.21950
C         -0.01060       -0.41850        6.80080
C         -3.03030        2.13650        5.80130
C         -3.47770        2.78430        4.67210
C         -1.34750        3.54870        1.10640
S         -0.27660        4.21440        2.30030
C          1.07930        4.09470        1.20150
C          0.70110        3.61570       -0.05130
N          1.57470        3.20280       -1.07030
C          1.78740        1.82510       -1.16620
C          1.85150        1.05180       -0.00730
C          2.11190       -0.30100       -0.06980
C          2.30960       -0.90940       -1.29750
S          2.70320       -2.62270       -1.46570
C          3.46290       -3.03670        0.12890
C          2.18570       -0.16080       -2.46320
C          1.92190        1.18770       -2.40070
C          1.94650        4.09340       -2.07890
C          3.13310        3.90660       -2.78600
C          3.50890        4.79450       -3.77260
C          2.71410        5.89720       -4.05890
S          3.08660        7.09460       -5.30430
C          4.75500        6.64380       -5.86020
C          1.54060        6.09950       -3.33850
C          1.15870        5.20890       -2.36000
C         -0.66600        3.29660       -0.07640
S         -1.63540        2.44710       -1.21760
C          2.42920        3.94800        1.66110
C          3.53210        4.09120        0.81490
F          3.50170        5.03620       -0.14140
C          4.65660        3.29170        0.91070
C          4.76220        2.34940        1.92650
C          3.83320        2.44150        3.00590
N          4.00270        1.68280        4.10860
C          3.13440        1.77960        5.07030
C          2.01330        2.65220        4.97670
O          1.21150        2.76420        6.02720
C          0.17640        3.74580        5.94910
C         -0.41100        3.91990        7.33650
N          1.78470        3.34030        3.88150
C          2.67980        3.25590        2.88340
C          5.72470        1.29150        1.95700
C          6.16540        0.57030        0.89060
C          5.57000        0.56110       -0.47280
O          4.81010        1.36730       -0.96940
C          6.07800       -0.66520       -1.11910
C          5.76310       -1.12750       -2.39650
C          6.46290       -2.24790       -2.77890
C          7.40600       -2.86880       -1.94770
C          7.71180       -2.43740       -0.67910
C          7.01380       -1.29620       -0.27250
C          7.11630       -0.52800        0.96270
C          8.00710       -0.74730        1.97900
C          8.17100        0.09340        3.10210
N          8.39680        0.73640        4.02590
C          8.91820       -1.82300        2.02530
N          9.67280       -2.68180        2.13180
C          7.79790       -3.87210       -3.00300
C          7.27090       -5.32240       -2.89420
C          5.96620       -5.25420       -2.14030
C          5.07070       -4.67640       -2.93010
C          5.75480       -4.33750       -4.22980
C          6.74490       -5.51000       -4.32680
C          6.74430       -3.18580       -3.92860
H         -5.66340       -2.78510       -1.09860
H          0.39830       -3.70280       -2.48860
H         -2.99210       -7.46860       -2.47340
H         -0.15970       -8.42800       -4.14650
H          0.18940       -9.82120       -2.11300
H         -0.18190       -8.25630       -0.05390
H          1.62510       -6.30960       -0.15110
H          3.10750       -6.67550       -2.27610
H          2.38750       -8.99530       -3.43220
H          2.73870       -9.23470       -1.70250
H          1.57090       -6.50990       -4.22680
H         -6.58620       -0.59220       -0.62210
H         -5.20790        5.71080       -1.35450
H         -5.65330        4.89020       -2.87680
H         -3.24990        4.18280       -3.13850
H         -2.84260        5.09020       -1.68150
H         -3.43930        5.94320       -3.11120
H         -7.33250        5.12120       -1.23760
H         -9.36320        4.43420       -0.10200
H         -9.46410        2.32710        1.14550
H         -8.79170        0.81360        2.81730
H         -9.41770        0.04910        1.32980
H         -9.06270       -1.63240        3.14470
H         -8.01070       -1.95440        1.75900
H         -7.34680       -1.19590        3.20680
H         -5.83980        2.44790        3.35460
H         -7.81580        3.87420        3.37230
H         -9.29680        5.55700        4.07240
H        -10.45870        6.33900        2.97920
H         -9.81020        4.73640        2.56120
H         -5.73440        6.79640        1.04900
H         -3.72400        5.36570        1.06230
H         -1.75730        1.02190        2.35330
H         -0.93780       -0.09060        4.34790
H          0.61400        0.33250        6.32720
H          0.42790       -0.72580        7.74510
H         -0.14700       -1.28590        6.16120
H         -3.38160        2.44010        6.77530
H         -4.16300        3.61180        4.76970
H          1.71150        1.50720        0.96080
H          2.16580       -0.86610        0.84810
H          3.98620       -3.97570       -0.02240
H          2.69880       -3.15620        0.89210
H          4.16950       -2.25790        0.40100
H          2.29650       -0.65130       -3.41880
H          1.82020        1.75740       -3.31130
H          3.77170        3.07320       -2.53600
H          4.43250        4.62160       -4.30150
H          4.73740        5.67730       -6.35560
H          5.04540        7.41400       -6.56800
H          5.43600        6.64260       -5.01430
H          0.93090        6.96240       -3.55870
H          0.24540        5.37640       -1.80910
H          5.42860        3.39660        0.16720
H          3.29590        1.18280        5.95620
H          0.60550        4.68080        5.57300
H         -0.58110        3.40920        5.23320
H         -1.22360        4.63870        7.29610
H         -0.79330        2.97160        7.70330
H          0.34950        4.27810        8.02520
H          6.01040        0.97770        2.95380
H          5.04460       -0.60570       -3.00900
H          8.44320       -2.92220       -0.05420
H          8.84140       -3.83630       -3.31080
H          7.99930       -6.04150       -2.52920
H          5.84980       -5.58110       -1.12280
H          4.05350       -4.41130       -2.71330
H          5.10220       -4.16020       -5.08050
H          7.50890       -5.37320       -5.09070
H          6.24890       -6.46880       -4.47120
H          7.10560       -2.70870       -4.83820
