
  xtb     02132206093D
 energy: -350.399982653346 gnorm: 0.000464718378 xtb: 6.4.1 (unknown)
217239  0     0  0            999 V2000
    2.5950    6.8660    6.9670 C   0  0  0  0  0  0  0  0  0  0  0  0
    2.2570    8.1482    7.2923 C   0  0  0  0  0  0  0  0  0  0  0  0
    1.3681    9.0954    6.5754 C   0  0  0  0  0  0  0  0  0  0  0  0
    0.5771    8.8716    5.6822 O   0  0  0  0  0  0  0  0  0  0  0  0
    1.6087   10.4146    7.1878 C   0  0  0  0  0  0  0  0  0  0  0  0
    1.0645   11.6301    6.7785 C   0  0  0  0  0  0  0  0  0  0  0  0
    1.4816   12.7074    7.5215 C   0  0  0  0  0  0  0  0  0  0  0  0
    2.3746   12.5851    8.5952 C   0  0  0  0  0  0  0  0  0  0  0  0
    2.9105   11.3914    9.0148 C   0  0  0  0  0  0  0  0  0  0  0  0
    2.4972   10.2810    8.2719 C   0  0  0  0  0  0  0  0  0  0  0  0
    2.8440    8.8703    8.4137 C   0  0  0  0  0  0  0  0  0  0  0  0
    3.5443    8.3351    9.4625 C   0  0  0  0  0  0  0  0  0  0  0  0
    4.0683    9.0868   10.5361 C   0  0  0  0  0  0  0  0  0  0  0  0
    4.5268    9.6257   11.4403 N   0  0  0  0  0  0  0  0  0  0  0  0
    3.8136    6.9654    9.6753 C   0  0  0  0  0  0  0  0  0  0  0  0
    4.0673    5.8792    9.9497 N   0  0  0  0  0  0  0  0  0  0  0  0
    2.3735   14.0681    8.8687 C   0  0  0  0  0  0  0  0  0  0  0  0
    3.5965   14.8898    8.3912 C   0  0  0  0  0  0  0  0  0  0  0  0
    4.1818   14.1457    7.2166 C   0  0  0  0  0  0  0  0  0  0  0  0
    3.3358   14.2611    6.2017 C   0  0  0  0  0  0  0  0  0  0  0  0
    2.1631   15.0860    6.6717 C   0  0  0  0  0  0  0  0  0  0  0  0
    2.8728   16.0293    7.6560 C   0  0  0  0  0  0  0  0  0  0  0  0
    1.3776   14.2042    7.6740 C   0  0  0  0  0  0  0  0  0  0  0  0
    2.1989    6.0356    5.8938 C   0  0  0  0  0  0  0  0  0  0  0  0
    1.3100    6.2097    4.8621 C   0  0  0  0  0  0  0  0  0  0  0  0
    1.2538    5.1245    3.9681 C   0  0  0  0  0  0  0  0  0  0  0  0
    0.4303    4.9933    2.8267 C   0  0  0  0  0  0  0  0  0  0  0  0
   -0.4411    6.0441    2.3531 C   0  0  0  0  0  0  0  0  0  0  0  0
   -1.6767    5.9064    1.7758 C   0  0  0  0  0  0  0  0  0  0  0  0
   -2.2364    7.1158    1.3374 C   0  0  0  0  0  0  0  0  0  0  0  0
   -1.4201    8.1877    1.5691 C   0  0  0  0  0  0  0  0  0  0  0  0
   -1.6440    9.8740    1.1694 S   0  0  0  0  0  0  0  0  0  0  0  0
   -3.4672   10.0062    1.0891 C   0  0  0  0  0  0  0  0  0  0  0  0
   -4.1147    9.7851    2.4415 C   0  0  0  0  0  0  0  0  0  0  0  0
    0.0489    7.7186    2.3570 S   0  0  0  0  0  0  0  0  0  0  0  0
    0.5229    3.7890    2.1414 C   0  0  0  0  0  0  0  0  0  0  0  0
    1.3831    2.7270    2.5167 C   0  0  0  0  0  0  0  0  0  0  0  0
    2.2033    2.8532    3.6593 C   0  0  0  0  0  0  0  0  0  0  0  0
    3.0958    1.8068    4.1031 C   0  0  0  0  0  0  0  0  0  0  0  0
    4.3397    1.9406    4.6603 C   0  0  0  0  0  0  0  0  0  0  0  0
    4.9276    0.7264    5.0436 C   0  0  0  0  0  0  0  0  0  0  0  0
    4.1268   -0.3541    4.7961 C   0  0  0  0  0  0  0  0  0  0  0  0
    4.5446   -2.0096    5.1387 S   0  0  0  0  0  0  0  0  0  0  0  0
    2.9669   -2.8583    4.7608 C   0  0  0  0  0  0  0  0  0  0  0  0
    3.0677   -4.3205    5.1431 C   0  0  0  0  0  0  0  0  0  0  0  0
    2.6313    0.1219    4.0545 S   0  0  0  0  0  0  0  0  0  0  0  0
    2.1177    4.0619    4.3482 C   0  0  0  0  0  0  0  0  0  0  0  0
    2.9932    4.4643    5.7934 S   0  0  0  0  0  0  0  0  0  0  0  0
    1.3386    1.6700    1.5786 C   0  0  0  0  0  0  0  0  0  0  0  0
    0.4983    1.8989    0.5227 C   0  0  0  0  0  0  0  0  0  0  0  0
   -0.3157    3.4411    0.6556 S   0  0  0  0  0  0  0  0  0  0  0  0
    0.2508    1.0335   -0.5792 C   0  0  0  0  0  0  0  0  0  0  0  0
   -0.5049    1.2662   -1.7160 C   0  0  0  0  0  0  0  0  0  0  0  0
   -1.2884    2.5043   -1.8979 C   0  0  0  0  0  0  0  0  0  0  0  0
   -2.6439    2.5016   -1.5528 C   0  0  0  0  0  0  0  0  0  0  0  0
   -3.3591    3.6869   -1.6221 C   0  0  0  0  0  0  0  0  0  0  0  0
   -2.7616    4.8731   -2.0197 C   0  0  0  0  0  0  0  0  0  0  0  0
   -3.5519    6.1475   -2.1019 C   0  0  0  0  0  0  0  0  0  0  0  0
   -4.0992    6.3491   -3.5161 C   0  0  0  0  0  0  0  0  0  0  0  0
   -1.4266    4.8492   -2.3886 C   0  0  0  0  0  0  0  0  0  0  0  0
   -0.6807    3.6815   -2.3389 C   0  0  0  0  0  0  0  0  0  0  0  0
    0.7527    3.7141   -2.7881 C   0  0  0  0  0  0  0  0  0  0  0  0
    0.8206    3.8197   -4.3110 C   0  0  0  0  0  0  0  0  0  0  0  0
   -3.3311    1.2571   -1.0589 C   0  0  0  0  0  0  0  0  0  0  0  0
   -3.2271    1.1320    0.4623 C   0  0  0  0  0  0  0  0  0  0  0  0
   -0.5250    0.1687   -2.5905 C   0  0  0  0  0  0  0  0  0  0  0  0
    0.1728   -0.9229   -2.1243 C   0  0  0  0  0  0  0  0  0  0  0  0
    0.9290   -0.5715   -0.5942 S   0  0  0  0  0  0  0  0  0  0  0  0
    0.1951   -2.2568   -2.6177 C   0  0  0  0  0  0  0  0  0  0  0  0
   -0.0658   -2.7426   -3.8930 C   0  0  0  0  0  0  0  0  0  0  0  0
   -0.1745   -1.9747   -5.0397 N   0  0  0  0  0  0  0  0  0  0  0  0
    0.7296   -0.9410   -5.3058 C   0  0  0  0  0  0  0  0  0  0  0  0
    0.3649    0.1028   -6.1589 C   0  0  0  0  0  0  0  0  0  0  0  0
    1.2616    1.1026   -6.4606 C   0  0  0  0  0  0  0  0  0  0  0  0
    2.5381    1.1035   -5.9011 C   0  0  0  0  0  0  0  0  0  0  0  0
    3.6079    2.4274   -6.3731 S   0  0  0  0  0  0  0  0  0  0  0  0
    5.0462    2.2344   -5.2822 C   0  0  0  0  0  0  0  0  0  0  0  0
    2.8983    0.0816   -5.0352 C   0  0  0  0  0  0  0  0  0  0  0  0
    2.0049   -0.9315   -4.7475 C   0  0  0  0  0  0  0  0  0  0  0  0
   -1.0690   -2.4169   -6.0314 C   0  0  0  0  0  0  0  0  0  0  0  0
   -2.3540   -2.8198   -5.6668 C   0  0  0  0  0  0  0  0  0  0  0  0
   -3.2319   -3.2847   -6.6194 C   0  0  0  0  0  0  0  0  0  0  0  0
   -2.8509   -3.3515   -7.9583 C   0  0  0  0  0  0  0  0  0  0  0  0
   -4.0614   -3.9593   -9.0880 S   0  0  0  0  0  0  0  0  0  0  0  0
   -3.1859   -4.0260  -10.6766 C   0  0  0  0  0  0  0  0  0  0  0  0
   -1.5753   -2.9433   -8.3256 C   0  0  0  0  0  0  0  0  0  0  0  0
   -0.6916   -2.4856   -7.3683 C   0  0  0  0  0  0  0  0  0  0  0  0
   -0.1694   -4.1545   -3.8807 C   0  0  0  0  0  0  0  0  0  0  0  0
   -0.4730   -5.3383   -5.0961 S   0  0  0  0  0  0  0  0  0  0  0  0
   -0.4099   -6.6350   -3.8896 C   0  0  0  0  0  0  0  0  0  0  0  0
   -0.0601   -6.1518   -2.6127 C   0  0  0  0  0  0  0  0  0  0  0  0
    0.2298   -6.8709   -1.4843 N   0  0  0  0  0  0  0  0  0  0  0  0
    0.0958   -6.1999   -0.2461 C   0  0  0  0  0  0  0  0  0  0  0  0
   -1.0929   -5.5433    0.0614 C   0  0  0  0  0  0  0  0  0  0  0  0
   -1.1780   -4.7675    1.1992 C   0  0  0  0  0  0  0  0  0  0  0  0
   -0.0756   -4.6430    2.0346 C   0  0  0  0  0  0  0  0  0  0  0  0
   -0.0983   -3.5414    3.4240 S   0  0  0  0  0  0  0  0  0  0  0  0
   -0.8121   -2.0545    2.6544 C   0  0  0  0  0  0  0  0  0  0  0  0
    1.0775   -5.3761    1.7801 C   0  0  0  0  0  0  0  0  0  0  0  0
    1.1646   -6.1543    0.6443 C   0  0  0  0  0  0  0  0  0  0  0  0
    0.6637   -8.1973   -1.4622 C   0  0  0  0  0  0  0  0  0  0  0  0
    1.4786   -8.7331   -2.4572 C   0  0  0  0  0  0  0  0  0  0  0  0
    1.8365  -10.0678   -2.4361 C   0  0  0  0  0  0  0  0  0  0  0  0
    1.3861  -10.8970   -1.4158 C   0  0  0  0  0  0  0  0  0  0  0  0
    1.6844  -12.6289   -1.3289 S   0  0  0  0  0  0  0  0  0  0  0  0
    2.7296  -12.9838   -2.7675 C   0  0  0  0  0  0  0  0  0  0  0  0
    0.6264  -10.3484   -0.3818 C   0  0  0  0  0  0  0  0  0  0  0  0
    0.2694   -9.0216   -0.4031 C   0  0  0  0  0  0  0  0  0  0  0  0
    0.0385   -4.7393   -2.6394 C   0  0  0  0  0  0  0  0  0  0  0  0
    0.4239   -3.5440   -1.4481 S   0  0  0  0  0  0  0  0  0  0  0  0
   -0.6744   -7.9243   -4.3598 C   0  0  0  0  0  0  0  0  0  0  0  0
   -1.0924   -8.9940   -3.6004 C   0  0  0  0  0  0  0  0  0  0  0  0
   -1.8594   -8.8762   -2.3488 C   0  0  0  0  0  0  0  0  0  0  0  0
   -2.2321   -7.8500   -1.8086 O   0  0  0  0  0  0  0  0  0  0  0  0
   -2.2069  -10.2593   -1.9619 C   0  0  0  0  0  0  0  0  0  0  0  0
   -2.9017  -10.6679   -0.8275 C   0  0  0  0  0  0  0  0  0  0  0  0
   -3.0449  -12.0312   -0.7183 C   0  0  0  0  0  0  0  0  0  0  0  0
   -2.5603  -12.9245   -1.6814 C   0  0  0  0  0  0  0  0  0  0  0  0
   -1.8822  -12.5347   -2.8116 C   0  0  0  0  0  0  0  0  0  0  0  0
   -1.7047  -11.1541   -2.9272 C   0  0  0  0  0  0  0  0  0  0  0  0
   -0.9941  -10.3855   -3.9441 C   0  0  0  0  0  0  0  0  0  0  0  0
   -0.2081  -10.9040   -4.9450 C   0  0  0  0  0  0  0  0  0  0  0  0
    0.6198  -10.1275   -5.7793 C   0  0  0  0  0  0  0  0  0  0  0  0
    1.3588   -9.5679   -6.4587 N   0  0  0  0  0  0  0  0  0  0  0  0
   -0.0410  -12.2763   -5.2038 C   0  0  0  0  0  0  0  0  0  0  0  0
    0.1663  -13.3777   -5.4594 N   0  0  0  0  0  0  0  0  0  0  0  0
   -3.0645  -14.1334   -0.9328 C   0  0  0  0  0  0  0  0  0  0  0  0
   -2.0093  -14.9555   -0.1639 C   0  0  0  0  0  0  0  0  0  0  0  0
   -2.8213  -15.7428    0.8385 C   0  0  0  0  0  0  0  0  0  0  0  0
   -3.2598  -14.8931    1.7586 C   0  0  0  0  0  0  0  0  0  0  0  0
   -2.7534  -13.5167    1.3914 C   0  0  0  0  0  0  0  0  0  0  0  0
   -1.4061  -13.8912    0.7607 C   0  0  0  0  0  0  0  0  0  0  0  0
   -3.5901  -13.1375    0.1504 C   0  0  0  0  0  0  0  0  0  0  0  0
    3.3297    6.3918    7.6078 H   0  0  0  0  0  0  0  0  0  0  0  0
    0.3837   11.6774    5.9429 H   0  0  0  0  0  0  0  0  0  0  0  0
    3.5982   11.3164    9.8403 H   0  0  0  0  0  0  0  0  0  0  0  0
    2.0308   14.3707    9.8562 H   0  0  0  0  0  0  0  0  0  0  0  0
    4.2915   15.1642    9.1802 H   0  0  0  0  0  0  0  0  0  0  0  0
    5.0947   13.5811    7.2602 H   0  0  0  0  0  0  0  0  0  0  0  0
    3.4000   13.8115    5.2281 H   0  0  0  0  0  0  0  0  0  0  0  0
    1.5532   15.5395    5.8947 H   0  0  0  0  0  0  0  0  0  0  0  0
    2.1878   16.5894    8.2912 H   0  0  0  0  0  0  0  0  0  0  0  0
    3.5596   16.7146    7.1616 H   0  0  0  0  0  0  0  0  0  0  0  0
    0.3837   14.5962    7.8815 H   0  0  0  0  0  0  0  0  0  0  0  0
    0.7110    7.0960    4.7708 H   0  0  0  0  0  0  0  0  0  0  0  0
   -2.1912    4.9663    1.6933 H   0  0  0  0  0  0  0  0  0  0  0  0
   -3.1989    7.1774    0.8648 H   0  0  0  0  0  0  0  0  0  0  0  0
   -3.8262    9.3030    0.3389 H   0  0  0  0  0  0  0  0  0  0  0  0
   -3.6385   11.0212    0.7314 H   0  0  0  0  0  0  0  0  0  0  0  0
   -3.7314   10.5008    3.1648 H   0  0  0  0  0  0  0  0  0  0  0  0
   -3.9091    8.7818    2.8086 H   0  0  0  0  0  0  0  0  0  0  0  0
   -5.1924    9.9127    2.3606 H   0  0  0  0  0  0  0  0  0  0  0  0
    4.8384    2.8871    4.7624 H   0  0  0  0  0  0  0  0  0  0  0  0
    5.8997    0.6395    5.4918 H   0  0  0  0  0  0  0  0  0  0  0  0
    2.1822   -2.3591    5.3290 H   0  0  0  0  0  0  0  0  0  0  0  0
    2.7739   -2.7355    3.6949 H   0  0  0  0  0  0  0  0  0  0  0  0
    2.1147   -4.8077    4.9490 H   0  0  0  0  0  0  0  0  0  0  0  0
    3.8475   -4.8156    4.5685 H   0  0  0  0  0  0  0  0  0  0  0  0
    3.3022   -4.4217    6.1999 H   0  0  0  0  0  0  0  0  0  0  0  0
    1.9279    0.7738    1.6516 H   0  0  0  0  0  0  0  0  0  0  0  0
   -4.4048    3.6843   -1.3461 H   0  0  0  0  0  0  0  0  0  0  0  0
   -4.3853    6.1123   -1.3966 H   0  0  0  0  0  0  0  0  0  0  0  0
   -2.9108    6.9924   -1.8402 H   0  0  0  0  0  0  0  0  0  0  0  0
   -3.2830    6.3964   -4.2332 H   0  0  0  0  0  0  0  0  0  0  0  0
   -4.6701    7.2729   -3.5779 H   0  0  0  0  0  0  0  0  0  0  0  0
   -4.7477    5.5203   -3.7914 H   0  0  0  0  0  0  0  0  0  0  0  0
   -0.9472    5.7643   -2.7062 H   0  0  0  0  0  0  0  0  0  0  0  0
    1.2762    2.8125   -2.4653 H   0  0  0  0  0  0  0  0  0  0  0  0
    1.2520    4.5770   -2.3410 H   0  0  0  0  0  0  0  0  0  0  0  0
    0.2989    4.7092   -4.6556 H   0  0  0  0  0  0  0  0  0  0  0  0
    0.3540    2.9491   -4.7664 H   0  0  0  0  0  0  0  0  0  0  0  0
    1.8523    3.8740   -4.6477 H   0  0  0  0  0  0  0  0  0  0  0  0
   -2.8931    0.3710   -1.5217 H   0  0  0  0  0  0  0  0  0  0  0  0
   -4.3861    1.2980   -1.3389 H   0  0  0  0  0  0  0  0  0  0  0  0
   -3.7809    0.2620    0.8085 H   0  0  0  0  0  0  0  0  0  0  0  0
   -2.1897    1.0247    0.7696 H   0  0  0  0  0  0  0  0  0  0  0  0
   -3.6356    2.0177    0.9431 H   0  0  0  0  0  0  0  0  0  0  0  0
   -1.0759    0.1655   -3.5137 H   0  0  0  0  0  0  0  0  0  0  0  0
   -0.6253    0.1202   -6.5893 H   0  0  0  0  0  0  0  0  0  0  0  0
    0.9829    1.9000   -7.1323 H   0  0  0  0  0  0  0  0  0  0  0  0
    4.7249    2.2392   -4.2448 H   0  0  0  0  0  0  0  0  0  0  0  0
    5.5836    1.3226   -5.5264 H   0  0  0  0  0  0  0  0  0  0  0  0
    5.6782    3.0953   -5.4774 H   0  0  0  0  0  0  0  0  0  0  0  0
    3.8788    0.0474   -4.5885 H   0  0  0  0  0  0  0  0  0  0  0  0
    2.3148   -1.7339   -4.0953 H   0  0  0  0  0  0  0  0  0  0  0  0
   -2.6551   -2.7681   -4.6306 H   0  0  0  0  0  0  0  0  0  0  0  0
   -4.2250   -3.6005   -6.3395 H   0  0  0  0  0  0  0  0  0  0  0  0
   -2.3197   -4.6758  -10.5938 H   0  0  0  0  0  0  0  0  0  0  0  0
   -3.8957   -4.4459  -11.3826 H   0  0  0  0  0  0  0  0  0  0  0  0
   -2.9035   -3.0254  -10.9909 H   0  0  0  0  0  0  0  0  0  0  0  0
   -1.2496   -2.9861   -9.3520 H   0  0  0  0  0  0  0  0  0  0  0  0
    0.3041   -2.1856   -7.6588 H   0  0  0  0  0  0  0  0  0  0  0  0
   -1.9353   -5.6505   -0.6044 H   0  0  0  0  0  0  0  0  0  0  0  0
   -2.0959   -4.2490    1.4278 H   0  0  0  0  0  0  0  0  0  0  0  0
   -1.8953   -2.1233    2.6213 H   0  0  0  0  0  0  0  0  0  0  0  0
   -0.5133   -1.2174    3.2774 H   0  0  0  0  0  0  0  0  0  0  0  0
   -0.3972   -1.9441    1.6572 H   0  0  0  0  0  0  0  0  0  0  0  0
    1.9140   -5.3034    2.4567 H   0  0  0  0  0  0  0  0  0  0  0  0
    2.0711   -6.6970    0.4206 H   0  0  0  0  0  0  0  0  0  0  0  0
    1.8359   -8.1064   -3.2605 H   0  0  0  0  0  0  0  0  0  0  0  0
    2.4555  -10.4488   -3.2327 H   0  0  0  0  0  0  0  0  0  0  0  0
    2.9706  -14.0397   -2.6945 H   0  0  0  0  0  0  0  0  0  0  0  0
    2.1811  -12.8003   -3.6866 H   0  0  0  0  0  0  0  0  0  0  0  0
    3.6397  -12.3935   -2.7193 H   0  0  0  0  0  0  0  0  0  0  0  0
    0.3036  -10.9846    0.4277 H   0  0  0  0  0  0  0  0  0  0  0  0
   -0.3442   -8.6139    0.3854 H   0  0  0  0  0  0  0  0  0  0  0  0
   -0.5552   -8.0626   -5.4279 H   0  0  0  0  0  0  0  0  0  0  0  0
   -3.2703   -9.9486   -0.1127 H   0  0  0  0  0  0  0  0  0  0  0  0
   -1.5207  -13.2307   -3.5503 H   0  0  0  0  0  0  0  0  0  0  0  0
   -3.7864  -14.7522   -1.4625 H   0  0  0  0  0  0  0  0  0  0  0  0
   -1.3237  -15.5172   -0.7919 H   0  0  0  0  0  0  0  0  0  0  0  0
   -3.0328  -16.7922    0.7490 H   0  0  0  0  0  0  0  0  0  0  0  0
   -3.9112  -15.0908    2.5898 H   0  0  0  0  0  0  0  0  0  0  0  0
   -2.7480  -12.7711    2.1824 H   0  0  0  0  0  0  0  0  0  0  0  0
   -0.7153  -14.3187    1.4852 H   0  0  0  0  0  0  0  0  0  0  0  0
   -0.9158  -13.0790    0.2283 H   0  0  0  0  0  0  0  0  0  0  0  0
   -4.6591  -13.1026    0.3534 H   0  0  0  0  0  0  0  0  0  0  0  0
  1  2  2  0  0  0  0
  2  3  1  0  0  0  0
  3  4  2  0  0  0  0
  3  5  1  0  0  0  0
  5  6  2  0  0  0  0
  6  7  1  0  0  0  0
  7  8  2  0  0  0  0
  8  9  1  0  0  0  0
  9 10  2  0  0  0  0
 10 11  1  0  0  0  0
 11 12  2  0  0  0  0
 12 13  1  0  0  0  0
 13 14  3  0  0  0  0
 12 15  1  0  0  0  0
 15 16  3  0  0  0  0
  8 17  1  0  0  0  0
 17 18  1  0  0  0  0
 18 19  1  0  0  0  0
 19 20  2  0  0  0  0
 20 21  1  0  0  0  0
 21 22  1  0  0  0  0
 21 23  1  0  0  0  0
  1 24  1  0  0  0  0
 24 25  2  0  0  0  0
 25 26  1  0  0  0  0
 26 27  2  0  0  0  0
 27 28  1  0  0  0  0
 28 29  2  0  0  0  0
 29 30  1  0  0  0  0
 30 31  2  0  0  0  0
 31 32  1  0  0  0  0
 32 33  1  0  0  0  0
 33 34  1  0  0  0  0
 31 35  1  0  0  0  0
 27 36  1  0  0  0  0
 36 37  2  0  0  0  0
 37 38  1  0  0  0  0
 38 39  1  0  0  0  0
 39 40  2  0  0  0  0
 40 41  1  0  0  0  0
 41 42  2  0  0  0  0
 42 43  1  0  0  0  0
 43 44  1  0  0  0  0
 44 45  1  0  0  0  0
 42 46  1  0  0  0  0
 38 47  2  0  0  0  0
 47 48  1  0  0  0  0
 37 49  1  0  0  0  0
 49 50  2  0  0  0  0
 50 51  1  0  0  0  0
 50 52  1  0  0  0  0
 52 53  2  0  0  0  0
 53 54  1  0  0  0  0
 54 55  2  0  0  0  0
 55 56  1  0  0  0  0
 56 57  2  0  0  0  0
 57 58  1  0  0  0  0
 58 59  1  0  0  0  0
 57 60  1  0  0  0  0
 60 61  2  0  0  0  0
 61 62  1  0  0  0  0
 62 63  1  0  0  0  0
 55 64  1  0  0  0  0
 64 65  1  0  0  0  0
 53 66  1  0  0  0  0
 66 67  2  0  0  0  0
 67 68  1  0  0  0  0
 67 69  1  0  0  0  0
 69 70  2  0  0  0  0
 70 71  1  0  0  0  0
 71 72  1  0  0  0  0
 72 73  2  0  0  0  0
 73 74  1  0  0  0  0
 74 75  2  0  0  0  0
 75 76  1  0  0  0  0
 76 77  1  0  0  0  0
 75 78  1  0  0  0  0
 78 79  2  0  0  0  0
 71 80  1  0  0  0  0
 80 81  2  0  0  0  0
 81 82  1  0  0  0  0
 82 83  2  0  0  0  0
 83 84  1  0  0  0  0
 84 85  1  0  0  0  0
 83 86  1  0  0  0  0
 86 87  2  0  0  0  0
 70 88  1  0  0  0  0
 88 89  1  0  0  0  0
 89 90  1  0  0  0  0
 90 91  2  0  0  0  0
 91 92  1  0  0  0  0
 92 93  1  0  0  0  0
 93 94  2  0  0  0  0
 94 95  1  0  0  0  0
 95 96  2  0  0  0  0
 96 97  1  0  0  0  0
 97 98  1  0  0  0  0
 96 99  1  0  0  0  0
 99100  2  0  0  0  0
 92101  1  0  0  0  0
101102  2  0  0  0  0
102103  1  0  0  0  0
103104  2  0  0  0  0
104105  1  0  0  0  0
105106  1  0  0  0  0
104107  1  0  0  0  0
107108  2  0  0  0  0
 91109  1  0  0  0  0
109110  1  0  0  0  0
 90111  1  0  0  0  0
111112  2  0  0  0  0
112113  1  0  0  0  0
113114  2  0  0  0  0
113115  1  0  0  0  0
115116  2  0  0  0  0
116117  1  0  0  0  0
117118  2  0  0  0  0
118119  1  0  0  0  0
119120  2  0  0  0  0
120121  1  0  0  0  0
121122  2  0  0  0  0
122123  1  0  0  0  0
123124  3  0  0  0  0
122125  1  0  0  0  0
125126  3  0  0  0  0
118127  1  0  0  0  0
127128  1  0  0  0  0
128129  1  0  0  0  0
129130  2  0  0  0  0
130131  1  0  0  0  0
131132  1  0  0  0  0
131133  1  0  0  0  0
 11  2  1  0  0  0  0
 23 17  1  0  0  0  0
 48 24  1  0  0  0  0
 68 52  1  0  0  0  0
110 69  1  0  0  0  0
121112  1  0  0  0  0
133127  1  0  0  0  0
 10  5  1  0  0  0  0
 22 18  1  0  0  0  0
 47 26  1  0  0  0  0
 61 54  1  0  0  0  0
 79 72  1  0  0  0  0
 87 80  1  0  0  0  0
109 88  2  0  0  0  0
120115  1  0  0  0  0
132128  1  0  0  0  0
 23  7  1  0  0  0  0
 35 28  1  0  0  0  0
 51 36  1  0  0  0  0
100 93  1  0  0  0  0
108101  1  0  0  0  0
133117  1  0  0  0  0
 46 39  1  0  0  0  0
  1134  1  0  0  0  0
  6135  1  0  0  0  0
  9136  1  0  0  0  0
 17137  1  0  0  0  0
 18138  1  0  0  0  0
 19139  1  0  0  0  0
 20140  1  0  0  0  0
 21141  1  0  0  0  0
 22142  1  0  0  0  0
 22143  1  0  0  0  0
 23144  1  0  0  0  0
 25145  1  0  0  0  0
 29146  1  0  0  0  0
 30147  1  0  0  0  0
 33148  1  0  0  0  0
 33149  1  0  0  0  0
 34150  1  0  0  0  0
 34151  1  0  0  0  0
 34152  1  0  0  0  0
 40153  1  0  0  0  0
 41154  1  0  0  0  0
 44155  1  0  0  0  0
 44156  1  0  0  0  0
 45157  1  0  0  0  0
 45158  1  0  0  0  0
 45159  1  0  0  0  0
 49160  1  0  0  0  0
 56161  1  0  0  0  0
 58162  1  0  0  0  0
 58163  1  0  0  0  0
 59164  1  0  0  0  0
 59165  1  0  0  0  0
 59166  1  0  0  0  0
 60167  1  0  0  0  0
 62168  1  0  0  0  0
 62169  1  0  0  0  0
 63170  1  0  0  0  0
 63171  1  0  0  0  0
 63172  1  0  0  0  0
 64173  1  0  0  0  0
 64174  1  0  0  0  0
 65175  1  0  0  0  0
 65176  1  0  0  0  0
 65177  1  0  0  0  0
 66178  1  0  0  0  0
 73179  1  0  0  0  0
 74180  1  0  0  0  0
 77181  1  0  0  0  0
 77182  1  0  0  0  0
 77183  1  0  0  0  0
 78184  1  0  0  0  0
 79185  1  0  0  0  0
 81186  1  0  0  0  0
 82187  1  0  0  0  0
 85188  1  0  0  0  0
 85189  1  0  0  0  0
 85190  1  0  0  0  0
 86191  1  0  0  0  0
 87192  1  0  0  0  0
 94193  1  0  0  0  0
 95194  1  0  0  0  0
 98195  1  0  0  0  0
 98196  1  0  0  0  0
 98197  1  0  0  0  0
 99198  1  0  0  0  0
100199  1  0  0  0  0
102200  1  0  0  0  0
103201  1  0  0  0  0
106202  1  0  0  0  0
106203  1  0  0  0  0
106204  1  0  0  0  0
107205  1  0  0  0  0
108206  1  0  0  0  0
111207  1  0  0  0  0
116208  1  0  0  0  0
119209  1  0  0  0  0
127210  1  0  0  0  0
128211  1  0  0  0  0
129212  1  0  0  0  0
130213  1  0  0  0  0
131214  1  0  0  0  0
132215  1  0  0  0  0
132216  1  0  0  0  0
133217  1  0  0  0  0
M  END
