
  xtb     02052208033D
 energy: -293.780713066921 gnorm: 0.000449045241 xtb: 6.4.1 (unknown)
174193  0     0  0            999 V2000
    3.2369    2.4661   -4.7905 C   0  0  0  0  0  0  0  0  0  0  0  0
    4.4307    3.1489   -4.7777 C   0  0  0  0  0  0  0  0  0  0  0  0
    5.4224    3.1638   -3.7006 C   0  0  0  0  0  0  0  0  0  0  0  0
    5.3005    2.7334   -2.5637 O   0  0  0  0  0  0  0  0  0  0  0  0
    6.6268    3.8056   -4.2567 C   0  0  0  0  0  0  0  0  0  0  0  0
    7.8451    4.0136   -3.6155 C   0  0  0  0  0  0  0  0  0  0  0  0
    8.7814    4.6588   -4.3873 C   0  0  0  0  0  0  0  0  0  0  0  0
    8.5289    5.0641   -5.7038 C   0  0  0  0  0  0  0  0  0  0  0  0
    7.3349    4.8538   -6.3531 C   0  0  0  0  0  0  0  0  0  0  0  0
    6.3681    4.2014   -5.5847 C   0  0  0  0  0  0  0  0  0  0  0  0
    4.9933    3.8339   -5.9181 C   0  0  0  0  0  0  0  0  0  0  0  0
    4.3644    4.1120   -7.1076 C   0  0  0  0  0  0  0  0  0  0  0  0
    2.9978    3.9149   -7.3783 C   0  0  0  0  0  0  0  0  0  0  0  0
    1.8918    3.8320   -7.6841 N   0  0  0  0  0  0  0  0  0  0  0  0
    4.9909    4.6681   -8.2405 C   0  0  0  0  0  0  0  0  0  0  0  0
    5.4205    5.0847   -9.2213 N   0  0  0  0  0  0  0  0  0  0  0  0
    9.9013    5.6679   -5.8655 C   0  0  0  0  0  0  0  0  0  0  0  0
   10.0239    7.2094   -5.7757 C   0  0  0  0  0  0  0  0  0  0  0  0
    8.8774    7.6827   -4.9169 C   0  0  0  0  0  0  0  0  0  0  0  0
    9.1181    7.2968   -3.6710 C   0  0  0  0  0  0  0  0  0  0  0  0
   10.4320    6.5549   -3.6651 C   0  0  0  0  0  0  0  0  0  0  0  0
   11.1798    7.3200   -4.7685 C   0  0  0  0  0  0  0  0  0  0  0  0
   10.1836    5.2135   -4.3986 C   0  0  0  0  0  0  0  0  0  0  0  0
    2.6160    1.7001   -3.8036 C   0  0  0  0  0  0  0  0  0  0  0  0
    1.4465    0.9320   -4.0242 C   0  0  0  0  0  0  0  0  0  0  0  0
    0.8452    0.7023   -5.2347 N   0  0  0  0  0  0  0  0  0  0  0  0
   -0.5506    0.5316   -5.2643 C   0  0  0  0  0  0  0  0  0  0  0  0
   -1.3699    1.3623   -4.5049 C   0  0  0  0  0  0  0  0  0  0  0  0
   -2.7389    1.1863   -4.4958 C   0  0  0  0  0  0  0  0  0  0  0  0
   -3.3130    0.1771   -5.2578 C   0  0  0  0  0  0  0  0  0  0  0  0
   -5.0426   -0.1527   -5.3174 S   0  0  0  0  0  0  0  0  0  0  0  0
   -5.7412    0.9497   -4.0551 C   0  0  0  0  0  0  0  0  0  0  0  0
   -2.4965   -0.6383   -6.0417 C   0  0  0  0  0  0  0  0  0  0  0  0
   -1.1311   -0.4668   -6.0455 C   0  0  0  0  0  0  0  0  0  0  0  0
    1.5769    0.5802   -6.4283 C   0  0  0  0  0  0  0  0  0  0  0  0
    1.0629    1.0844   -7.6191 C   0  0  0  0  0  0  0  0  0  0  0  0
    1.8110    1.0373   -8.7795 C   0  0  0  0  0  0  0  0  0  0  0  0
    3.0924    0.5051   -8.7600 C   0  0  0  0  0  0  0  0  0  0  0  0
    4.1674    0.5021  -10.1583 S   0  0  0  0  0  0  0  0  0  0  0  0
    3.4705    1.8038  -11.2146 C   0  0  0  0  0  0  0  0  0  0  0  0
    3.5816   -0.0634   -7.5834 C   0  0  0  0  0  0  0  0  0  0  0  0
    2.8289   -0.0389   -6.4327 C   0  0  0  0  0  0  0  0  0  0  0  0
    0.9581    0.4077   -2.8135 C   0  0  0  0  0  0  0  0  0  0  0  0
   -0.3507   -0.6548   -2.4045 S   0  0  0  0  0  0  0  0  0  0  0  0
    0.1055   -0.5877   -0.7143 C   0  0  0  0  0  0  0  0  0  0  0  0
    1.2410    0.1696   -0.4952 C   0  0  0  0  0  0  0  0  0  0  0  0
    1.8495    0.3478    0.7368 N   0  0  0  0  0  0  0  0  0  0  0  0
    2.6749    1.4713    0.9238 C   0  0  0  0  0  0  0  0  0  0  0  0
    2.2355    2.7419    0.5577 C   0  0  0  0  0  0  0  0  0  0  0  0
    3.0876    3.8238    0.6373 C   0  0  0  0  0  0  0  0  0  0  0  0
    4.3892    3.6489    1.0806 C   0  0  0  0  0  0  0  0  0  0  0  0
    5.5042    5.0295    1.0512 S   0  0  0  0  0  0  0  0  0  0  0  0
    6.8538    4.2789    0.0847 C   0  0  0  0  0  0  0  0  0  0  0  0
    4.8125    2.3991    1.5115 C   0  0  0  0  0  0  0  0  0  0  0  0
    3.9617    1.3171    1.4345 C   0  0  0  0  0  0  0  0  0  0  0  0
    1.8833   -0.6945    1.6746 C   0  0  0  0  0  0  0  0  0  0  0  0
    1.7291   -0.4094    3.0279 C   0  0  0  0  0  0  0  0  0  0  0  0
    1.7416   -1.4231    3.9663 C   0  0  0  0  0  0  0  0  0  0  0  0
    1.9185   -2.7397    3.5618 C   0  0  0  0  0  0  0  0  0  0  0  0
    1.9360   -4.1168    4.6747 S   0  0  0  0  0  0  0  0  0  0  0  0
    2.3630   -3.3598    6.2694 C   0  0  0  0  0  0  0  0  0  0  0  0
    2.0805   -3.0281    2.2100 C   0  0  0  0  0  0  0  0  0  0  0  0
    2.0685   -2.0176    1.2757 C   0  0  0  0  0  0  0  0  0  0  0  0
    1.7207    0.7406   -1.7030 C   0  0  0  0  0  0  0  0  0  0  0  0
    3.1184    1.6705   -2.1113 S   0  0  0  0  0  0  0  0  0  0  0  0
   -0.6068   -1.3961    0.2681 C   0  0  0  0  0  0  0  0  0  0  0  0
   -0.6360   -2.7853    0.1054 C   0  0  0  0  0  0  0  0  0  0  0  0
   -1.1512   -3.6107    1.0755 C   0  0  0  0  0  0  0  0  0  0  0  0
   -1.6465   -3.1041    2.2843 C   0  0  0  0  0  0  0  0  0  0  0  0
   -1.6341   -1.7199    2.4733 C   0  0  0  0  0  0  0  0  0  0  0  0
   -2.0687   -0.8430    3.5456 C   0  0  0  0  0  0  0  0  0  0  0  0
   -2.3817   -0.9308    4.8566 C   0  0  0  0  0  0  0  0  0  0  0  0
   -2.2542   -2.0149    5.7895 C   0  0  0  0  0  0  0  0  0  0  0  0
   -1.2369   -3.0140    5.7634 C   0  0  0  0  0  0  0  0  0  0  0  0
   -1.3269   -3.8827    6.7948 C   0  0  0  0  0  0  0  0  0  0  0  0
   -2.6659   -3.5335    7.8250 S   0  0  0  0  0  0  0  0  0  0  0  0
   -3.0757   -2.1698    6.8782 C   0  0  0  0  0  0  0  0  0  0  0  0
   -2.0483    0.5300    2.9683 C   0  0  0  0  0  0  0  0  0  0  0  0
   -2.4235    1.5610    3.4826 O   0  0  0  0  0  0  0  0  0  0  0  0
   -1.4497    0.4430    1.7325 N   0  0  0  0  0  0  0  0  0  0  0  0
   -1.4814    1.5655    0.8254 C   0  0  0  0  0  0  0  0  0  0  0  0
   -2.6071    1.4373   -0.1977 C   0  0  0  0  0  0  0  0  0  0  0  0
   -1.1934   -0.8803    1.4203 C   0  0  0  0  0  0  0  0  0  0  0  0
   -2.2044   -4.0538    3.2253 C   0  0  0  0  0  0  0  0  0  0  0  0
   -1.6313   -5.2553    3.5844 C   0  0  0  0  0  0  0  0  0  0  0  0
   -2.4039   -5.9452    4.5115 C   0  0  0  0  0  0  0  0  0  0  0  0
   -1.9113   -7.4310    5.2038 Cl  0  0  0  0  0  0  0  0  0  0  0  0
   -3.5955   -5.2988    4.8627 C   0  0  0  0  0  0  0  0  0  0  0  0
   -3.7471   -3.8150    3.9559 S   0  0  0  0  0  0  0  0  0  0  0  0
   -4.4508   -5.7645    5.8738 C   0  0  0  0  0  0  0  0  0  0  0  0
   -5.6101   -5.2273    6.3586 C   0  0  0  0  0  0  0  0  0  0  0  0
   -6.3172   -4.0649    5.8070 C   0  0  0  0  0  0  0  0  0  0  0  0
   -5.9447   -3.3293    4.9089 O   0  0  0  0  0  0  0  0  0  0  0  0
   -7.5885   -3.9698    6.5420 C   0  0  0  0  0  0  0  0  0  0  0  0
   -8.6133   -3.0495    6.3294 C   0  0  0  0  0  0  0  0  0  0  0  0
   -9.7013   -3.2256    7.1498 C   0  0  0  0  0  0  0  0  0  0  0  0
   -9.7663   -4.2418    8.1129 C   0  0  0  0  0  0  0  0  0  0  0  0
   -8.7593   -5.1498    8.3397 C   0  0  0  0  0  0  0  0  0  0  0  0
   -7.6415   -4.9891    7.5151 C   0  0  0  0  0  0  0  0  0  0  0  0
   -6.3938   -5.7481    7.4635 C   0  0  0  0  0  0  0  0  0  0  0  0
   -6.0149   -6.7202    8.3508 C   0  0  0  0  0  0  0  0  0  0  0  0
   -4.7664   -7.3790    8.3631 C   0  0  0  0  0  0  0  0  0  0  0  0
   -3.7737   -7.9476    8.4651 N   0  0  0  0  0  0  0  0  0  0  0  0
   -6.8135   -7.1796    9.4195 C   0  0  0  0  0  0  0  0  0  0  0  0
   -7.4089   -7.6060   10.3038 N   0  0  0  0  0  0  0  0  0  0  0  0
  -11.1523   -3.8444    8.5553 C   0  0  0  0  0  0  0  0  0  0  0  0
  -12.3149   -4.7221    8.0449 C   0  0  0  0  0  0  0  0  0  0  0  0
  -13.5339   -3.8457    8.2213 C   0  0  0  0  0  0  0  0  0  0  0  0
  -13.4725   -2.8813    7.3121 C   0  0  0  0  0  0  0  0  0  0  0  0
  -12.2111   -3.0899    6.5054 C   0  0  0  0  0  0  0  0  0  0  0  0
  -12.1366   -4.6222    6.5243 C   0  0  0  0  0  0  0  0  0  0  0  0
  -11.0791   -2.7098    7.4835 C   0  0  0  0  0  0  0  0  0  0  0  0
    2.6914    2.5011   -5.7245 H   0  0  0  0  0  0  0  0  0  0  0  0
    8.0063    3.6847   -2.6008 H   0  0  0  0  0  0  0  0  0  0  0  0
    7.1563    5.1652   -7.3689 H   0  0  0  0  0  0  0  0  0  0  0  0
   10.5179    5.2483   -6.6578 H   0  0  0  0  0  0  0  0  0  0  0  0
   10.1440    7.7087   -6.7333 H   0  0  0  0  0  0  0  0  0  0  0  0
    8.0085    8.1839   -5.3013 H   0  0  0  0  0  0  0  0  0  0  0  0
    8.4900    7.4123   -2.8070 H   0  0  0  0  0  0  0  0  0  0  0  0
   10.9248    6.4583   -2.7010 H   0  0  0  0  0  0  0  0  0  0  0  0
   12.0919    6.8244   -5.0984 H   0  0  0  0  0  0  0  0  0  0  0  0
   11.4001    8.3499   -4.4916 H   0  0  0  0  0  0  0  0  0  0  0  0
   10.9841    4.4948   -4.2331 H   0  0  0  0  0  0  0  0  0  0  0  0
   -0.9288    2.1562   -3.9202 H   0  0  0  0  0  0  0  0  0  0  0  0
   -3.3441    1.8468   -3.8969 H   0  0  0  0  0  0  0  0  0  0  0  0
   -6.7985    0.7078   -4.0106 H   0  0  0  0  0  0  0  0  0  0  0  0
   -5.2759    0.7512   -3.0941 H   0  0  0  0  0  0  0  0  0  0  0  0
   -5.6152    1.9870   -4.3514 H   0  0  0  0  0  0  0  0  0  0  0  0
   -2.9501   -1.4152   -6.6374 H   0  0  0  0  0  0  0  0  0  0  0  0
   -0.5032   -1.1104   -6.6429 H   0  0  0  0  0  0  0  0  0  0  0  0
    0.0855    1.5404   -7.6312 H   0  0  0  0  0  0  0  0  0  0  0  0
    1.3934    1.4486   -9.6831 H   0  0  0  0  0  0  0  0  0  0  0  0
    4.2316    2.0179  -11.9583 H   0  0  0  0  0  0  0  0  0  0  0  0
    3.2776    2.6897  -10.6169 H   0  0  0  0  0  0  0  0  0  0  0  0
    2.5669    1.4516  -11.7038 H   0  0  0  0  0  0  0  0  0  0  0  0
    4.5612   -0.5161   -7.5866 H   0  0  0  0  0  0  0  0  0  0  0  0
    3.2169   -0.4703   -5.5220 H   0  0  0  0  0  0  0  0  0  0  0  0
    1.2334    2.8807    0.1812 H   0  0  0  0  0  0  0  0  0  0  0  0
    2.7567    4.8044    0.3332 H   0  0  0  0  0  0  0  0  0  0  0  0
    7.4729    3.6525    0.7206 H   0  0  0  0  0  0  0  0  0  0  0  0
    6.4107    3.7006   -0.7215 H   0  0  0  0  0  0  0  0  0  0  0  0
    7.4424    5.1014   -0.3097 H   0  0  0  0  0  0  0  0  0  0  0  0
    5.8156    2.2657    1.8861 H   0  0  0  0  0  0  0  0  0  0  0  0
    4.2979    0.3380    1.7432 H   0  0  0  0  0  0  0  0  0  0  0  0
    1.5913    0.6146    3.3423 H   0  0  0  0  0  0  0  0  0  0  0  0
    1.6036   -1.1748    5.0069 H   0  0  0  0  0  0  0  0  0  0  0  0
    3.2214   -2.7082    6.1384 H   0  0  0  0  0  0  0  0  0  0  0  0
    2.6194   -4.1841    6.9274 H   0  0  0  0  0  0  0  0  0  0  0  0
    1.5126   -2.8183    6.6743 H   0  0  0  0  0  0  0  0  0  0  0  0
    2.2297   -4.0523    1.9050 H   0  0  0  0  0  0  0  0  0  0  0  0
    2.2221   -2.2448    0.2318 H   0  0  0  0  0  0  0  0  0  0  0  0
   -0.2332   -3.2067   -0.8035 H   0  0  0  0  0  0  0  0  0  0  0  0
   -1.1879   -4.6756    0.9088 H   0  0  0  0  0  0  0  0  0  0  0  0
   -2.7557   -0.0030    5.2810 H   0  0  0  0  0  0  0  0  0  0  0  0
   -0.4756   -3.0451    5.0077 H   0  0  0  0  0  0  0  0  0  0  0  0
   -0.6975   -4.7209    7.0178 H   0  0  0  0  0  0  0  0  0  0  0  0
   -3.9295   -1.5759    7.1378 H   0  0  0  0  0  0  0  0  0  0  0  0
   -0.5203    1.6610    0.3212 H   0  0  0  0  0  0  0  0  0  0  0  0
   -1.6470    2.4460    1.4528 H   0  0  0  0  0  0  0  0  0  0  0  0
   -2.6193    2.3152   -0.8385 H   0  0  0  0  0  0  0  0  0  0  0  0
   -3.5659    1.3614    0.3102 H   0  0  0  0  0  0  0  0  0  0  0  0
   -2.4696    0.5541   -0.8182 H   0  0  0  0  0  0  0  0  0  0  0  0
   -0.6665   -5.5873    3.2468 H   0  0  0  0  0  0  0  0  0  0  0  0
   -4.1029   -6.6830    6.3320 H   0  0  0  0  0  0  0  0  0  0  0  0
   -8.5214   -2.2832    5.5756 H   0  0  0  0  0  0  0  0  0  0  0  0
   -8.8255   -5.9249    9.0845 H   0  0  0  0  0  0  0  0  0  0  0  0
  -11.2560   -3.5678    9.6026 H   0  0  0  0  0  0  0  0  0  0  0  0
  -12.3594   -5.7164    8.4806 H   0  0  0  0  0  0  0  0  0  0  0  0
  -14.2624   -3.9809    8.9990 H   0  0  0  0  0  0  0  0  0  0  0  0
  -14.1394   -2.0498    7.1785 H   0  0  0  0  0  0  0  0  0  0  0  0
  -12.1618   -2.5974    5.5379 H   0  0  0  0  0  0  0  0  0  0  0  0
  -12.9622   -5.0807    5.9826 H   0  0  0  0  0  0  0  0  0  0  0  0
  -11.1937   -5.0256    6.1597 H   0  0  0  0  0  0  0  0  0  0  0  0
  -11.1326   -1.6748    7.8158 H   0  0  0  0  0  0  0  0  0  0  0  0
  1  2  2  0  0  0  0
  2  3  1  0  0  0  0
  3  4  2  0  0  0  0
  3  5  1  0  0  0  0
  5  6  2  0  0  0  0
  6  7  1  0  0  0  0
  7  8  2  0  0  0  0
  8  9  1  0  0  0  0
  9 10  2  0  0  0  0
 10 11  1  0  0  0  0
 11 12  2  0  0  0  0
 12 13  1  0  0  0  0
 13 14  3  0  0  0  0
 12 15  1  0  0  0  0
 15 16  3  0  0  0  0
  8 17  1  0  0  0  0
 17 18  1  0  0  0  0
 18 19  1  0  0  0  0
 19 20  2  0  0  0  0
 20 21  1  0  0  0  0
 21 22  1  0  0  0  0
 21 23  1  0  0  0  0
  1 24  1  0  0  0  0
 24 25  2  0  0  0  0
 25 26  1  0  0  0  0
 26 27  1  0  0  0  0
 27 28  2  0  0  0  0
 28 29  1  0  0  0  0
 29 30  2  0  0  0  0
 30 31  1  0  0  0  0
 31 32  1  0  0  0  0
 30 33  1  0  0  0  0
 33 34  2  0  0  0  0
 26 35  1  0  0  0  0
 35 36  2  0  0  0  0
 36 37  1  0  0  0  0
 37 38  2  0  0  0  0
 38 39  1  0  0  0  0
 39 40  1  0  0  0  0
 38 41  1  0  0  0  0
 41 42  2  0  0  0  0
 25 43  1  0  0  0  0
 43 44  1  0  0  0  0
 44 45  1  0  0  0  0
 45 46  2  0  0  0  0
 46 47  1  0  0  0  0
 47 48  1  0  0  0  0
 48 49  2  0  0  0  0
 49 50  1  0  0  0  0
 50 51  2  0  0  0  0
 51 52  1  0  0  0  0
 52 53  1  0  0  0  0
 51 54  1  0  0  0  0
 54 55  2  0  0  0  0
 47 56  1  0  0  0  0
 56 57  2  0  0  0  0
 57 58  1  0  0  0  0
 58 59  2  0  0  0  0
 59 60  1  0  0  0  0
 60 61  1  0  0  0  0
 59 62  1  0  0  0  0
 62 63  2  0  0  0  0
 46 64  1  0  0  0  0
 64 65  1  0  0  0  0
 45 66  1  0  0  0  0
 66 67  2  0  0  0  0
 67 68  1  0  0  0  0
 68 69  2  0  0  0  0
 69 70  1  0  0  0  0
 70 71  1  0  0  0  0
 71 72  2  0  0  0  0
 72 73  1  0  0  0  0
 73 74  1  0  0  0  0
 74 75  2  0  0  0  0
 75 76  1  0  0  0  0
 76 77  1  0  0  0  0
 71 78  1  0  0  0  0
 78 79  2  0  0  0  0
 78 80  1  0  0  0  0
 80 81  1  0  0  0  0
 81 82  1  0  0  0  0
 80 83  1  0  0  0  0
 69 84  1  0  0  0  0
 84 85  2  0  0  0  0
 85 86  1  0  0  0  0
 86 87  1  0  0  0  0
 86 88  2  0  0  0  0
 88 89  1  0  0  0  0
 88 90  1  0  0  0  0
 90 91  2  0  0  0  0
 91 92  1  0  0  0  0
 92 93  2  0  0  0  0
 92 94  1  0  0  0  0
 94 95  2  0  0  0  0
 95 96  1  0  0  0  0
 96 97  2  0  0  0  0
 97 98  1  0  0  0  0
 98 99  2  0  0  0  0
 99100  1  0  0  0  0
100101  2  0  0  0  0
101102  1  0  0  0  0
102103  3  0  0  0  0
101104  1  0  0  0  0
104105  3  0  0  0  0
 97106  1  0  0  0  0
106107  1  0  0  0  0
107108  1  0  0  0  0
108109  2  0  0  0  0
109110  1  0  0  0  0
110111  1  0  0  0  0
110112  1  0  0  0  0
 11  2  1  0  0  0  0
 23 17  1  0  0  0  0
 65 24  1  0  0  0  0
 83 66  1  0  0  0  0
 89 84  1  0  0  0  0
100 91  1  0  0  0  0
112106  1  0  0  0  0
 10  5  1  0  0  0  0
 22 18  1  0  0  0  0
 34 27  1  0  0  0  0
 42 35  1  0  0  0  0
 64 43  2  0  0  0  0
 83 70  2  0  0  0  0
 99 94  1  0  0  0  0
111107  1  0  0  0  0
 23  7  1  0  0  0  0
 55 48  1  0  0  0  0
 63 56  1  0  0  0  0
 77 73  2  0  0  0  0
112 96  1  0  0  0  0
  1113  1  0  0  0  0
  6114  1  0  0  0  0
  9115  1  0  0  0  0
 17116  1  0  0  0  0
 18117  1  0  0  0  0
 19118  1  0  0  0  0
 20119  1  0  0  0  0
 21120  1  0  0  0  0
 22121  1  0  0  0  0
 22122  1  0  0  0  0
 23123  1  0  0  0  0
 28124  1  0  0  0  0
 29125  1  0  0  0  0
 32126  1  0  0  0  0
 32127  1  0  0  0  0
 32128  1  0  0  0  0
 33129  1  0  0  0  0
 34130  1  0  0  0  0
 36131  1  0  0  0  0
 37132  1  0  0  0  0
 40133  1  0  0  0  0
 40134  1  0  0  0  0
 40135  1  0  0  0  0
 41136  1  0  0  0  0
 42137  1  0  0  0  0
 49138  1  0  0  0  0
 50139  1  0  0  0  0
 53140  1  0  0  0  0
 53141  1  0  0  0  0
 53142  1  0  0  0  0
 54143  1  0  0  0  0
 55144  1  0  0  0  0
 57145  1  0  0  0  0
 58146  1  0  0  0  0
 61147  1  0  0  0  0
 61148  1  0  0  0  0
 61149  1  0  0  0  0
 62150  1  0  0  0  0
 63151  1  0  0  0  0
 67152  1  0  0  0  0
 68153  1  0  0  0  0
 72154  1  0  0  0  0
 74155  1  0  0  0  0
 75156  1  0  0  0  0
 77157  1  0  0  0  0
 81158  1  0  0  0  0
 81159  1  0  0  0  0
 82160  1  0  0  0  0
 82161  1  0  0  0  0
 82162  1  0  0  0  0
 85163  1  0  0  0  0
 90164  1  0  0  0  0
 95165  1  0  0  0  0
 98166  1  0  0  0  0
106167  1  0  0  0  0
107168  1  0  0  0  0
108169  1  0  0  0  0
109170  1  0  0  0  0
110171  1  0  0  0  0
111172  1  0  0  0  0
111173  1  0  0  0  0
112174  1  0  0  0  0
M  END
