224

C         -5.54850        5.92870        1.24910
C         -6.51500        6.14490        0.29910
C         -6.52410        5.61000       -1.06660
O         -5.62420        5.02250       -1.64160
C         -7.85800        5.90800       -1.61620
C         -8.34260        5.56440       -2.87520
C         -9.63900        5.96000       -3.10200
C        -10.39700        6.65090       -2.14770
C         -9.92700        7.00400       -0.90450
C         -8.61180        6.60650       -0.65130
C         -7.77760        6.80900        0.53200
C         -8.14000        7.52390        1.64750
C         -7.28760        7.86140        2.71560
N         -6.66110        8.22280        3.61000
C         -9.42080        8.06590        1.87410
N        -10.44010        8.51670        2.15290
C        -11.61080        6.71350       -3.04080
C        -12.77140        5.73010       -2.74950
C        -12.15770        4.53060       -2.07110
C        -11.43980        3.87740       -2.97500
C        -11.55490        4.62390       -4.28110
C        -12.99000        5.16080       -4.16040
C        -10.76540        5.94470       -4.10470
C         -4.34390        5.22210        1.17400
C         -3.51930        4.99840        2.29860
N         -3.75470        5.44410        3.58810
C         -2.71550        6.17800        4.18020
C         -2.00910        7.09130        3.39760
C         -1.00190        7.85000        3.95040
C         -0.68670        7.70390        5.29310
S          0.60990        8.68860        6.02040
C         -0.08020       10.35160        5.74170
C         -1.36510        6.77800        6.07260
C         -2.37840        6.01860        5.52160
C         -4.98980        5.26920        4.21740
C         -5.45590        6.18510        5.15760
C         -6.70630        6.03330        5.72420
C         -7.52240        4.97860        5.34200
S         -9.16500        4.74830        5.94800
C         -9.61780        6.40310        6.54330
C         -7.04210        4.03470        4.43540
C         -5.78770        4.17010        3.88770
C         -2.36250        4.28720        1.95200
S         -1.09400        3.53070        2.85800
C         -0.45430        2.79530        1.37910
C         -1.16360        3.18310        0.25180
N         -0.82310        2.98180       -1.07520
C         -0.95920        4.04300       -1.97890
C         -0.83190        5.36950       -1.56100
C         -0.96260        6.40190       -2.46120
C         -1.21380        6.14130       -3.80590
S         -1.35410        7.54370       -4.87140
C         -1.97600        6.84180       -6.42640
C         -1.32030        4.82560       -4.23230
C         -1.19870        3.78950       -3.32680
C         -0.36320        1.74650       -1.58760
C          0.93570        1.64050       -2.06830
C          1.39190        0.45080       -2.60330
C          0.53980       -0.64230       -2.68550
S          1.02150       -2.19830       -3.37080
C          2.52630       -1.81520       -4.30860
C         -0.76790       -0.53540       -2.21550
C         -1.21720        0.64870       -1.67150
C         -2.27370        3.99570        0.59990
S         -3.64130        4.55000       -0.29670
C          0.55590        1.78140        1.50680
C          1.78570        1.81720        2.14160
N          2.35420        2.89860        2.78520
C          3.23150        2.63560        3.85510
C          4.44370        3.31790        3.95540
C          5.31040        3.04040        4.98690
C          4.99210        2.07230        5.93890
S          6.19060        1.79590        7.20360
C          5.53570        0.37490        8.12420
C          3.78100        1.40090        5.85060
C          2.90800        1.68540        4.81800
C          2.10370        4.22770        2.43510
C          2.07940        5.19820        3.43570
C          1.90040        6.52820        3.12510
C          1.73650        6.91200        1.80120
S          1.49100        8.60200        1.33070
C          2.47810        9.48890        2.57680
C          1.74120        5.94900        0.79820
C          1.92040        4.61670        1.10910
C          2.43450        0.55420        2.05950
S          4.01750       -0.03240        2.45990
C          3.61810       -1.61250        1.80570
C          2.34470       -1.66250        1.26660
N          1.79320       -2.72950        0.57180
C          0.43050       -2.99950        0.74820
C         -0.35720       -3.45070       -0.31110
C         -1.70090       -3.68010       -0.12480
C         -2.29530       -3.46280        1.11720
S         -4.02980       -3.77860        1.22210
C         -4.44500       -3.38790        2.94540
C         -1.51400       -3.02630        2.17690
C         -0.16300       -2.80420        1.99250
C          2.57570       -3.47230       -0.32000
C          2.38680       -4.84520       -0.46400
C          3.22420       -5.59570       -1.26520
C          4.26760       -4.98440       -1.94650
S          5.44400       -5.84480       -2.94290
C          4.77630       -7.52520       -3.07270
C          4.43680       -3.60680       -1.83930
C          3.60090       -2.85870       -1.04070
C          1.68200       -0.42400        1.43800
S          0.15250        0.16450        0.92720
C          4.56370       -2.68980        1.74220
S          4.03480       -4.29700        2.21930
C          5.41950       -5.00580        1.43860
C          5.60850       -6.34440        1.20480
C          6.69640       -6.71690        0.41090
C          7.00500       -8.00130       -0.08000
C          8.08750       -8.02090       -0.92250
S          8.82310       -6.42370       -1.07170
C          7.59430       -5.72270       -0.06690
C          7.42270       -4.38280        0.20790
C          6.30410       -4.00650        0.94790
C          5.79930       -2.69950        1.17290
C          8.68980       -9.08270       -1.63980
C          8.14800      -10.27270       -2.02950
C          6.71540      -10.65730       -2.02650
O          5.78250      -10.11090       -1.47190
C          6.61700      -11.84080       -2.89770
C          5.44860      -12.50840       -3.25980
C          5.65360      -13.58540       -4.08710
C          6.92720      -13.96510       -4.53370
C          8.08680      -13.31370       -4.18710
C          7.90130      -12.22110       -3.33460
C          8.87600      -11.30760       -2.74870
C         10.23640      -11.45530       -2.79240
C         11.16520      -10.63180       -2.11940
N         11.98260      -10.03030       -1.58220
C         10.90210      -12.49300       -3.47860
N         11.50660      -13.30690       -4.01710
C          6.38810      -15.12670       -5.33020
C          6.55710      -16.54680       -4.73600
C          6.63330      -16.37820       -3.23870
C          5.43000      -16.02120       -2.80990
C          4.51830      -15.94200       -4.00950
C          5.11540      -17.06100       -4.87760
C          4.97060      -14.70690       -4.82790
H         -5.75290        6.33190        2.23340
H         -7.72340        5.03300       -3.58100
H        -10.52190        7.53820       -0.18240
H        -11.96590        7.71030       -3.29460
H        -13.62740        6.17740       -2.25130
H        -12.25830        4.31910       -1.02260
H        -10.82060        3.01110       -2.83260
H        -11.30370        4.06370       -5.17810
H        -13.73880        4.37040       -4.18440
H        -13.23290        5.92050       -4.90220
H        -10.56800        6.44030       -5.05340
H         -2.26460        7.21670        2.35600
H         -0.47520        8.55990        3.33240
H         -1.02400       10.43660        6.27190
H         -0.22250       10.52840        4.68020
H          0.64120       11.05420        6.14610
H         -1.09550        6.65780        7.11060
H         -2.91420        5.30170        6.12540
H         -4.85010        7.03490        5.42830
H         -7.04150        6.76400        6.44130
H        -10.69300        6.37990        6.69040
H         -9.36140        7.14080        5.78860
H         -9.12280        6.61490        7.48670
H         -7.66870        3.19850        4.16550
H         -5.42330        3.43920        3.18100
H         -0.62750        5.59210       -0.52490
H         -0.86410        7.42480       -2.13080
H         -2.20040        7.69220       -7.06280
H         -2.88090        6.27330       -6.23370
H         -1.21320        6.22550       -6.89380
H         -1.50500        4.58790       -5.26750
H         -1.29750        2.77110       -3.67140
H          1.59170        2.49760       -2.01920
H          2.41050        0.38870       -2.95220
H          3.34910       -1.60590       -3.63220
H          2.33610       -0.98190       -4.97840
H          2.74870       -2.71080       -4.88020
H         -1.42510       -1.38760       -2.28770
H         -2.22990        0.73390       -1.30760
H          4.69910        4.06060        3.21450
H          6.25250        3.56080        5.06430
H          5.38880       -0.46400        7.45030
H          6.29510        0.12930        8.86000
H          4.61210        0.64710        8.62700
H          3.49880        0.65890        6.57980
H          1.96210        1.16690        4.75880
H          2.20220        4.90470        4.46710
H          1.89130        7.25160        3.92340
H          2.54980       10.51360        2.22570
H          3.46560        9.04140        2.63000
H          1.99480        9.46390        3.54880
H          1.62870        6.25760       -0.23010
H          1.94890        3.87770        0.32250
H          0.08810       -3.60730       -1.28090
H         -2.31230       -4.02420       -0.94510
H         -4.22650       -2.34430        3.15290
H         -5.51200       -3.56610        3.03600
H         -3.90350       -4.04760        3.61710
H         -1.93800       -2.86020        3.15400
H          0.44050       -2.48070        2.82800
H          1.59560       -5.33210        0.08560
H          3.06960       -6.66050       -1.32880
H          4.86820       -8.05020       -2.12600
H          3.74490       -7.48280       -3.40960
H          5.38690       -8.02270       -3.82080
H          5.24230       -3.13620       -2.38300
H          3.74080       -1.79030       -0.96000
H          4.91450       -7.08540        1.56780
H          6.44180       -8.87770        0.17890
H          8.10240       -3.64020       -0.17830
H          6.29120       -1.80670        0.83000
H          9.70320       -8.87290       -1.96260
H          4.48730      -12.17790       -2.89820
H          9.05770      -13.61230       -4.54560
H          6.57830      -15.09900       -6.40120
H          7.34700      -17.13610       -5.19350
H          7.53970      -16.47730       -2.67080
H          5.12990      -15.76210       -1.81140
H          3.45150      -15.98180       -3.80530
H          4.97670      -18.04990       -4.44360
H          4.75120      -17.05520       -5.90410
H          4.23290      -14.40920       -5.57070
