200

C          4.38750        2.94000        2.30150
C          5.29580        3.55370        1.48120
C          5.95030        4.81340        1.90630
O          6.04160        5.24590        3.03480
C          6.40270        5.45390        0.65100
C          6.95980        6.72080        0.49960
C          7.24690        7.05690       -0.80280
C          7.00830        6.19410       -1.88010
C          6.47060        4.93670       -1.74570
C          6.16250        4.58160       -0.43210
C          5.62020        3.33420        0.09620
C          5.65710        2.10880       -0.53080
C          5.49400        0.90950        0.19090
N          5.43200       -0.07100        0.78680
C          5.89570        1.93480       -1.90160
N          6.02490        1.76000       -3.03120
C          7.52150        7.18500       -2.89390
C          6.47750        7.95810       -3.73630
C          5.21540        8.01040       -2.91110
C          5.43610        8.82950       -1.89140
C          6.84950        9.34490       -2.00870
C          6.99340        9.39200       -3.53820
C          7.78350        8.14960       -1.69430
C          3.30020        2.13330        1.93560
C          2.33250        1.60490        2.80920
N          2.42350        1.56550        4.17520
C          3.63080        1.30720        4.84270
C          4.60350        0.49230        4.26890
C          5.78700        0.24080        4.93230
C          6.01520        0.79150        6.18740
S          7.48230        0.53070        7.12970
C          8.58940       -0.33440        5.98050
C          5.03560        1.59400        6.76980
C          3.85740        1.85260        6.10620
C          1.22370        1.69480        4.90070
C          0.33320        2.71560        4.56480
C         -0.85270        2.85200        5.24690
C         -1.17560        1.97640        6.28220
S         -2.69300        2.28370        7.11720
C         -2.98280        0.77780        8.08120
C         -0.29000        0.96030        6.61990
C          0.90060        0.82120        5.93280
C          1.21710        1.10960        2.10050
S         -0.27680        0.34960        2.55240
C         -0.71110        0.17450        0.86470
C          0.28800        0.61140       -0.00120
N          0.26880        0.47010       -1.39150
C          0.26210       -0.85320       -1.90720
C         -0.54680       -1.17390       -2.99300
C         -0.65920       -2.48270       -3.42120
C          0.07090       -3.48290       -2.79270
S         -0.05740       -5.20030       -3.19390
C         -1.59870       -5.29930       -4.14830
C          0.97420       -3.14360       -1.79020
C          1.05930       -1.84270       -1.34100
C          0.92240        1.47190       -2.12660
C          0.67840        2.81290       -1.82610
C          1.39750        3.80640       -2.45090
C          2.36770        3.48420       -3.39810
S          3.29350        4.82500       -4.07660
C          4.56200        4.01520       -5.09170
C          2.56070        2.15700       -3.75470
C          1.84420        1.16010       -3.12130
C          1.35080        1.18540        0.72250
S          2.82670        1.93040        0.24630
C         -2.00800       -0.25620        0.49280
C         -3.00980       -0.82600        1.26510
N         -2.87910       -1.06500        2.64950
C         -3.64670       -0.26210        3.50100
C         -3.81570        1.09210        3.22220
C         -4.58450        1.89420        4.04240
C         -5.20010        1.35720        5.16380
S         -6.22790        2.27830        6.26860
C         -5.81810        4.00360        5.88750
C         -5.03500        0.00440        5.44690
C         -4.26870       -0.79610        4.63010
C         -2.47370       -2.34040        3.09460
C         -1.57030       -2.43220        4.15020
C         -1.09820       -3.66160        4.56760
C         -1.53600       -4.82220        3.94250
S         -0.96520       -6.44450        4.35120
C          0.55200       -6.13040        5.29830
C         -2.48380       -4.73700        2.92670
C         -2.94370       -3.50990        2.50160
C         -4.15780       -1.07730        0.48060
S         -5.60660       -2.00260        0.68860
C         -6.00010       -1.83590       -1.02320
C         -5.08940       -1.04440       -1.69140
N         -5.10270       -0.76080       -3.05050
C         -4.39760        0.37370       -3.47870
C         -4.54360        1.58140       -2.79180
C         -3.76430        2.66720       -3.11960
C         -2.82610        2.58100       -4.14680
S         -1.81980        4.00420       -4.42290
C         -0.49560        3.39480       -5.50180
C         -2.73500        1.40820       -4.88470
C         -3.51370        0.31570       -4.55290
C         -5.38810       -1.78600       -3.97130
C         -6.16830       -1.51510       -5.08900
C         -6.46990       -2.51520       -5.99380
C         -5.99290       -3.80350       -5.78890
S         -6.32910       -5.17050       -6.85280
C         -7.42170       -4.47990       -8.12730
C         -5.18630       -4.06960       -4.68340
C         -4.87820       -3.07060       -3.78800
C         -4.04270       -0.64250       -0.82980
S         -2.51320        0.07050       -1.14600
C         -7.03910       -2.66210       -1.59980
C         -6.95410       -4.01170       -1.62680
C         -5.75760       -4.69810       -1.27260
C         -5.50240       -5.99470       -1.58640
C         -4.28340       -6.69770       -1.41300
C         -3.02670       -6.33160       -0.99950
C         -2.48520       -5.00390       -0.59050
O         -2.95810       -3.90120       -0.79340
C         -1.20550       -5.29700        0.06490
C         -0.90810       -6.69150       -0.06620
C          0.25880       -7.05740        0.52540
S          1.02570       -5.70430        1.26780
C         -0.24710       -4.62170        0.75990
Cl        -0.17970       -2.98300        1.17590
C         -1.96910       -7.32340       -0.82100
C         -1.90080       -8.60320       -1.30390
C         -0.79640       -9.43470       -1.02020
N          0.08240      -10.13790       -0.79750
C         -2.83040       -9.23200       -2.15570
N         -3.52110       -9.80100       -2.87630
H          4.42800        3.23930        3.34380
H          7.13620        7.35510        1.35430
H          6.28710        4.27970       -2.57860
H          8.37780        6.86330       -3.48400
H          6.36760        7.60350       -4.75800
H          4.34390        7.41660       -3.11570
H          4.78180        9.06030       -1.07130
H          7.07790       10.25290       -1.45660
H          6.34880       10.13890       -3.99910
H          8.02010        9.53430       -3.87350
H          8.80900        8.46210       -1.50610
H          4.44320        0.05440        3.29530
H          6.51630       -0.39440        4.45730
H          8.20230       -1.32470        5.75880
H          8.71200        0.25430        5.07630
H          9.53960       -0.41930        6.49870
H          5.21690        2.02040        7.74420
H          3.10970        2.48800        6.55700
H          0.58570        3.40120        3.76940
H         -1.54110        3.64340        4.99440
H         -2.91890       -0.08560        7.42570
H         -3.99250        0.87370        8.46860
H         -2.27570        0.71320        8.90330
H         -0.51630        0.27200        7.41850
H          1.58760        0.03040        6.19610
H         -1.10550       -0.39470       -3.48920
H         -1.32390       -2.71040       -4.23930
H         -1.46260       -4.86840       -5.13600
H         -2.39160       -4.79380       -3.60580
H         -1.82430       -6.35770       -4.24090
H          1.59740       -3.91240       -1.35890
H          1.74770       -1.58800       -0.54800
H         -0.06610        3.06400       -1.08530
H          1.22380        4.84260       -2.20530
H          4.10580        3.57260       -5.97300
H          5.08800        3.26670       -4.50430
H          5.24510        4.80510       -5.38870
H          3.28550        1.87770       -4.50120
H          2.02830        0.12800       -3.37970
H         -3.34150        1.52060        2.35140
H         -4.69600        2.93750        3.79440
H         -4.74120        4.13230        5.93960
H         -6.30170        4.59780        6.65620
H         -6.20870        4.27810        4.91170
H         -5.52900       -0.41550        6.31020
H         -4.16220       -1.84680        4.85540
H         -1.22720       -1.52690        4.62960
H         -0.38530       -3.70230        5.37550
H          0.31000       -5.73140        6.27920
H          1.19310       -5.45380        4.74130
H          1.03510       -7.09640        5.40540
H         -2.85110       -5.64590        2.47340
H         -3.65850       -3.45750        1.69730
H         -5.25650        1.65030       -1.98350
H         -3.86100        3.59390       -2.57550
H          0.23340        4.19800       -5.54760
H         -0.04260        2.51270       -5.05850
H         -0.88180        3.19040       -6.49650
H         -2.04520        1.32450       -5.70960
H         -3.41600       -0.60200       -5.11460
H         -6.53980       -0.51320       -5.24620
H         -7.08200       -2.27700       -6.84840
H         -6.90080       -3.70990       -8.68910
H         -7.66520       -5.31090       -8.78190
H         -8.32780       -4.09320       -7.67030
H         -4.80480       -5.07000       -4.54270
H         -4.23800       -3.26720       -2.94130
H         -7.87150       -2.16040       -2.07730
H         -7.75720       -4.58780       -2.06580
H         -4.97780       -4.11520       -0.81130
H         -6.30000       -6.57890       -2.03030
H         -4.37830       -7.75220       -1.64730
H          0.72080       -8.02210        0.58670
