232

C          4.99990        6.69960        3.44600
C          4.52790        7.71080        4.25240
C          3.15930        7.87840        4.76120
O          2.29040        7.03500        4.90040
C          3.01650        9.31690        5.07040
C          1.86230        9.98410        5.47260
C          2.03760       11.33100        5.68370
C          3.26900       11.97320        5.50490
C          4.41650       11.32780        5.10740
C          4.25820        9.95760        4.89090
C          5.23420        8.94830        4.49060
C          6.59680        9.11590        4.47410
C          7.25280       10.34640        4.67220
N          7.84650       11.32060        4.80530
C          7.51590        8.05520        4.39920
N          8.32480        7.24010        4.45100
C          2.71550       13.31890        5.90120
C          3.04230       13.84090        7.32200
C          3.28070       12.62420        8.18140
C          2.11510       12.01530        8.35330
C          1.06730       12.80930        7.61280
C          1.62980       14.22890        7.78790
C          1.34280       12.60250        6.10270
C          4.39250        5.48890        3.09280
C          4.67780        4.73520        1.93090
N          5.60760        5.03960        0.96710
C          6.91700        5.43410        1.28140
C          7.58550        6.32860        0.44490
C          8.87960        6.70230        0.72840
C          9.53400        6.18900        1.84710
S         11.18340        6.73180        2.12580
C         11.45260        6.33770        3.87750
C          8.87700        5.27780        2.66730
C          7.57820        4.90780        2.38790
C          5.32210        4.69540       -0.36810
C          4.11830        5.09040       -0.94220
C          3.81660        4.75010       -2.24710
C          4.70840        3.98630       -2.98860
S          4.40680        3.44260       -4.63890
C          2.65860        3.84550       -4.92300
C          5.92700        3.61240       -2.42230
C          6.23660        3.96920       -1.13020
C          3.82310        3.62100        1.83070
S          3.67410        2.34230        0.67580
C          2.44760        1.58210        1.66100
C          2.23080        2.24170        2.86700
N          1.47770        1.75720        3.91660
C          0.87620        2.66800        4.79720
C          0.87070        2.42010        6.16910
C          0.34560        3.35230        7.03640
C         -0.17660        4.54730        6.55010
S         -0.76820        5.72980        7.72140
C         -0.41240        7.29260        6.86230
C         -0.22600        4.77240        5.18150
C          0.29640        3.83700        4.31190
C          1.25120        0.38370        4.07020
C          0.00260       -0.07720        4.48040
C         -0.29050       -1.42680        4.47370
C          0.66540       -2.34430        4.05940
S          0.35840       -4.07320        3.89610
C         -1.45310       -4.18030        3.92720
C          1.94890       -1.89590        3.75260
C          2.24270       -0.55130        3.76560
C          2.99720        3.43340        2.93320
S          3.12370        4.73260        4.05930
C          1.74440        0.42760        1.17140
C          0.34220        0.29480        1.36270
C         -0.39580       -0.83180        0.89300
N         -1.68090       -0.62510        1.19820
N         -1.68880        0.53500        1.79270
C         -2.90660        1.12550        2.27260
C         -3.66800        0.13790        3.14670
N         -0.53890        1.13700        1.91640
C          0.19950       -1.84980        0.11050
C          1.55920       -1.69890       -0.05870
C          2.49400       -2.61850       -0.73480
O          2.27660       -3.66570       -1.29400
N          3.74720       -2.05010       -0.58730
C          4.96350       -2.66730       -1.06840
C          5.57670       -3.57870       -0.01110
C          3.72480       -0.86440        0.12650
O          4.71140       -0.22240        0.40210
C          2.30820       -0.61610        0.46000
C         -0.59040       -2.84910       -0.56660
C         -0.62060       -3.07430       -1.93340
N          0.06660       -2.31680       -2.86170
C          0.49410       -2.89400       -4.06530
C          0.93510       -4.21450       -4.09540
C          1.29770       -4.79190       -5.29410
C          1.24470       -4.07450       -6.48380
C          1.60280       -4.73280       -7.78080
C          0.83750       -2.74810       -6.43690
C          0.46140       -2.15870       -5.24560
C          0.24820       -0.95000       -2.60840
C          1.48240       -0.33460       -2.79530
C          1.66920        0.97880       -2.40220
C          0.63320        1.71180       -1.83860
C          0.83260        3.10770       -1.33400
C         -0.61890        1.11430       -1.73400
C         -0.81390       -0.19630       -2.10850
C         -1.55560       -4.08780       -2.26010
S         -2.03870       -4.82350       -3.74280
C         -3.23460       -5.79350       -2.87700
C         -3.16180       -5.60000       -1.47290
N         -3.88320       -6.29440       -0.53710
C         -4.17440       -7.66460       -0.68580
C         -3.26090       -8.52270       -1.29240
C         -3.56790       -9.85960       -1.44860
C         -4.77420      -10.37770       -0.99200
C         -5.12170      -11.82210       -1.18060
C         -5.66430       -9.51850       -0.35810
C         -5.37760       -8.17670       -0.20660
C         -4.23310       -5.65560        0.66560
C         -4.10800       -6.31550        1.88400
C         -4.45850       -5.67620        3.05710
C         -4.93090       -4.37000        3.05010
C         -5.30640       -3.67140        4.32110
C         -5.06130       -3.72180        1.82680
C         -4.72370       -4.35160        0.64680
C         -2.23230       -4.59410       -1.15640
S         -1.74420       -3.81690        0.31570
C         -4.23440       -6.54900       -3.48750
C         -4.46200       -6.82030       -4.81780
C         -3.57470       -6.49170       -5.93570
O         -2.52860       -5.86550       -5.90260
C         -4.18270       -7.09390       -7.13640
C         -3.69920       -7.03440       -8.44030
C         -4.48700       -7.68600       -9.35890
C         -5.66860       -8.34870       -9.00480
C         -6.15920       -8.40980       -7.72140
C         -5.37280       -7.75340       -6.77140
C         -5.58010       -7.57300       -5.33370
C         -6.67700       -8.01400       -4.63150
C         -6.96340       -7.71820       -3.28550
N         -7.30060       -7.49660       -2.20830
C         -7.70830       -8.80520       -5.17430
N         -8.57600       -9.46550       -5.53710
C         -5.94430       -8.78350      -10.42260
C         -5.63630      -10.25310      -10.80160
C         -4.54590      -10.71760       -9.86840
C         -3.42860      -10.08770      -10.20570
C         -3.74350       -9.18520      -11.37290
C         -4.81770      -10.02490      -12.08240
C         -4.62850       -8.04190      -10.81800
H          5.93710        6.90170        2.93550
H          0.92710        9.46130        5.59690
H          5.35800       11.83210        4.96570
H          2.77640       14.10140        5.14730
H          3.80990       14.60930        7.35480
H          4.25150       12.30920        8.51660
H          1.91780       11.08960        8.86170
H          0.03590       12.63950        7.91120
H          1.60560       14.56690        8.82270
H          1.14950       14.96800        7.14790
H          0.50700       12.91890        5.48130
H          7.07720        6.73080       -0.41900
H          9.39750        7.40350        0.09230
H         12.33150        6.89990        4.17690
H         10.58470        6.66290        4.44250
H         11.63670        5.27410        4.00050
H          9.37100        4.84450        3.52000
H          7.06970        4.19980        3.02530
H          3.41640        5.67090       -0.36100
H          2.88930        5.09300       -2.67670
H          2.52000        4.92240       -4.95200
H          2.41840        3.42020       -5.89250
H          2.04420        3.38300       -4.15640
H          6.61980        3.02880       -3.00820
H          7.17660        3.66960       -0.69300
H          1.30340        1.50570        6.54720
H          0.35870        3.17760        8.10120
H         -1.23760        7.55750        6.20580
H          0.51360        7.17370        6.30620
H         -0.30190        8.04640        7.63620
H         -0.66380        5.67440        4.78630
H          0.25380        4.00350        3.24600
H         -0.75170        0.63780        4.77470
H         -1.27290       -1.75370        4.77530
H         -1.87350       -3.48080        3.21100
H         -1.69350       -5.19400        3.62400
H         -1.82600       -3.99840        4.93110
H          2.70700       -2.61690        3.48770
H          3.23710       -0.21690        3.51140
H         -2.62500        2.02510        2.82280
H         -3.52050        1.40590        1.41030
H         -3.10590       -0.08280        4.05030
H         -3.82460       -0.78610        2.59560
H         -4.63030        0.55680        3.42710
H          4.70390       -3.24060       -1.96190
H          5.65760       -1.86390       -1.32730
H          5.82860       -3.00430        0.87730
H          6.48120       -4.03800       -0.39980
H          4.87350       -4.36260        0.26080
H          1.01260       -4.76670       -3.17210
H          1.63020       -5.81960       -5.30870
H          1.72690       -3.99790       -8.57250
H          0.81100       -5.42290       -8.07220
H          2.52390       -5.30480       -7.68300
H          0.79820       -2.16800       -7.34810
H          0.12870       -1.13060       -5.22610
H          2.29870       -0.90100       -3.21890
H          2.64870        1.42550       -2.50280
H          1.88810        3.36320       -1.31620
H          0.30180        3.82470       -1.96190
H          0.43790        3.19680       -0.32230
H         -1.44640        1.68600       -1.33670
H         -1.78430       -0.65750       -1.99450
H         -2.31580       -8.13740       -1.64550
H         -2.85250      -10.51230       -1.92780
H         -5.95400      -11.91810       -1.87780
H         -4.27580      -12.37980       -1.57450
H         -5.42830      -12.26880       -0.23630
H         -6.60590       -9.90110        0.00560
H         -6.08800       -7.51880        0.26830
H         -3.73240       -7.32770        1.90610
H         -4.35750       -6.20210        3.99550
H         -4.78080       -2.72130        4.40610
H         -5.06690       -4.28340        5.18670
H         -6.37520       -3.46020        4.33450
H         -5.44580       -2.71250        1.79820
H         -4.84700       -3.84310       -0.29770
H         -4.95270       -6.96740       -2.79410
H         -2.78590       -6.50730       -8.66840
H         -7.07370       -8.91940       -7.46810
H         -6.87820       -8.43120      -10.85640
H         -6.51140      -10.89340      -10.87340
H         -4.70770      -11.39090       -9.04710
H         -2.47000      -10.12940       -9.72240
H         -2.89530       -8.85300      -11.96600
H         -4.42200      -10.94950      -12.50030
H         -5.35960       -9.47590      -12.85140
H         -4.70500       -7.20380      -11.50840
