
  xtb     02072215013D
 energy: -352.028702609349 gnorm: 0.000818263375 xtb: 6.4.1 (unknown)
213235  0     0  0            999 V2000
    2.4250    5.6013   -5.5998 C   0  0  0  0  0  0  0  0  0  0  0  0
    1.7870    6.7248   -5.1306 C   0  0  0  0  0  0  0  0  0  0  0  0
    1.1898    6.9092   -3.7997 C   0  0  0  0  0  0  0  0  0  0  0  0
    1.4503    6.3125   -2.7715 O   0  0  0  0  0  0  0  0  0  0  0  0
    0.1950    7.9884   -3.9483 C   0  0  0  0  0  0  0  0  0  0  0  0
   -0.7050    8.4398   -2.9861 C   0  0  0  0  0  0  0  0  0  0  0  0
   -1.5313    9.4467   -3.4260 C   0  0  0  0  0  0  0  0  0  0  0  0
   -1.4643    9.9719   -4.7231 C   0  0  0  0  0  0  0  0  0  0  0  0
   -0.5688    9.5474   -5.6768 C   0  0  0  0  0  0  0  0  0  0  0  0
    0.2764    8.5195   -5.2511 C   0  0  0  0  0  0  0  0  0  0  0  0
    1.3551    7.8307   -5.9550 C   0  0  0  0  0  0  0  0  0  0  0  0
    1.9413    8.2459   -7.1248 C   0  0  0  0  0  0  0  0  0  0  0  0
    3.1776    7.7660   -7.5908 C   0  0  0  0  0  0  0  0  0  0  0  0
    4.2314    7.5019   -7.9661 N   0  0  0  0  0  0  0  0  0  0  0  0
    1.4626    9.3010   -7.9259 C   0  0  0  0  0  0  0  0  0  0  0  0
    1.1113   10.1361   -8.6320 N   0  0  0  0  0  0  0  0  0  0  0  0
   -2.5994   10.9351   -4.4782 C   0  0  0  0  0  0  0  0  0  0  0  0
   -3.9710   10.5485   -5.0713 C   0  0  0  0  0  0  0  0  0  0  0  0
   -4.9541   11.3872   -4.2869 C   0  0  0  0  0  0  0  0  0  0  0  0
   -5.0159   10.8920   -3.0574 C   0  0  0  0  0  0  0  0  0  0  0  0
   -4.0758    9.7102   -2.9903 C   0  0  0  0  0  0  0  0  0  0  0  0
   -4.2165    9.1798   -4.4230 C   0  0  0  0  0  0  0  0  0  0  0  0
   -2.6722   10.3512   -3.0308 C   0  0  0  0  0  0  0  0  0  0  0  0
    2.7701    4.4279   -4.9166 C   0  0  0  0  0  0  0  0  0  0  0  0
    3.0502    3.1876   -5.5379 C   0  0  0  0  0  0  0  0  0  0  0  0
    2.9778    2.9074   -6.8873 N   0  0  0  0  0  0  0  0  0  0  0  0
    2.4294    1.6662   -7.2542 C   0  0  0  0  0  0  0  0  0  0  0  0
    3.0321    0.8658   -8.2191 C   0  0  0  0  0  0  0  0  0  0  0  0
    2.5095   -0.3745   -8.5306 C   0  0  0  0  0  0  0  0  0  0  0  0
    1.3775   -0.8380   -7.8741 C   0  0  0  0  0  0  0  0  0  0  0  0
    0.6441   -2.4197   -8.1513 S   0  0  0  0  0  0  0  0  0  0  0  0
    1.7939   -3.2501   -9.2825 C   0  0  0  0  0  0  0  0  0  0  0  0
    0.7536   -0.0272   -6.9277 C   0  0  0  0  0  0  0  0  0  0  0  0
    1.2683    1.2120   -6.6253 C   0  0  0  0  0  0  0  0  0  0  0  0
    3.5938    3.7038   -7.8620 C   0  0  0  0  0  0  0  0  0  0  0  0
    3.0160    3.8246   -9.1263 C   0  0  0  0  0  0  0  0  0  0  0  0
    3.6324    4.5804  -10.0976 C   0  0  0  0  0  0  0  0  0  0  0  0
    4.8341    5.2323   -9.8286 C   0  0  0  0  0  0  0  0  0  0  0  0
    5.5482    6.1700  -11.1353 S   0  0  0  0  0  0  0  0  0  0  0  0
    6.6282    7.3321  -10.2519 C   0  0  0  0  0  0  0  0  0  0  0  0
    5.4172    5.1030   -8.5729 C   0  0  0  0  0  0  0  0  0  0  0  0
    4.8002    4.3475   -7.5982 C   0  0  0  0  0  0  0  0  0  0  0  0
    3.2852    2.1881   -4.5824 C   0  0  0  0  0  0  0  0  0  0  0  0
    3.6341    0.4876   -4.6787 S   0  0  0  0  0  0  0  0  0  0  0  0
    3.6317    0.3774   -2.9299 C   0  0  0  0  0  0  0  0  0  0  0  0
    3.4612    1.6154   -2.3181 C   0  0  0  0  0  0  0  0  0  0  0  0
    3.4750    1.8040   -0.9308 N   0  0  0  0  0  0  0  0  0  0  0  0
    4.6836    1.6365   -0.2481 C   0  0  0  0  0  0  0  0  0  0  0  0
    4.7153    1.2254    1.0878 C   0  0  0  0  0  0  0  0  0  0  0  0
    5.9170    1.0460    1.7322 C   0  0  0  0  0  0  0  0  0  0  0  0
    7.1223    1.2572    1.0643 C   0  0  0  0  0  0  0  0  0  0  0  0
    8.5959    0.9912    2.0011 S   0  0  0  0  0  0  0  0  0  0  0  0
    9.9325    1.4022    0.8438 C   0  0  0  0  0  0  0  0  0  0  0  0
    7.0988    1.6501   -0.2655 C   0  0  0  0  0  0  0  0  0  0  0  0
    5.8914    1.8388   -0.9108 C   0  0  0  0  0  0  0  0  0  0  0  0
    2.2852    2.1519   -0.2788 C   0  0  0  0  0  0  0  0  0  0  0  0
    1.0714    1.6514   -0.7442 C   0  0  0  0  0  0  0  0  0  0  0  0
   -0.0995    1.8809   -0.0504 C   0  0  0  0  0  0  0  0  0  0  0  0
   -0.0754    2.6145    1.1265 C   0  0  0  0  0  0  0  0  0  0  0  0
   -1.5169    2.8890    2.1146 S   0  0  0  0  0  0  0  0  0  0  0  0
   -2.5794    1.4807    1.6790 C   0  0  0  0  0  0  0  0  0  0  0  0
    1.1203    3.1816    1.5567 C   0  0  0  0  0  0  0  0  0  0  0  0
    2.2865    2.9610    0.8573 C   0  0  0  0  0  0  0  0  0  0  0  0
    3.2412    2.6348   -3.2657 C   0  0  0  0  0  0  0  0  0  0  0  0
    2.8314    4.3022   -3.1535 S   0  0  0  0  0  0  0  0  0  0  0  0
    3.5173   -0.8830   -2.2947 C   0  0  0  0  0  0  0  0  0  0  0  0
    3.3635   -2.1294   -2.8634 C   0  0  0  0  0  0  0  0  0  0  0  0
    2.8892   -3.1108   -1.9767 C   0  0  0  0  0  0  0  0  0  0  0  0
    2.6262   -4.4935   -2.3775 C   0  0  0  0  0  0  0  0  0  0  0  0
    1.9566   -4.7436   -3.5748 C   0  0  0  0  0  0  0  0  0  0  0  0
    1.7048   -6.0530   -3.9543 C   0  0  0  0  0  0  0  0  0  0  0  0
    2.1156   -7.1088   -3.1360 C   0  0  0  0  0  0  0  0  0  0  0  0
    2.7933   -6.8611   -1.9530 C   0  0  0  0  0  0  0  0  0  0  0  0
    3.2698   -7.8048   -1.1022 O   0  0  0  0  0  0  0  0  0  0  0  0
    2.9294   -9.1640   -1.2926 C   0  0  0  0  0  0  0  0  0  0  0  0
    1.4889   -9.4648   -0.8918 C   0  0  0  0  0  0  0  0  0  0  0  0
    3.0529   -5.5407   -1.5797 C   0  0  0  0  0  0  0  0  0  0  0  0
    1.0843   -6.4375   -5.1024 O   0  0  0  0  0  0  0  0  0  0  0  0
    0.5895   -5.4601   -5.9968 C   0  0  0  0  0  0  0  0  0  0  0  0
   -0.7341   -4.8524   -5.5442 C   0  0  0  0  0  0  0  0  0  0  0  0
    2.6554   -2.6013   -0.7062 C   0  0  0  0  0  0  0  0  0  0  0  0
    3.1584   -0.9362   -0.5976 S   0  0  0  0  0  0  0  0  0  0  0  0
    1.8932   -3.0751    0.3973 C   0  0  0  0  0  0  0  0  0  0  0  0
    1.5228   -2.2636    1.4377 C   0  0  0  0  0  0  0  0  0  0  0  0
    0.6190   -2.8456    2.3425 C   0  0  0  0  0  0  0  0  0  0  0  0
    0.0470   -2.2352    3.4791 C   0  0  0  0  0  0  0  0  0  0  0  0
    0.4524   -0.9195    3.9129 C   0  0  0  0  0  0  0  0  0  0  0  0
    1.7084   -0.3695    3.8595 C   0  0  0  0  0  0  0  0  0  0  0  0
    1.8241    0.9554    4.3112 C   0  0  0  0  0  0  0  0  0  0  0  0
    0.6535    1.5252    4.7351 C   0  0  0  0  0  0  0  0  0  0  0  0
    0.5420    3.1732    5.3012 S   0  0  0  0  0  0  0  0  0  0  0  0
   -1.2024    3.2849    5.8247 C   0  0  0  0  0  0  0  0  0  0  0  0
   -1.4561    2.6232    7.1643 C   0  0  0  0  0  0  0  0  0  0  0  0
   -0.7813    0.3195    4.6113 Se  0  0  0  0  0  2  0  0  0  0  0  0
   -0.9351   -2.9728    4.1312 C   0  0  0  0  0  0  0  0  0  0  0  0
   -1.3044   -4.2889    3.7452 C   0  0  0  0  0  0  0  0  0  0  0  0
   -0.6795   -4.9251    2.6370 C   0  0  0  0  0  0  0  0  0  0  0  0
   -0.9949   -6.2749    2.2361 C   0  0  0  0  0  0  0  0  0  0  0  0
   -1.0582   -6.7705    0.9602 C   0  0  0  0  0  0  0  0  0  0  0  0
   -1.3296   -8.1436    0.8396 C   0  0  0  0  0  0  0  0  0  0  0  0
   -1.4702   -8.8164    2.0227 C   0  0  0  0  0  0  0  0  0  0  0  0
   -1.8676  -10.5156    2.1123 S   0  0  0  0  0  0  0  0  0  0  0  0
   -1.7961  -10.8399    3.9086 C   0  0  0  0  0  0  0  0  0  0  0  0
   -0.3743  -10.9758    4.4150 C   0  0  0  0  0  0  0  0  0  0  0  0
   -1.2757   -7.6587    3.4899 Se  0  0  0  0  0  2  0  0  0  0  0  0
    0.2535   -4.1583    1.9487 C   0  0  0  0  0  0  0  0  0  0  0  0
    1.1281   -4.6445    0.5084 S   0  0  0  0  0  0  0  0  0  0  0  0
   -2.3425   -4.7707    4.5538 C   0  0  0  0  0  0  0  0  0  0  0  0
   -2.7575   -3.8937    5.5415 C   0  0  0  0  0  0  0  0  0  0  0  0
   -1.8487   -2.3988    5.4915 S   0  0  0  0  0  0  0  0  0  0  0  0
   -3.7771   -4.2248    6.4533 C   0  0  0  0  0  0  0  0  0  0  0  0
   -4.3277   -3.4964    7.4716 C   0  0  0  0  0  0  0  0  0  0  0  0
   -4.0092   -2.1017    7.8231 C   0  0  0  0  0  0  0  0  0  0  0  0
   -3.1701   -1.3757    7.3232 O   0  0  0  0  0  0  0  0  0  0  0  0
   -4.9273   -1.7338    8.9138 C   0  0  0  0  0  0  0  0  0  0  0  0
   -5.0087   -0.4987    9.5539 C   0  0  0  0  0  0  0  0  0  0  0  0
   -5.9658   -0.4420   10.5378 C   0  0  0  0  0  0  0  0  0  0  0  0
   -6.7858   -1.5326   10.8576 C   0  0  0  0  0  0  0  0  0  0  0  0
   -6.7168   -2.7549   10.2327 C   0  0  0  0  0  0  0  0  0  0  0  0
   -5.7439   -2.8374    9.2311 C   0  0  0  0  0  0  0  0  0  0  0  0
   -5.3727   -3.9566    8.3674 C   0  0  0  0  0  0  0  0  0  0  0  0
   -5.9068   -5.2186    8.4349 C   0  0  0  0  0  0  0  0  0  0  0  0
   -6.9205   -5.6101    9.3344 C   0  0  0  0  0  0  0  0  0  0  0  0
   -7.7404   -6.0063   10.0342 N   0  0  0  0  0  0  0  0  0  0  0  0
   -5.5258   -6.3248    7.6469 C   0  0  0  0  0  0  0  0  0  0  0  0
   -5.2792   -7.2828    7.0616 N   0  0  0  0  0  0  0  0  0  0  0  0
   -7.5108   -0.7725   11.9402 C   0  0  0  0  0  0  0  0  0  0  0  0
   -7.1051   -1.0918   13.3947 C   0  0  0  0  0  0  0  0  0  0  0  0
   -7.6017    0.1015   14.1787 C   0  0  0  0  0  0  0  0  0  0  0  0
   -6.8251    1.1341   13.8768 C   0  0  0  0  0  0  0  0  0  0  0  0
   -5.7904    0.6562   12.8836 C   0  0  0  0  0  0  0  0  0  0  0  0
   -5.6019   -0.7857   13.3726 C   0  0  0  0  0  0  0  0  0  0  0  0
   -6.5959    0.4431   11.5842 C   0  0  0  0  0  0  0  0  0  0  0  0
    2.6105    5.5694   -6.6692 H   0  0  0  0  0  0  0  0  0  0  0  0
   -0.7212    8.0110   -1.9964 H   0  0  0  0  0  0  0  0  0  0  0  0
   -0.5233    9.9613   -6.6706 H   0  0  0  0  0  0  0  0  0  0  0  0
   -2.3633   11.9899   -4.6042 H   0  0  0  0  0  0  0  0  0  0  0  0
   -4.0316   10.6085   -6.1546 H   0  0  0  0  0  0  0  0  0  0  0  0
   -5.4445   12.2593   -4.6778 H   0  0  0  0  0  0  0  0  0  0  0  0
   -5.5682   11.2678   -2.2161 H   0  0  0  0  0  0  0  0  0  0  0  0
   -4.2316    9.0059   -2.1775 H   0  0  0  0  0  0  0  0  0  0  0  0
   -5.2174    8.8021   -4.6257 H   0  0  0  0  0  0  0  0  0  0  0  0
   -3.4808    8.4234   -4.6904 H   0  0  0  0  0  0  0  0  0  0  0  0
   -2.4834   11.0170   -2.1908 H   0  0  0  0  0  0  0  0  0  0  0  0
    3.9242    1.2117   -8.7190 H   0  0  0  0  0  0  0  0  0  0  0  0
    3.0049   -0.9726   -9.2780 H   0  0  0  0  0  0  0  0  0  0  0  0
    2.7836   -3.2924   -8.8374 H   0  0  0  0  0  0  0  0  0  0  0  0
    1.4025   -4.2544   -9.4102 H   0  0  0  0  0  0  0  0  0  0  0  0
    1.8119   -2.7383  -10.2399 H   0  0  0  0  0  0  0  0  0  0  0  0
   -0.1378   -0.3841   -6.4350 H   0  0  0  0  0  0  0  0  0  0  0  0
    0.7804    1.8361   -5.8911 H   0  0  0  0  0  0  0  0  0  0  0  0
    2.0784    3.3297   -9.3326 H   0  0  0  0  0  0  0  0  0  0  0  0
    3.1843    4.6855  -11.0736 H   0  0  0  0  0  0  0  0  0  0  0  0
    6.0834    7.7277   -9.4009 H   0  0  0  0  0  0  0  0  0  0  0  0
    7.5466    6.8380   -9.9474 H   0  0  0  0  0  0  0  0  0  0  0  0
    6.8544    8.1246  -10.9583 H   0  0  0  0  0  0  0  0  0  0  0  0
    6.3547    5.5826   -8.3475 H   0  0  0  0  0  0  0  0  0  0  0  0
    5.2540    4.2483   -6.6230 H   0  0  0  0  0  0  0  0  0  0  0  0
    3.7918    1.0399    1.6137 H   0  0  0  0  0  0  0  0  0  0  0  0
    5.9391    0.7286    2.7635 H   0  0  0  0  0  0  0  0  0  0  0  0
   10.8535    1.2679    1.4026 H   0  0  0  0  0  0  0  0  0  0  0  0
    9.9139    0.7231   -0.0038 H   0  0  0  0  0  0  0  0  0  0  0  0
    9.8423    2.4366    0.5251 H   0  0  0  0  0  0  0  0  0  0  0  0
    8.0108    1.8202   -0.8146 H   0  0  0  0  0  0  0  0  0  0  0  0
    5.8895    2.1541   -1.9439 H   0  0  0  0  0  0  0  0  0  0  0  0
    1.0472    1.0550   -1.6448 H   0  0  0  0  0  0  0  0  0  0  0  0
   -1.0215    1.4691   -0.4299 H   0  0  0  0  0  0  0  0  0  0  0  0
   -1.9881    0.5684    1.6882 H   0  0  0  0  0  0  0  0  0  0  0  0
   -3.3435    1.4330    2.4495 H   0  0  0  0  0  0  0  0  0  0  0  0
   -3.0448    1.6385    0.7102 H   0  0  0  0  0  0  0  0  0  0  0  0
    1.1277    3.7875    2.4494 H   0  0  0  0  0  0  0  0  0  0  0  0
    3.2088    3.4054    1.1978 H   0  0  0  0  0  0  0  0  0  0  0  0
    3.5602   -2.3168   -3.9045 H   0  0  0  0  0  0  0  0  0  0  0  0
    1.6337   -3.9068   -4.1724 H   0  0  0  0  0  0  0  0  0  0  0  0
    1.8933   -8.1055   -3.4793 H   0  0  0  0  0  0  0  0  0  0  0  0
    3.6191   -9.7070   -0.6405 H   0  0  0  0  0  0  0  0  0  0  0  0
    3.1203   -9.4707   -2.3284 H   0  0  0  0  0  0  0  0  0  0  0  0
    0.7929   -8.9241   -1.5280 H   0  0  0  0  0  0  0  0  0  0  0  0
    1.2946  -10.5302   -0.9788 H   0  0  0  0  0  0  0  0  0  0  0  0
    1.3207   -9.1566    0.1371 H   0  0  0  0  0  0  0  0  0  0  0  0
    3.6097   -5.3611   -0.6745 H   0  0  0  0  0  0  0  0  0  0  0  0
    0.4428   -6.0023   -6.9353 H   0  0  0  0  0  0  0  0  0  0  0  0
    1.3364   -4.6757   -6.1657 H   0  0  0  0  0  0  0  0  0  0  0  0
   -1.0661   -4.1263   -6.2810 H   0  0  0  0  0  0  0  0  0  0  0  0
   -0.6248   -4.3568   -4.5829 H   0  0  0  0  0  0  0  0  0  0  0  0
   -1.4853   -5.6318   -5.4453 H   0  0  0  0  0  0  0  0  0  0  0  0
    1.8416   -1.2397    1.5068 H   0  0  0  0  0  0  0  0  0  0  0  0
    2.5709   -0.9386    3.5545 H   0  0  0  0  0  0  0  0  0  0  0  0
    2.7602    1.4867    4.3318 H   0  0  0  0  0  0  0  0  0  0  0  0
   -1.8011    2.8386    5.0253 H   0  0  0  0  0  0  0  0  0  0  0  0
   -1.4060    4.3547    5.8666 H   0  0  0  0  0  0  0  0  0  0  0  0
   -1.2669    1.5506    7.1121 H   0  0  0  0  0  0  0  0  0  0  0  0
   -0.8150    3.0543    7.9299 H   0  0  0  0  0  0  0  0  0  0  0  0
   -2.4953    2.7707    7.4510 H   0  0  0  0  0  0  0  0  0  0  0  0
   -0.9521   -6.1406    0.0937 H   0  0  0  0  0  0  0  0  0  0  0  0
   -1.4293   -8.6386   -0.1104 H   0  0  0  0  0  0  0  0  0  0  0  0
   -2.3529  -11.7668    4.0426 H   0  0  0  0  0  0  0  0  0  0  0  0
   -2.3309  -10.0257    4.4073 H   0  0  0  0  0  0  0  0  0  0  0  0
   -0.3836  -11.1898    5.4816 H   0  0  0  0  0  0  0  0  0  0  0  0
    0.1380  -11.7841    3.8981 H   0  0  0  0  0  0  0  0  0  0  0  0
    0.1833  -10.0529    4.2546 H   0  0  0  0  0  0  0  0  0  0  0  0
   -2.8258   -5.7253    4.4232 H   0  0  0  0  0  0  0  0  0  0  0  0
   -4.1698   -5.2226    6.2978 H   0  0  0  0  0  0  0  0  0  0  0  0
   -4.3590    0.3146    9.2705 H   0  0  0  0  0  0  0  0  0  0  0  0
   -7.3603   -3.5797   10.4886 H   0  0  0  0  0  0  0  0  0  0  0  0
   -8.5866   -0.6712   11.8106 H   0  0  0  0  0  0  0  0  0  0  0  0
   -7.4123   -2.0724   13.7476 H   0  0  0  0  0  0  0  0  0  0  0  0
   -8.4717    0.0856   14.8085 H   0  0  0  0  0  0  0  0  0  0  0  0
   -6.9168    2.1532   14.2040 H   0  0  0  0  0  0  0  0  0  0  0  0
   -4.8995    1.2684   12.7722 H   0  0  0  0  0  0  0  0  0  0  0  0
   -5.0305   -1.4142   12.6921 H   0  0  0  0  0  0  0  0  0  0  0  0
   -5.1588   -0.8285   14.3661 H   0  0  0  0  0  0  0  0  0  0  0  0
   -7.0617    1.3560   11.2174 H   0  0  0  0  0  0  0  0  0  0  0  0
  1  2  2  0  0  0  0
  2  3  1  0  0  0  0
  3  4  2  0  0  0  0
  3  5  1  0  0  0  0
  5  6  2  0  0  0  0
  6  7  1  0  0  0  0
  7  8  2  0  0  0  0
  8  9  1  0  0  0  0
  9 10  2  0  0  0  0
 10 11  1  0  0  0  0
 11 12  2  0  0  0  0
 12 13  1  0  0  0  0
 13 14  3  0  0  0  0
 12 15  1  0  0  0  0
 15 16  3  0  0  0  0
  8 17  1  0  0  0  0
 17 18  1  0  0  0  0
 18 19  1  0  0  0  0
 19 20  2  0  0  0  0
 20 21  1  0  0  0  0
 21 22  1  0  0  0  0
 21 23  1  0  0  0  0
  1 24  1  0  0  0  0
 24 25  2  0  0  0  0
 25 26  1  0  0  0  0
 26 27  1  0  0  0  0
 27 28  2  0  0  0  0
 28 29  1  0  0  0  0
 29 30  2  0  0  0  0
 30 31  1  0  0  0  0
 31 32  1  0  0  0  0
 30 33  1  0  0  0  0
 33 34  2  0  0  0  0
 26 35  1  0  0  0  0
 35 36  2  0  0  0  0
 36 37  1  0  0  0  0
 37 38  2  0  0  0  0
 38 39  1  0  0  0  0
 39 40  1  0  0  0  0
 38 41  1  0  0  0  0
 41 42  2  0  0  0  0
 25 43  1  0  0  0  0
 43 44  1  0  0  0  0
 44 45  1  0  0  0  0
 45 46  2  0  0  0  0
 46 47  1  0  0  0  0
 47 48  1  0  0  0  0
 48 49  2  0  0  0  0
 49 50  1  0  0  0  0
 50 51  2  0  0  0  0
 51 52  1  0  0  0  0
 52 53  1  0  0  0  0
 51 54  1  0  0  0  0
 54 55  2  0  0  0  0
 47 56  1  0  0  0  0
 56 57  2  0  0  0  0
 57 58  1  0  0  0  0
 58 59  2  0  0  0  0
 59 60  1  0  0  0  0
 60 61  1  0  0  0  0
 59 62  1  0  0  0  0
 62 63  2  0  0  0  0
 46 64  1  0  0  0  0
 64 65  1  0  0  0  0
 45 66  1  0  0  0  0
 66 67  2  0  0  0  0
 67 68  1  0  0  0  0
 68 69  1  0  0  0  0
 69 70  2  0  0  0  0
 70 71  1  0  0  0  0
 71 72  2  0  0  0  0
 72 73  1  0  0  0  0
 73 74  1  0  0  0  0
 74 75  1  0  0  0  0
 75 76  1  0  0  0  0
 73 77  2  0  0  0  0
 71 78  1  0  0  0  0
 78 79  1  0  0  0  0
 79 80  1  0  0  0  0
 68 81  2  0  0  0  0
 81 82  1  0  0  0  0
 81 83  1  0  0  0  0
 83 84  2  0  0  0  0
 84 85  1  0  0  0  0
 85 86  2  0  0  0  0
 86 87  1  0  0  0  0
 87 88  2  0  0  0  0
 88 89  1  0  0  0  0
 89 90  2  0  0  0  0
 90 91  1  0  0  0  0
 91 92  1  0  0  0  0
 92 93  1  0  0  0  0
 90 94  1  0  0  0  0
 86 95  1  0  0  0  0
 95 96  2  0  0  0  0
 96 97  1  0  0  0  0
 97 98  1  0  0  0  0
 98 99  2  0  0  0  0
 99100  1  0  0  0  0
100101  2  0  0  0  0
101102  1  0  0  0  0
102103  1  0  0  0  0
103104  1  0  0  0  0
101105  1  0  0  0  0
 97106  2  0  0  0  0
106107  1  0  0  0  0
 96108  1  0  0  0  0
108109  2  0  0  0  0
109110  1  0  0  0  0
109111  1  0  0  0  0
111112  2  0  0  0  0
112113  1  0  0  0  0
113114  2  0  0  0  0
113115  1  0  0  0  0
115116  2  0  0  0  0
116117  1  0  0  0  0
117118  2  0  0  0  0
118119  1  0  0  0  0
119120  2  0  0  0  0
120121  1  0  0  0  0
121122  2  0  0  0  0
122123  1  0  0  0  0
123124  3  0  0  0  0
122125  1  0  0  0  0
125126  3  0  0  0  0
118127  1  0  0  0  0
127128  1  0  0  0  0
128129  1  0  0  0  0
129130  2  0  0  0  0
130131  1  0  0  0  0
131132  1  0  0  0  0
131133  1  0  0  0  0
 11  2  1  0  0  0  0
 23 17  1  0  0  0  0
 65 24  1  0  0  0  0
 82 66  1  0  0  0  0
107 83  1  0  0  0  0
121112  1  0  0  0  0
133127  1  0  0  0  0
 10  5  1  0  0  0  0
 22 18  1  0  0  0  0
 34 27  1  0  0  0  0
 42 35  1  0  0  0  0
 64 43  2  0  0  0  0
 77 69  1  0  0  0  0
106 85  1  0  0  0  0
120115  1  0  0  0  0
132128  1  0  0  0  0
 23  7  1  0  0  0  0
 55 48  1  0  0  0  0
 63 56  1  0  0  0  0
 94 87  1  0  0  0  0
110 95  1  0  0  0  0
133117  1  0  0  0  0
105 98  1  0  0  0  0
  1134  1  0  0  0  0
  6135  1  0  0  0  0
  9136  1  0  0  0  0
 17137  1  0  0  0  0
 18138  1  0  0  0  0
 19139  1  0  0  0  0
 20140  1  0  0  0  0
 21141  1  0  0  0  0
 22142  1  0  0  0  0
 22143  1  0  0  0  0
 23144  1  0  0  0  0
 28145  1  0  0  0  0
 29146  1  0  0  0  0
 32147  1  0  0  0  0
 32148  1  0  0  0  0
 32149  1  0  0  0  0
 33150  1  0  0  0  0
 34151  1  0  0  0  0
 36152  1  0  0  0  0
 37153  1  0  0  0  0
 40154  1  0  0  0  0
 40155  1  0  0  0  0
 40156  1  0  0  0  0
 41157  1  0  0  0  0
 42158  1  0  0  0  0
 49159  1  0  0  0  0
 50160  1  0  0  0  0
 53161  1  0  0  0  0
 53162  1  0  0  0  0
 53163  1  0  0  0  0
 54164  1  0  0  0  0
 55165  1  0  0  0  0
 57166  1  0  0  0  0
 58167  1  0  0  0  0
 61168  1  0  0  0  0
 61169  1  0  0  0  0
 61170  1  0  0  0  0
 62171  1  0  0  0  0
 63172  1  0  0  0  0
 67173  1  0  0  0  0
 70174  1  0  0  0  0
 72175  1  0  0  0  0
 75176  1  0  0  0  0
 75177  1  0  0  0  0
 76178  1  0  0  0  0
 76179  1  0  0  0  0
 76180  1  0  0  0  0
 77181  1  0  0  0  0
 79182  1  0  0  0  0
 79183  1  0  0  0  0
 80184  1  0  0  0  0
 80185  1  0  0  0  0
 80186  1  0  0  0  0
 84187  1  0  0  0  0
 88188  1  0  0  0  0
 89189  1  0  0  0  0
 92190  1  0  0  0  0
 92191  1  0  0  0  0
 93192  1  0  0  0  0
 93193  1  0  0  0  0
 93194  1  0  0  0  0
 99195  1  0  0  0  0
100196  1  0  0  0  0
103197  1  0  0  0  0
103198  1  0  0  0  0
104199  1  0  0  0  0
104200  1  0  0  0  0
104201  1  0  0  0  0
108202  1  0  0  0  0
111203  1  0  0  0  0
116204  1  0  0  0  0
119205  1  0  0  0  0
127206  1  0  0  0  0
128207  1  0  0  0  0
129208  1  0  0  0  0
130209  1  0  0  0  0
131210  1  0  0  0  0
132211  1  0  0  0  0
132212  1  0  0  0  0
133213  1  0  0  0  0
M  END
