
  xtb     02082219103D
 energy: -356.514958318509 gnorm: 0.000760256225 xtb: 6.4.1 (unknown)
217239  0     0  0            999 V2000
   -1.2936    2.1142   -7.1048 C   0  0  0  0  0  0  0  0  0  0  0  0
   -1.7715    3.3054   -7.6070 C   0  0  0  0  0  0  0  0  0  0  0  0
   -2.3249    4.4210   -6.8407 C   0  0  0  0  0  0  0  0  0  0  0  0
   -2.4494    4.5083   -5.6267 O   0  0  0  0  0  0  0  0  0  0  0  0
   -2.7771    5.4182   -7.8300 C   0  0  0  0  0  0  0  0  0  0  0  0
   -3.3212    6.6757   -7.5796 C   0  0  0  0  0  0  0  0  0  0  0  0
   -3.6430    7.3848   -8.7123 C   0  0  0  0  0  0  0  0  0  0  0  0
   -3.4354    6.8845  -10.0029 C   0  0  0  0  0  0  0  0  0  0  0  0
   -2.8882    5.6505  -10.2656 C   0  0  0  0  0  0  0  0  0  0  0  0
   -2.5580    4.9118   -9.1268 C   0  0  0  0  0  0  0  0  0  0  0  0
   -1.9195    3.6013   -9.0105 C   0  0  0  0  0  0  0  0  0  0  0  0
   -1.5110    2.8272  -10.0712 C   0  0  0  0  0  0  0  0  0  0  0  0
   -0.7339    1.6574   -9.9886 C   0  0  0  0  0  0  0  0  0  0  0  0
   -0.0677    0.7206  -10.0372 N   0  0  0  0  0  0  0  0  0  0  0  0
   -1.7900    3.1070  -11.4234 C   0  0  0  0  0  0  0  0  0  0  0  0
   -1.9912    3.2421  -12.5466 N   0  0  0  0  0  0  0  0  0  0  0  0
   -3.9845    8.1261  -10.6606 C   0  0  0  0  0  0  0  0  0  0  0  0
   -5.4173    8.0320  -11.2257 C   0  0  0  0  0  0  0  0  0  0  0  0
   -5.8495    9.4744  -11.3572 C   0  0  0  0  0  0  0  0  0  0  0  0
   -6.0463    9.9498  -10.1341 C   0  0  0  0  0  0  0  0  0  0  0  0
   -5.7505    8.8363   -9.1554 C   0  0  0  0  0  0  0  0  0  0  0  0
   -6.2168    7.6294   -9.9798 C   0  0  0  0  0  0  0  0  0  0  0  0
   -4.2158    8.6852   -9.2199 C   0  0  0  0  0  0  0  0  0  0  0  0
   -1.0303    1.7230   -5.7960 C   0  0  0  0  0  0  0  0  0  0  0  0
   -0.5316    0.4436   -5.4469 C   0  0  0  0  0  0  0  0  0  0  0  0
   -0.4379   -0.6367   -6.2794 N   0  0  0  0  0  0  0  0  0  0  0  0
    0.6052   -1.5572   -6.0684 C   0  0  0  0  0  0  0  0  0  0  0  0
    1.9048   -1.1002   -5.8480 C   0  0  0  0  0  0  0  0  0  0  0  0
    2.9265   -1.9976   -5.6405 C   0  0  0  0  0  0  0  0  0  0  0  0
    2.6756   -3.3690   -5.6543 C   0  0  0  0  0  0  0  0  0  0  0  0
    4.0613   -4.4202   -5.3899 S   0  0  0  0  0  0  0  0  0  0  0  0
    3.3444   -6.0832   -5.3084 C   0  0  0  0  0  0  0  0  0  0  0  0
    1.3842   -3.8263   -5.8858 C   0  0  0  0  0  0  0  0  0  0  0  0
    0.3581   -2.9253   -6.0899 C   0  0  0  0  0  0  0  0  0  0  0  0
   -1.3737   -0.8986   -7.2955 C   0  0  0  0  0  0  0  0  0  0  0  0
   -0.9567   -1.4583   -8.4994 C   0  0  0  0  0  0  0  0  0  0  0  0
   -1.8632   -1.6808   -9.5181 C   0  0  0  0  0  0  0  0  0  0  0  0
   -3.1955   -1.3309   -9.3521 C   0  0  0  0  0  0  0  0  0  0  0  0
   -4.4160   -1.5010  -10.6143 S   0  0  0  0  0  0  0  0  0  0  0  0
   -3.4304   -1.6956  -12.1266 C   0  0  0  0  0  0  0  0  0  0  0  0
   -3.6239   -0.8207   -8.1262 C   0  0  0  0  0  0  0  0  0  0  0  0
   -2.7268   -0.6139   -7.1049 C   0  0  0  0  0  0  0  0  0  0  0  0
   -0.1322    0.4145   -4.0992 C   0  0  0  0  0  0  0  0  0  0  0  0
    0.5477   -0.8174   -3.0974 S   0  0  0  0  0  0  0  0  0  0  0  0
    0.4511    0.2499   -1.7017 C   0  0  0  0  0  0  0  0  0  0  0  0
    0.0216    1.5280   -2.0322 C   0  0  0  0  0  0  0  0  0  0  0  0
    0.0277    2.6105   -1.1742 N   0  0  0  0  0  0  0  0  0  0  0  0
   -0.7097    3.7699   -1.4856 C   0  0  0  0  0  0  0  0  0  0  0  0
   -0.1073    5.0254   -1.4116 C   0  0  0  0  0  0  0  0  0  0  0  0
   -0.8134    6.1523   -1.7699 C   0  0  0  0  0  0  0  0  0  0  0  0
   -2.1323    6.0499   -2.2059 C   0  0  0  0  0  0  0  0  0  0  0  0
   -2.9518    7.5293   -2.7050 S   0  0  0  0  0  0  0  0  0  0  0  0
   -4.2485    6.8861   -3.8049 C   0  0  0  0  0  0  0  0  0  0  0  0
   -2.7512    4.8095   -2.2273 C   0  0  0  0  0  0  0  0  0  0  0  0
   -2.0402    3.6800   -1.8746 C   0  0  0  0  0  0  0  0  0  0  0  0
    0.8905    2.6669   -0.0703 C   0  0  0  0  0  0  0  0  0  0  0  0
    0.4336    3.2338    1.1169 C   0  0  0  0  0  0  0  0  0  0  0  0
    1.2373    3.2541    2.2395 C   0  0  0  0  0  0  0  0  0  0  0  0
    2.5021    2.6831    2.1998 C   0  0  0  0  0  0  0  0  0  0  0  0
    3.5403    2.6028    3.6343 S   0  0  0  0  0  0  0  0  0  0  0  0
    2.3405    2.1750    4.9357 C   0  0  0  0  0  0  0  0  0  0  0  0
    2.9906    2.1812    0.9989 C   0  0  0  0  0  0  0  0  0  0  0  0
    2.1992    2.1885   -0.1304 C   0  0  0  0  0  0  0  0  0  0  0  0
   -0.3505    1.5961   -3.4023 C   0  0  0  0  0  0  0  0  0  0  0  0
   -1.0871    2.8044   -4.4008 S   0  0  0  0  0  0  0  0  0  0  0  0
    0.8585   -0.2872   -0.4329 C   0  0  0  0  0  0  0  0  0  0  0  0
    0.1554   -0.3793    0.7591 C   0  0  0  0  0  0  0  0  0  0  0  0
   -1.1836   -0.0715    0.9116 N   0  0  0  0  0  0  0  0  0  0  0  0
   -2.0609   -0.1232   -0.1836 C   0  0  0  0  0  0  0  0  0  0  0  0
   -1.9587   -1.1158   -1.1585 C   0  0  0  0  0  0  0  0  0  0  0  0
   -2.7467   -1.0660   -2.2880 C   0  0  0  0  0  0  0  0  0  0  0  0
   -3.6775   -0.0449   -2.4492 C   0  0  0  0  0  0  0  0  0  0  0  0
   -4.5816    0.0218   -3.9689 S   0  0  0  0  0  0  0  0  0  0  0  0
   -4.8331    1.8090   -4.2016 C   0  0  0  0  0  0  0  0  0  0  0  0
   -3.8738    0.8677   -1.4218 C   0  0  0  0  0  0  0  0  0  0  0  0
   -3.0618    0.8364   -0.3040 C   0  0  0  0  0  0  0  0  0  0  0  0
   -1.7341    0.1300    2.1893 C   0  0  0  0  0  0  0  0  0  0  0  0
   -2.9395   -0.4817    2.5365 C   0  0  0  0  0  0  0  0  0  0  0  0
   -3.4600   -0.3196    3.8003 C   0  0  0  0  0  0  0  0  0  0  0  0
   -2.7915    0.4549    4.7468 C   0  0  0  0  0  0  0  0  0  0  0  0
   -3.5192    0.5713    6.3511 S   0  0  0  0  0  0  0  0  0  0  0  0
   -2.1313    1.1202    7.3884 C   0  0  0  0  0  0  0  0  0  0  0  0
   -1.6152    1.0981    4.3932 C   0  0  0  0  0  0  0  0  0  0  0  0
   -1.0924    0.9332    3.1247 C   0  0  0  0  0  0  0  0  0  0  0  0
    0.9782   -0.9239    1.7829 C   0  0  0  0  0  0  0  0  0  0  0  0
    0.8034   -1.1915    3.4842 S   0  0  0  0  0  0  0  0  0  0  0  0
    2.4339   -1.8315    3.5795 C   0  0  0  0  0  0  0  0  0  0  0  0
    3.0885   -1.8141    2.3579 C   0  0  0  0  0  0  0  0  0  0  0  0
    4.3990   -2.1939    2.1022 N   0  0  0  0  0  0  0  0  0  0  0  0
    5.4525   -1.7157    2.8851 C   0  0  0  0  0  0  0  0  0  0  0  0
    6.6278   -2.4512    3.0305 C   0  0  0  0  0  0  0  0  0  0  0  0
    7.6620   -1.9825    3.8172 C   0  0  0  0  0  0  0  0  0  0  0  0
    7.5403   -0.7686    4.4795 C   0  0  0  0  0  0  0  0  0  0  0  0
    8.7867   -0.0755    5.5213 S   0  0  0  0  0  0  0  0  0  0  0  0
   10.2125   -1.1761    5.2884 C   0  0  0  0  0  0  0  0  0  0  0  0
    6.3658   -0.0319    4.3400 C   0  0  0  0  0  0  0  0  0  0  0  0
    5.3372   -0.4973    3.5546 C   0  0  0  0  0  0  0  0  0  0  0  0
    4.6312   -3.0052    0.9808 C   0  0  0  0  0  0  0  0  0  0  0  0
    3.7616   -4.0611    0.7043 C   0  0  0  0  0  0  0  0  0  0  0  0
    4.0078   -4.9010   -0.3577 C   0  0  0  0  0  0  0  0  0  0  0  0
    5.1273   -4.7105   -1.1655 C   0  0  0  0  0  0  0  0  0  0  0  0
    5.3927   -5.9078   -2.4324 S   0  0  0  0  0  0  0  0  0  0  0  0
    6.8511   -5.2977   -3.3211 C   0  0  0  0  0  0  0  0  0  0  0  0
    5.9726   -3.6372   -0.9176 C   0  0  0  0  0  0  0  0  0  0  0  0
    5.7220   -2.7901    0.1442 C   0  0  0  0  0  0  0  0  0  0  0  0
    2.2379   -1.3063    1.3477 C   0  0  0  0  0  0  0  0  0  0  0  0
    2.4594   -1.0182   -0.3365 S   0  0  0  0  0  0  0  0  0  0  0  0
    2.7845   -2.3188    4.8784 C   0  0  0  0  0  0  0  0  0  0  0  0
    3.8840   -3.1381    5.1709 C   0  0  0  0  0  0  0  0  0  0  0  0
    4.0062   -3.6531    6.4393 C   0  0  0  0  0  0  0  0  0  0  0  0
    3.0223   -3.3855    7.3994 C   0  0  0  0  0  0  0  0  0  0  0  0
    2.0085   -2.4897    7.0241 C   0  0  0  0  0  0  0  0  0  0  0  0
    1.9004   -1.9776    5.8287 N   0  0  0  0  0  0  0  0  0  0  0  0
    3.0576   -3.9860    8.7044 C   0  0  0  0  0  0  0  0  0  0  0  0
    1.9984   -4.3919    9.4402 C   0  0  0  0  0  0  0  0  0  0  0  0
    2.1573   -4.6862   10.8927 C   0  0  0  0  0  0  0  0  0  0  0  0
    3.2010   -4.8225   11.4896 O   0  0  0  0  0  0  0  0  0  0  0  0
    0.7879   -4.7212   11.4363 C   0  0  0  0  0  0  0  0  0  0  0  0
    0.4156   -4.8538   12.7735 C   0  0  0  0  0  0  0  0  0  0  0  0
   -0.9422   -4.8357   12.9817 C   0  0  0  0  0  0  0  0  0  0  0  0
   -1.8680   -4.6772   11.9404 C   0  0  0  0  0  0  0  0  0  0  0  0
   -1.5180   -4.5451   10.6184 C   0  0  0  0  0  0  0  0  0  0  0  0
   -0.1403   -4.5844   10.3815 C   0  0  0  0  0  0  0  0  0  0  0  0
    0.5889   -4.5400    9.1173 C   0  0  0  0  0  0  0  0  0  0  0  0
    0.0591   -4.8372    7.8907 C   0  0  0  0  0  0  0  0  0  0  0  0
   -1.3123   -5.0757    7.6600 C   0  0  0  0  0  0  0  0  0  0  0  0
   -2.4157   -5.2720    7.4119 N   0  0  0  0  0  0  0  0  0  0  0  0
    0.8142   -5.0533    6.7182 C   0  0  0  0  0  0  0  0  0  0  0  0
    1.3558   -5.3155    5.7404 N   0  0  0  0  0  0  0  0  0  0  0  0
   -3.0506   -4.7509   12.8730 C   0  0  0  0  0  0  0  0  0  0  0  0
   -3.8259   -6.0855   12.8893 C   0  0  0  0  0  0  0  0  0  0  0  0
   -4.5893   -6.0444   14.1933 C   0  0  0  0  0  0  0  0  0  0  0  0
   -3.7139   -6.2003   15.1783 C   0  0  0  0  0  0  0  0  0  0  0  0
   -2.3440   -6.3494   14.5565 C   0  0  0  0  0  0  0  0  0  0  0  0
   -2.7207   -7.0821   13.2623 C   0  0  0  0  0  0  0  0  0  0  0  0
   -2.0196   -4.9338   14.0328 C   0  0  0  0  0  0  0  0  0  0  0  0
   -1.0556    1.3597   -7.8433 H   0  0  0  0  0  0  0  0  0  0  0  0
   -3.4485    7.0394   -6.5730 H   0  0  0  0  0  0  0  0  0  0  0  0
   -2.7209    5.2839  -11.2644 H   0  0  0  0  0  0  0  0  0  0  0  0
   -3.3002    8.6554  -11.3210 H   0  0  0  0  0  0  0  0  0  0  0  0
   -5.5179    7.4077  -12.1093 H   0  0  0  0  0  0  0  0  0  0  0  0
   -5.9109    9.9996  -12.2923 H   0  0  0  0  0  0  0  0  0  0  0  0
   -6.3045   10.9512   -9.8434 H   0  0  0  0  0  0  0  0  0  0  0  0
   -6.1565    8.9459   -8.1531 H   0  0  0  0  0  0  0  0  0  0  0  0
   -7.2908    7.6425  -10.1579 H   0  0  0  0  0  0  0  0  0  0  0  0
   -5.9287    6.6672   -9.5603 H   0  0  0  0  0  0  0  0  0  0  0  0
   -3.6858    9.5877   -8.9205 H   0  0  0  0  0  0  0  0  0  0  0  0
    2.1048   -0.0390   -5.8500 H   0  0  0  0  0  0  0  0  0  0  0  0
    3.9336   -1.6493   -5.4717 H   0  0  0  0  0  0  0  0  0  0  0  0
    2.6046   -6.1218   -4.5149 H   0  0  0  0  0  0  0  0  0  0  0  0
    4.1682   -6.7471   -5.0669 H   0  0  0  0  0  0  0  0  0  0  0  0
    2.9178   -6.3544   -6.2699 H   0  0  0  0  0  0  0  0  0  0  0  0
    1.1614   -4.8805   -5.9058 H   0  0  0  0  0  0  0  0  0  0  0  0
   -0.6460   -3.2825   -6.2643 H   0  0  0  0  0  0  0  0  0  0  0  0
    0.0836   -1.7010   -8.6475 H   0  0  0  0  0  0  0  0  0  0  0  0
   -1.5083   -2.1042  -10.4427 H   0  0  0  0  0  0  0  0  0  0  0  0
   -2.6815   -0.9105  -12.1748 H   0  0  0  0  0  0  0  0  0  0  0  0
   -2.9736   -2.6807  -12.1559 H   0  0  0  0  0  0  0  0  0  0  0  0
   -4.1310   -1.5917  -12.9493 H   0  0  0  0  0  0  0  0  0  0  0  0
   -4.6691   -0.5914   -7.9871 H   0  0  0  0  0  0  0  0  0  0  0  0
   -3.0663   -0.2238   -6.1582 H   0  0  0  0  0  0  0  0  0  0  0  0
    0.9217    5.1078   -1.0938 H   0  0  0  0  0  0  0  0  0  0  0  0
   -0.3436    7.1234   -1.7373 H   0  0  0  0  0  0  0  0  0  0  0  0
   -3.8183    6.1055   -4.4272 H   0  0  0  0  0  0  0  0  0  0  0  0
   -5.0867    6.5107   -3.2240 H   0  0  0  0  0  0  0  0  0  0  0  0
   -4.5761    7.7282   -4.4073 H   0  0  0  0  0  0  0  0  0  0  0  0
   -3.7824    4.7073   -2.5224 H   0  0  0  0  0  0  0  0  0  0  0  0
   -2.5165    2.7142   -1.8929 H   0  0  0  0  0  0  0  0  0  0  0  0
   -0.5626    3.6488    1.1584 H   0  0  0  0  0  0  0  0  0  0  0  0
    0.8678    3.7036    3.1486 H   0  0  0  0  0  0  0  0  0  0  0  0
    2.9307    1.8551    5.7888 H   0  0  0  0  0  0  0  0  0  0  0  0
    1.7471    3.0434    5.2063 H   0  0  0  0  0  0  0  0  0  0  0  0
    1.7113    1.3575    4.5956 H   0  0  0  0  0  0  0  0  0  0  0  0
    3.9941    1.7858    0.9591 H   0  0  0  0  0  0  0  0  0  0  0  0
    2.5920    1.8177   -1.0648 H   0  0  0  0  0  0  0  0  0  0  0  0
   -1.2459   -1.9167   -1.0345 H   0  0  0  0  0  0  0  0  0  0  0  0
   -2.6411   -1.8126   -3.0601 H   0  0  0  0  0  0  0  0  0  0  0  0
   -3.8913    2.3343   -4.0700 H   0  0  0  0  0  0  0  0  0  0  0  0
   -5.5916    2.1784   -3.5177 H   0  0  0  0  0  0  0  0  0  0  0  0
   -5.1792    1.9255   -5.2241 H   0  0  0  0  0  0  0  0  0  0  0  0
   -4.6448    1.6191   -1.4947 H   0  0  0  0  0  0  0  0  0  0  0  0
   -3.1882    1.5739    0.4749 H   0  0  0  0  0  0  0  0  0  0  0  0
   -3.4536   -1.0990    1.8149 H   0  0  0  0  0  0  0  0  0  0  0  0
   -4.3817   -0.8074    4.0772 H   0  0  0  0  0  0  0  0  0  0  0  0
   -1.9233    2.1728    7.2186 H   0  0  0  0  0  0  0  0  0  0  0  0
   -2.4531    0.9737    8.4147 H   0  0  0  0  0  0  0  0  0  0  0  0
   -1.2603    0.5069    7.1772 H   0  0  0  0  0  0  0  0  0  0  0  0
   -1.0940    1.7302    5.0940 H   0  0  0  0  0  0  0  0  0  0  0  0
   -0.1833    1.4405    2.8469 H   0  0  0  0  0  0  0  0  0  0  0  0
    6.7302   -3.4040    2.5315 H   0  0  0  0  0  0  0  0  0  0  0  0
    8.5529   -2.5823    3.9105 H   0  0  0  0  0  0  0  0  0  0  0  0
   11.0248   -0.7229    5.8480 H   0  0  0  0  0  0  0  0  0  0  0  0
    9.9964   -2.1622    5.6894 H   0  0  0  0  0  0  0  0  0  0  0  0
   10.4719   -1.2250    4.2350 H   0  0  0  0  0  0  0  0  0  0  0  0
    6.2728    0.9178    4.8435 H   0  0  0  0  0  0  0  0  0  0  0  0
    4.4422    0.0931    3.4439 H   0  0  0  0  0  0  0  0  0  0  0  0
    2.9062   -4.2288    1.3421 H   0  0  0  0  0  0  0  0  0  0  0  0
    3.3476   -5.7301   -0.5614 H   0  0  0  0  0  0  0  0  0  0  0  0
    7.0259   -6.0090   -4.1222 H   0  0  0  0  0  0  0  0  0  0  0  0
    6.6391   -4.3196   -3.7420 H   0  0  0  0  0  0  0  0  0  0  0  0
    7.7100   -5.2749   -2.6567 H   0  0  0  0  0  0  0  0  0  0  0  0
    6.8302   -3.4473   -1.5424 H   0  0  0  0  0  0  0  0  0  0  0  0
    6.3824   -1.9567    0.3323 H   0  0  0  0  0  0  0  0  0  0  0  0
    4.5970   -3.3970    4.4090 H   0  0  0  0  0  0  0  0  0  0  0  0
    4.8223   -4.3172    6.6831 H   0  0  0  0  0  0  0  0  0  0  0  0
    1.2720   -2.1609    7.7485 H   0  0  0  0  0  0  0  0  0  0  0  0
    4.0303   -4.0904    9.1744 H   0  0  0  0  0  0  0  0  0  0  0  0
    1.1596   -4.9621   13.5469 H   0  0  0  0  0  0  0  0  0  0  0  0
   -2.2373   -4.4114    9.8273 H   0  0  0  0  0  0  0  0  0  0  0  0
   -3.7019   -3.8793   12.8863 H   0  0  0  0  0  0  0  0  0  0  0  0
   -4.4008   -6.2877   11.9899 H   0  0  0  0  0  0  0  0  0  0  0  0
   -5.6446   -5.8575   14.2650 H   0  0  0  0  0  0  0  0  0  0  0  0
   -3.8918   -6.1696   16.2373 H   0  0  0  0  0  0  0  0  0  0  0  0
   -1.5705   -6.7935   15.1774 H   0  0  0  0  0  0  0  0  0  0  0  0
   -1.9138   -7.1437   12.5345 H   0  0  0  0  0  0  0  0  0  0  0  0
   -3.1139   -8.0791   13.4540 H   0  0  0  0  0  0  0  0  0  0  0  0
   -1.9837   -4.1859   14.8228 H   0  0  0  0  0  0  0  0  0  0  0  0
  1  2  2  0  0  0  0
  2  3  1  0  0  0  0
  3  4  2  0  0  0  0
  3  5  1  0  0  0  0
  5  6  2  0  0  0  0
  6  7  1  0  0  0  0
  7  8  2  0  0  0  0
  8  9  1  0  0  0  0
  9 10  2  0  0  0  0
 10 11  1  0  0  0  0
 11 12  2  0  0  0  0
 12 13  1  0  0  0  0
 13 14  3  0  0  0  0
 12 15  1  0  0  0  0
 15 16  3  0  0  0  0
  8 17  1  0  0  0  0
 17 18  1  0  0  0  0
 18 19  1  0  0  0  0
 19 20  2  0  0  0  0
 20 21  1  0  0  0  0
 21 22  1  0  0  0  0
 21 23  1  0  0  0  0
  1 24  1  0  0  0  0
 24 25  2  0  0  0  0
 25 26  1  0  0  0  0
 26 27  1  0  0  0  0
 27 28  2  0  0  0  0
 28 29  1  0  0  0  0
 29 30  2  0  0  0  0
 30 31  1  0  0  0  0
 31 32  1  0  0  0  0
 30 33  1  0  0  0  0
 33 34  2  0  0  0  0
 26 35  1  0  0  0  0
 35 36  2  0  0  0  0
 36 37  1  0  0  0  0
 37 38  2  0  0  0  0
 38 39  1  0  0  0  0
 39 40  1  0  0  0  0
 38 41  1  0  0  0  0
 41 42  2  0  0  0  0
 25 43  1  0  0  0  0
 43 44  1  0  0  0  0
 44 45  1  0  0  0  0
 45 46  2  0  0  0  0
 46 47  1  0  0  0  0
 47 48  1  0  0  0  0
 48 49  2  0  0  0  0
 49 50  1  0  0  0  0
 50 51  2  0  0  0  0
 51 52  1  0  0  0  0
 52 53  1  0  0  0  0
 51 54  1  0  0  0  0
 54 55  2  0  0  0  0
 47 56  1  0  0  0  0
 56 57  2  0  0  0  0
 57 58  1  0  0  0  0
 58 59  2  0  0  0  0
 59 60  1  0  0  0  0
 60 61  1  0  0  0  0
 59 62  1  0  0  0  0
 62 63  2  0  0  0  0
 46 64  1  0  0  0  0
 64 65  1  0  0  0  0
 45 66  1  0  0  0  0
 66 67  2  0  0  0  0
 67 68  1  0  0  0  0
 68 69  1  0  0  0  0
 69 70  2  0  0  0  0
 70 71  1  0  0  0  0
 71 72  2  0  0  0  0
 72 73  1  0  0  0  0
 73 74  1  0  0  0  0
 72 75  1  0  0  0  0
 75 76  2  0  0  0  0
 68 77  1  0  0  0  0
 77 78  2  0  0  0  0
 78 79  1  0  0  0  0
 79 80  2  0  0  0  0
 80 81  1  0  0  0  0
 81 82  1  0  0  0  0
 80 83  1  0  0  0  0
 83 84  2  0  0  0  0
 67 85  1  0  0  0  0
 85 86  1  0  0  0  0
 86 87  1  0  0  0  0
 87 88  2  0  0  0  0
 88 89  1  0  0  0  0
 89 90  1  0  0  0  0
 90 91  2  0  0  0  0
 91 92  1  0  0  0  0
 92 93  2  0  0  0  0
 93 94  1  0  0  0  0
 94 95  1  0  0  0  0
 93 96  1  0  0  0  0
 96 97  2  0  0  0  0
 89 98  1  0  0  0  0
 98 99  2  0  0  0  0
 99100  1  0  0  0  0
100101  2  0  0  0  0
101102  1  0  0  0  0
102103  1  0  0  0  0
101104  1  0  0  0  0
104105  2  0  0  0  0
 88106  1  0  0  0  0
106107  1  0  0  0  0
 87108  1  0  0  0  0
108109  2  0  0  0  0
109110  1  0  0  0  0
110111  2  0  0  0  0
111112  1  0  0  0  0
112113  2  0  0  0  0
111114  1  0  0  0  0
114115  2  0  0  0  0
115116  1  0  0  0  0
116117  2  0  0  0  0
116118  1  0  0  0  0
118119  2  0  0  0  0
119120  1  0  0  0  0
120121  2  0  0  0  0
121122  1  0  0  0  0
122123  2  0  0  0  0
123124  1  0  0  0  0
124125  2  0  0  0  0
125126  1  0  0  0  0
126127  3  0  0  0  0
125128  1  0  0  0  0
128129  3  0  0  0  0
121130  1  0  0  0  0
130131  1  0  0  0  0
131132  1  0  0  0  0
132133  2  0  0  0  0
133134  1  0  0  0  0
134135  1  0  0  0  0
134136  1  0  0  0  0
 11  2  1  0  0  0  0
 23 17  1  0  0  0  0
 65 24  1  0  0  0  0
107 66  1  0  0  0  0
113108  1  0  0  0  0
124115  1  0  0  0  0
136130  1  0  0  0  0
 10  5  1  0  0  0  0
 22 18  1  0  0  0  0
 34 27  1  0  0  0  0
 42 35  1  0  0  0  0
 64 43  2  0  0  0  0
 76 69  1  0  0  0  0
 84 77  1  0  0  0  0
106 85  2  0  0  0  0
123118  1  0  0  0  0
135131  1  0  0  0  0
 23  7  1  0  0  0  0
 55 48  1  0  0  0  0
 63 56  1  0  0  0  0
 97 90  1  0  0  0  0
105 98  1  0  0  0  0
136120  1  0  0  0  0
  1137  1  0  0  0  0
  6138  1  0  0  0  0
  9139  1  0  0  0  0
 17140  1  0  0  0  0
 18141  1  0  0  0  0
 19142  1  0  0  0  0
 20143  1  0  0  0  0
 21144  1  0  0  0  0
 22145  1  0  0  0  0
 22146  1  0  0  0  0
 23147  1  0  0  0  0
 28148  1  0  0  0  0
 29149  1  0  0  0  0
 32150  1  0  0  0  0
 32151  1  0  0  0  0
 32152  1  0  0  0  0
 33153  1  0  0  0  0
 34154  1  0  0  0  0
 36155  1  0  0  0  0
 37156  1  0  0  0  0
 40157  1  0  0  0  0
 40158  1  0  0  0  0
 40159  1  0  0  0  0
 41160  1  0  0  0  0
 42161  1  0  0  0  0
 49162  1  0  0  0  0
 50163  1  0  0  0  0
 53164  1  0  0  0  0
 53165  1  0  0  0  0
 53166  1  0  0  0  0
 54167  1  0  0  0  0
 55168  1  0  0  0  0
 57169  1  0  0  0  0
 58170  1  0  0  0  0
 61171  1  0  0  0  0
 61172  1  0  0  0  0
 61173  1  0  0  0  0
 62174  1  0  0  0  0
 63175  1  0  0  0  0
 70176  1  0  0  0  0
 71177  1  0  0  0  0
 74178  1  0  0  0  0
 74179  1  0  0  0  0
 74180  1  0  0  0  0
 75181  1  0  0  0  0
 76182  1  0  0  0  0
 78183  1  0  0  0  0
 79184  1  0  0  0  0
 82185  1  0  0  0  0
 82186  1  0  0  0  0
 82187  1  0  0  0  0
 83188  1  0  0  0  0
 84189  1  0  0  0  0
 91190  1  0  0  0  0
 92191  1  0  0  0  0
 95192  1  0  0  0  0
 95193  1  0  0  0  0
 95194  1  0  0  0  0
 96195  1  0  0  0  0
 97196  1  0  0  0  0
 99197  1  0  0  0  0
100198  1  0  0  0  0
103199  1  0  0  0  0
103200  1  0  0  0  0
103201  1  0  0  0  0
104202  1  0  0  0  0
105203  1  0  0  0  0
109204  1  0  0  0  0
110205  1  0  0  0  0
112206  1  0  0  0  0
114207  1  0  0  0  0
119208  1  0  0  0  0
122209  1  0  0  0  0
130210  1  0  0  0  0
131211  1  0  0  0  0
132212  1  0  0  0  0
133213  1  0  0  0  0
134214  1  0  0  0  0
135215  1  0  0  0  0
135216  1  0  0  0  0
136217  1  0  0  0  0
M  END
