
  xtb     02142218553D
 energy: -334.356939655757 gnorm: 0.000451878423 xtb: 6.4.1 (unknown)
203221  0     0  0            999 V2000
    5.4545    4.4586    2.2884 C   0  0  0  0  0  0  0  0  0  0  0  0
    5.6501    4.1365    3.6106 C   0  0  0  0  0  0  0  0  0  0  0  0
    4.7861    3.2997    4.4570 C   0  0  0  0  0  0  0  0  0  0  0  0
    3.9557    2.4809    4.1077 O   0  0  0  0  0  0  0  0  0  0  0  0
    5.1210    3.6500    5.8510 C   0  0  0  0  0  0  0  0  0  0  0  0
    4.5069    3.1765    7.0074 C   0  0  0  0  0  0  0  0  0  0  0  0
    5.0383    3.6826    8.1698 C   0  0  0  0  0  0  0  0  0  0  0  0
    6.0988    4.5980    8.1825 C   0  0  0  0  0  0  0  0  0  0  0  0
    6.7185    5.0685    7.0487 C   0  0  0  0  0  0  0  0  0  0  0  0
    6.1976    4.5590    5.8575 C   0  0  0  0  0  0  0  0  0  0  0  0
    6.6177    4.7728    4.4757 C   0  0  0  0  0  0  0  0  0  0  0  0
    7.8040    5.3412    4.0830 C   0  0  0  0  0  0  0  0  0  0  0  0
    8.3465    5.2080    2.7936 C   0  0  0  0  0  0  0  0  0  0  0  0
    8.9044    5.0426    1.8023 N   0  0  0  0  0  0  0  0  0  0  0  0
    8.7034    5.9912    4.9509 C   0  0  0  0  0  0  0  0  0  0  0  0
    9.4673    6.5526    5.5991 N   0  0  0  0  0  0  0  0  0  0  0  0
    6.1233    4.6710    9.6886 C   0  0  0  0  0  0  0  0  0  0  0  0
    7.2440    3.8981   10.4268 C   0  0  0  0  0  0  0  0  0  0  0  0
    7.6418    2.7559    9.5251 C   0  0  0  0  0  0  0  0  0  0  0  0
    6.6424    1.8840    9.5119 C   0  0  0  0  0  0  0  0  0  0  0  0
    5.5510    2.4209   10.4045 C   0  0  0  0  0  0  0  0  0  0  0  0
    6.3987    3.1422   11.4644 C   0  0  0  0  0  0  0  0  0  0  0  0
    4.9457    3.6460    9.6748 C   0  0  0  0  0  0  0  0  0  0  0  0
    4.5161    3.9520    1.3785 C   0  0  0  0  0  0  0  0  0  0  0  0
    4.1361    4.5722    0.1656 C   0  0  0  0  0  0  0  0  0  0  0  0
    4.5276    5.8154   -0.2772 N   0  0  0  0  0  0  0  0  0  0  0  0
    5.8698    6.2274   -0.2836 C   0  0  0  0  0  0  0  0  0  0  0  0
    6.8812    5.3398   -0.6397 C   0  0  0  0  0  0  0  0  0  0  0  0
    8.1938    5.7606   -0.6912 C   0  0  0  0  0  0  0  0  0  0  0  0
    8.5168    7.0763   -0.3762 C   0  0  0  0  0  0  0  0  0  0  0  0
   10.1573    7.7085   -0.4093 S   0  0  0  0  0  0  0  0  0  0  0  0
   11.1755    6.2085   -0.3169 C   0  0  0  0  0  0  0  0  0  0  0  0
    7.5035    7.9679   -0.0268 C   0  0  0  0  0  0  0  0  0  0  0  0
    6.1926    7.5510    0.0180 C   0  0  0  0  0  0  0  0  0  0  0  0
    3.5661    6.6310   -0.8962 C   0  0  0  0  0  0  0  0  0  0  0  0
    3.8858    7.3926   -2.0203 C   0  0  0  0  0  0  0  0  0  0  0  0
    2.9286    8.1822   -2.6151 C   0  0  0  0  0  0  0  0  0  0  0  0
    1.6295    8.2271   -2.1103 C   0  0  0  0  0  0  0  0  0  0  0  0
    0.4901    9.2653   -2.9662 S   0  0  0  0  0  0  0  0  0  0  0  0
   -1.1002    8.9298   -2.1562 C   0  0  0  0  0  0  0  0  0  0  0  0
    1.3103    7.4791   -0.9849 C   0  0  0  0  0  0  0  0  0  0  0  0
    2.2729    6.6938   -0.3831 C   0  0  0  0  0  0  0  0  0  0  0  0
    3.1785    3.7996   -0.5189 C   0  0  0  0  0  0  0  0  0  0  0  0
    2.3643    3.9720   -2.0447 S   0  0  0  0  0  0  0  0  0  0  0  0
    1.5537    2.4604   -1.7805 C   0  0  0  0  0  0  0  0  0  0  0  0
    1.9135    1.8391   -0.6047 C   0  0  0  0  0  0  0  0  0  0  0  0
    1.4329    0.5640   -0.2671 N   0  0  0  0  0  0  0  0  0  0  0  0
    0.5952    0.3946    0.8216 C   0  0  0  0  0  0  0  0  0  0  0  0
    0.1802    1.4941    1.5777 C   0  0  0  0  0  0  0  0  0  0  0  0
   -0.6840    1.3298    2.6393 C   0  0  0  0  0  0  0  0  0  0  0  0
   -1.1664    0.0699    2.9526 C   0  0  0  0  0  0  0  0  0  0  0  0
   -2.3198   -0.1429    4.2996 S   0  0  0  0  0  0  0  0  0  0  0  0
   -1.1076   -0.3703    5.6393 C   0  0  0  0  0  0  0  0  0  0  0  0
   -0.7464   -1.0307    2.2244 C   0  0  0  0  0  0  0  0  0  0  0  0
    0.1501   -0.8774    1.1901 C   0  0  0  0  0  0  0  0  0  0  0  0
    1.5779   -0.3997   -1.2890 C   0  0  0  0  0  0  0  0  0  0  0  0
    0.5157   -1.1569   -1.7706 C   0  0  0  0  0  0  0  0  0  0  0  0
    0.6910   -2.0031   -2.8491 C   0  0  0  0  0  0  0  0  0  0  0  0
    1.9287   -2.1148   -3.4651 C   0  0  0  0  0  0  0  0  0  0  0  0
    2.2362   -3.1552   -4.8567 S   0  0  0  0  0  0  0  0  0  0  0  0
    0.5728   -3.5227   -5.4862 C   0  0  0  0  0  0  0  0  0  0  0  0
    3.0032   -1.3804   -2.9667 C   0  0  0  0  0  0  0  0  0  0  0  0
    2.8286   -0.5338   -1.8952 C   0  0  0  0  0  0  0  0  0  0  0  0
    2.8530    2.6082    0.1182 C   0  0  0  0  0  0  0  0  0  0  0  0
    3.6477    2.4331    1.6339 S   0  0  0  0  0  0  0  0  0  0  0  0
    0.5414    1.8814   -2.6564 C   0  0  0  0  0  0  0  0  0  0  0  0
    0.8025    1.3307   -3.8881 C   0  0  0  0  0  0  0  0  0  0  0  0
    2.0146    1.4680   -4.4453 F   0  0  0  0  0  0  0  0  0  0  0  0
   -0.1569    0.5505   -4.5541 C   0  0  0  0  0  0  0  0  0  0  0  0
    0.2030   -0.0075   -5.7249 F   0  0  0  0  0  0  0  0  0  0  0  0
   -1.3862    0.2595   -4.0007 C   0  0  0  0  0  0  0  0  0  0  0  0
   -1.7094    0.8813   -2.7663 C   0  0  0  0  0  0  0  0  0  0  0  0
   -2.9000    0.6569   -2.1834 N   0  0  0  0  0  0  0  0  0  0  0  0
   -3.1960    1.2694   -1.0664 C   0  0  0  0  0  0  0  0  0  0  0  0
   -4.4674    0.8591   -0.3932 C   0  0  0  0  0  0  0  0  0  0  0  0
   -4.1531   -0.0416    0.8045 C   0  0  0  0  0  0  0  0  0  0  0  0
   -2.3146    2.2537   -0.5258 C   0  0  0  0  0  0  0  0  0  0  0  0
   -1.1242    2.4285   -1.0389 N   0  0  0  0  0  0  0  0  0  0  0  0
   -0.7690    1.7273   -2.1296 C   0  0  0  0  0  0  0  0  0  0  0  0
   -2.7199    3.2066    0.5553 C   0  0  0  0  0  0  0  0  0  0  0  0
   -3.5082    4.3709   -0.0524 C   0  0  0  0  0  0  0  0  0  0  0  0
   -2.3442   -0.6307   -4.6576 C   0  0  0  0  0  0  0  0  0  0  0  0
   -2.6398   -0.4633   -5.9973 C   0  0  0  0  0  0  0  0  0  0  0  0
   -3.5792   -1.2587   -6.6392 C   0  0  0  0  0  0  0  0  0  0  0  0
   -4.3281   -2.2054   -5.9525 C   0  0  0  0  0  0  0  0  0  0  0  0
   -4.0481   -2.3952   -4.5709 C   0  0  0  0  0  0  0  0  0  0  0  0
   -4.7241   -3.3290   -3.8760 N   0  0  0  0  0  0  0  0  0  0  0  0
   -4.3597   -3.6132   -2.6527 C   0  0  0  0  0  0  0  0  0  0  0  0
   -5.0441   -4.6958   -1.9283 C   0  0  0  0  0  0  0  0  0  0  0  0
   -6.3694   -4.5813   -1.5289 C   0  0  0  0  0  0  0  0  0  0  0  0
   -6.9620   -5.5891   -0.7927 C   0  0  0  0  0  0  0  0  0  0  0  0
   -6.2567   -6.7368   -0.4562 C   0  0  0  0  0  0  0  0  0  0  0  0
   -6.8846   -7.7969    0.4003 C   0  0  0  0  0  0  0  0  0  0  0  0
   -6.6206   -7.4997    1.8781 C   0  0  0  0  0  0  0  0  0  0  0  0
   -4.9373   -6.8550   -0.8771 C   0  0  0  0  0  0  0  0  0  0  0  0
   -4.3318   -5.8457   -1.5977 C   0  0  0  0  0  0  0  0  0  0  0  0
   -3.2391   -2.9434   -2.0547 C   0  0  0  0  0  0  0  0  0  0  0  0
   -2.6069   -1.9927   -2.6921 N   0  0  0  0  0  0  0  0  0  0  0  0
   -3.0042   -1.6642   -3.9394 C   0  0  0  0  0  0  0  0  0  0  0  0
   -2.7928   -3.3763   -0.7199 C   0  0  0  0  0  0  0  0  0  0  0  0
   -3.7109   -3.4771    0.3254 C   0  0  0  0  0  0  0  0  0  0  0  0
   -3.3382   -4.0282    1.5336 C   0  0  0  0  0  0  0  0  0  0  0  0
   -2.0494   -4.5122    1.7332 C   0  0  0  0  0  0  0  0  0  0  0  0
   -1.6868   -5.1952    3.0218 C   0  0  0  0  0  0  0  0  0  0  0  0
   -1.2837   -4.2017    4.1134 C   0  0  0  0  0  0  0  0  0  0  0  0
   -1.1225   -4.3566    0.7100 C   0  0  0  0  0  0  0  0  0  0  0  0
   -1.4838   -3.7912   -0.4996 C   0  0  0  0  0  0  0  0  0  0  0  0
   -5.2990   -2.9646   -6.6824 C   0  0  0  0  0  0  0  0  0  0  0  0
   -6.3489   -3.7028   -6.2642 C   0  0  0  0  0  0  0  0  0  0  0  0
   -6.9656   -3.9616   -4.6574 S   0  0  0  0  0  0  0  0  0  0  0  0
   -8.4408   -4.6698   -5.3272 C   0  0  0  0  0  0  0  0  0  0  0  0
   -9.4898   -5.0150   -4.5167 C   0  0  0  0  0  0  0  0  0  0  0  0
   -9.4915   -4.6467   -3.1576 C   0  0  0  0  0  0  0  0  0  0  0  0
   -9.5504   -4.3309   -2.0559 N   0  0  0  0  0  0  0  0  0  0  0  0
  -10.6425   -5.7273   -4.8923 C   0  0  0  0  0  0  0  0  0  0  0  0
  -11.5903   -6.3379   -5.1107 N   0  0  0  0  0  0  0  0  0  0  0  0
   -8.3579   -4.8458   -6.6731 N   0  0  0  0  0  0  0  0  0  0  0  0
   -9.4161   -5.3752   -7.5079 C   0  0  0  0  0  0  0  0  0  0  0  0
  -10.6146   -4.4603   -7.5935 C   0  0  0  0  0  0  0  0  0  0  0  0
  -10.4951   -3.0907   -7.4065 C   0  0  0  0  0  0  0  0  0  0  0  0
  -11.6071   -2.2720   -7.5035 C   0  0  0  0  0  0  0  0  0  0  0  0
  -12.8453   -2.8138   -7.7968 C   0  0  0  0  0  0  0  0  0  0  0  0
  -12.9679   -4.1788   -7.9967 C   0  0  0  0  0  0  0  0  0  0  0  0
  -11.8595   -4.9978   -7.8940 C   0  0  0  0  0  0  0  0  0  0  0  0
   -7.2285   -4.3195   -7.2699 C   0  0  0  0  0  0  0  0  0  0  0  0
   -7.0222   -4.3579   -8.4616 O   0  0  0  0  0  0  0  0  0  0  0  0
    6.0637    5.2699    1.9014 H   0  0  0  0  0  0  0  0  0  0  0  0
    3.6922    2.4712    6.9540 H   0  0  0  0  0  0  0  0  0  0  0  0
    7.5334    5.7732    7.0713 H   0  0  0  0  0  0  0  0  0  0  0  0
    5.9401    5.6520   10.1225 H   0  0  0  0  0  0  0  0  0  0  0  0
    8.0535    4.5213   10.7972 H   0  0  0  0  0  0  0  0  0  0  0  0
    8.5560    2.7286    8.9616 H   0  0  0  0  0  0  0  0  0  0  0  0
    6.5546    0.9823    8.9344 H   0  0  0  0  0  0  0  0  0  0  0  0
    4.8192    1.6980   10.7559 H   0  0  0  0  0  0  0  0  0  0  0  0
    6.9894    2.4562   12.0697 H   0  0  0  0  0  0  0  0  0  0  0  0
    5.8182    3.7979   12.1120 H   0  0  0  0  0  0  0  0  0  0  0  0
    3.9946    3.9558   10.1041 H   0  0  0  0  0  0  0  0  0  0  0  0
    6.6306    4.3179   -0.8834 H   0  0  0  0  0  0  0  0  0  0  0  0
    8.9556    5.0593   -0.9856 H   0  0  0  0  0  0  0  0  0  0  0  0
   10.7740    5.5657    0.4601 H   0  0  0  0  0  0  0  0  0  0  0  0
   12.1738    6.5431   -0.0526 H   0  0  0  0  0  0  0  0  0  0  0  0
   11.1985    5.7081   -1.2808 H   0  0  0  0  0  0  0  0  0  0  0  0
    7.7611    8.9873    0.2158 H   0  0  0  0  0  0  0  0  0  0  0  0
    5.4085    8.2409    0.2932 H   0  0  0  0  0  0  0  0  0  0  0  0
    4.8841    7.3525   -2.4282 H   0  0  0  0  0  0  0  0  0  0  0  0
    3.1717    8.7672   -3.4885 H   0  0  0  0  0  0  0  0  0  0  0  0
   -1.3254    7.8689   -2.2123 H   0  0  0  0  0  0  0  0  0  0  0  0
   -1.0785    9.2773   -1.1274 H   0  0  0  0  0  0  0  0  0  0  0  0
   -1.8381    9.4942   -2.7179 H   0  0  0  0  0  0  0  0  0  0  0  0
    0.3202    7.5036   -0.5595 H   0  0  0  0  0  0  0  0  0  0  0  0
    2.0197    6.1239    0.4991 H   0  0  0  0  0  0  0  0  0  0  0  0
    0.5232    2.4828    1.3195 H   0  0  0  0  0  0  0  0  0  0  0  0
   -1.0001    2.1833    3.2204 H   0  0  0  0  0  0  0  0  0  0  0  0
   -1.6712   -0.4725    6.5605 H   0  0  0  0  0  0  0  0  0  0  0  0
   -0.4594    0.4998    5.6855 H   0  0  0  0  0  0  0  0  0  0  0  0
   -0.5273   -1.2686    5.4491 H   0  0  0  0  0  0  0  0  0  0  0  0
   -1.1281   -2.0090    2.4644 H   0  0  0  0  0  0  0  0  0  0  0  0
    0.5016   -1.7495    0.6625 H   0  0  0  0  0  0  0  0  0  0  0  0
   -0.4680   -1.0735   -1.3353 H   0  0  0  0  0  0  0  0  0  0  0  0
   -0.1656   -2.5460   -3.2145 H   0  0  0  0  0  0  0  0  0  0  0  0
    0.0312   -2.5964   -5.6505 H   0  0  0  0  0  0  0  0  0  0  0  0
    0.0402   -4.1766   -4.8012 H   0  0  0  0  0  0  0  0  0  0  0  0
    0.7261   -4.0324   -6.4323 H   0  0  0  0  0  0  0  0  0  0  0  0
    3.9684   -1.4723   -3.4396 H   0  0  0  0  0  0  0  0  0  0  0  0
    3.6605    0.0478   -1.5271 H   0  0  0  0  0  0  0  0  0  0  0  0
   -5.0656    0.3040   -1.1172 H   0  0  0  0  0  0  0  0  0  0  0  0
   -5.0327    1.7310   -0.0627 H   0  0  0  0  0  0  0  0  0  0  0  0
   -5.0752   -0.4146    1.2422 H   0  0  0  0  0  0  0  0  0  0  0  0
   -3.5486   -0.8886    0.4896 H   0  0  0  0  0  0  0  0  0  0  0  0
   -3.6020    0.4923    1.5744 H   0  0  0  0  0  0  0  0  0  0  0  0
   -1.8145    3.5948    1.0202 H   0  0  0  0  0  0  0  0  0  0  0  0
   -3.3209    2.7051    1.3121 H   0  0  0  0  0  0  0  0  0  0  0  0
   -3.7956    5.0733    0.7259 H   0  0  0  0  0  0  0  0  0  0  0  0
   -2.8964    4.8925   -0.7851 H   0  0  0  0  0  0  0  0  0  0  0  0
   -4.4090    4.0171   -0.5493 H   0  0  0  0  0  0  0  0  0  0  0  0
   -2.1350    0.3071   -6.5601 H   0  0  0  0  0  0  0  0  0  0  0  0
   -3.7581   -1.1137   -7.6942 H   0  0  0  0  0  0  0  0  0  0  0  0
   -6.9313   -3.6923   -1.7711 H   0  0  0  0  0  0  0  0  0  0  0  0
   -7.9901   -5.4770   -0.4842 H   0  0  0  0  0  0  0  0  0  0  0  0
   -6.4687   -8.7747    0.1493 H   0  0  0  0  0  0  0  0  0  0  0  0
   -7.9614   -7.8250    0.2252 H   0  0  0  0  0  0  0  0  0  0  0  0
   -5.5502   -7.4660    2.0710 H   0  0  0  0  0  0  0  0  0  0  0  0
   -7.0643   -8.2683    2.5063 H   0  0  0  0  0  0  0  0  0  0  0  0
   -7.0484   -6.5377    2.1504 H   0  0  0  0  0  0  0  0  0  0  0  0
   -4.3751   -7.7447   -0.6320 H   0  0  0  0  0  0  0  0  0  0  0  0
   -3.3033   -5.9493   -1.9135 H   0  0  0  0  0  0  0  0  0  0  0  0
   -4.7234   -3.1298    0.1881 H   0  0  0  0  0  0  0  0  0  0  0  0
   -4.0673   -4.1104    2.3262 H   0  0  0  0  0  0  0  0  0  0  0  0
   -2.5476   -5.7703    3.3708 H   0  0  0  0  0  0  0  0  0  0  0  0
   -0.8616   -5.8891    2.8487 H   0  0  0  0  0  0  0  0  0  0  0  0
   -2.0719   -3.4683    4.2717 H   0  0  0  0  0  0  0  0  0  0  0  0
   -0.3686   -3.6822    3.8363 H   0  0  0  0  0  0  0  0  0  0  0  0
   -1.1078   -4.7266    5.0499 H   0  0  0  0  0  0  0  0  0  0  0  0
   -0.1088   -4.7049    0.8504 H   0  0  0  0  0  0  0  0  0  0  0  0
   -0.7567   -3.7107   -1.2926 H   0  0  0  0  0  0  0  0  0  0  0  0
   -5.2017   -2.9184   -7.7632 H   0  0  0  0  0  0  0  0  0  0  0  0
   -9.7149   -6.3624   -7.1455 H   0  0  0  0  0  0  0  0  0  0  0  0
   -8.9707   -5.4859   -8.5047 H   0  0  0  0  0  0  0  0  0  0  0  0
   -9.5318   -2.6502   -7.1873 H   0  0  0  0  0  0  0  0  0  0  0  0
  -11.5018   -1.2083   -7.3491 H   0  0  0  0  0  0  0  0  0  0  0  0
  -13.7124   -2.1746   -7.8692 H   0  0  0  0  0  0  0  0  0  0  0  0
  -13.9311   -4.6083   -8.2263 H   0  0  0  0  0  0  0  0  0  0  0  0
  -11.9592   -6.0632   -8.0361 H   0  0  0  0  0  0  0  0  0  0  0  0
  1  2  2  0  0  0  0
  2  3  1  0  0  0  0
  3  4  2  0  0  0  0
  3  5  1  0  0  0  0
  5  6  2  0  0  0  0
  6  7  1  0  0  0  0
  7  8  2  0  0  0  0
  8  9  1  0  0  0  0
  9 10  2  0  0  0  0
 10 11  1  0  0  0  0
 11 12  2  0  0  0  0
 12 13  1  0  0  0  0
 13 14  3  0  0  0  0
 12 15  1  0  0  0  0
 15 16  3  0  0  0  0
  8 17  1  0  0  0  0
 17 18  1  0  0  0  0
 18 19  1  0  0  0  0
 19 20  2  0  0  0  0
 20 21  1  0  0  0  0
 21 22  1  0  0  0  0
 21 23  1  0  0  0  0
  1 24  1  0  0  0  0
 24 25  2  0  0  0  0
 25 26  1  0  0  0  0
 26 27  1  0  0  0  0
 27 28  2  0  0  0  0
 28 29  1  0  0  0  0
 29 30  2  0  0  0  0
 30 31  1  0  0  0  0
 31 32  1  0  0  0  0
 30 33  1  0  0  0  0
 33 34  2  0  0  0  0
 26 35  1  0  0  0  0
 35 36  2  0  0  0  0
 36 37  1  0  0  0  0
 37 38  2  0  0  0  0
 38 39  1  0  0  0  0
 39 40  1  0  0  0  0
 38 41  1  0  0  0  0
 41 42  2  0  0  0  0
 25 43  1  0  0  0  0
 43 44  1  0  0  0  0
 44 45  1  0  0  0  0
 45 46  2  0  0  0  0
 46 47  1  0  0  0  0
 47 48  1  0  0  0  0
 48 49  2  0  0  0  0
 49 50  1  0  0  0  0
 50 51  2  0  0  0  0
 51 52  1  0  0  0  0
 52 53  1  0  0  0  0
 51 54  1  0  0  0  0
 54 55  2  0  0  0  0
 47 56  1  0  0  0  0
 56 57  2  0  0  0  0
 57 58  1  0  0  0  0
 58 59  2  0  0  0  0
 59 60  1  0  0  0  0
 60 61  1  0  0  0  0
 59 62  1  0  0  0  0
 62 63  2  0  0  0  0
 46 64  1  0  0  0  0
 64 65  1  0  0  0  0
 45 66  1  0  0  0  0
 66 67  2  0  0  0  0
 67 68  1  0  0  0  0
 67 69  1  0  0  0  0
 69 70  1  0  0  0  0
 69 71  2  0  0  0  0
 71 72  1  0  0  0  0
 72 73  2  0  0  0  0
 73 74  1  0  0  0  0
 74 75  1  0  0  0  0
 75 76  1  0  0  0  0
 74 77  2  0  0  0  0
 77 78  1  0  0  0  0
 78 79  2  0  0  0  0
 77 80  1  0  0  0  0
 80 81  1  0  0  0  0
 71 82  1  0  0  0  0
 82 83  2  0  0  0  0
 83 84  1  0  0  0  0
 84 85  2  0  0  0  0
 85 86  1  0  0  0  0
 86 87  2  0  0  0  0
 87 88  1  0  0  0  0
 88 89  1  0  0  0  0
 89 90  2  0  0  0  0
 90 91  1  0  0  0  0
 91 92  2  0  0  0  0
 92 93  1  0  0  0  0
 93 94  1  0  0  0  0
 92 95  1  0  0  0  0
 95 96  2  0  0  0  0
 88 97  2  0  0  0  0
 97 98  1  0  0  0  0
 98 99  2  0  0  0  0
 97100  1  0  0  0  0
100101  2  0  0  0  0
101102  1  0  0  0  0
102103  2  0  0  0  0
103104  1  0  0  0  0
104105  1  0  0  0  0
103106  1  0  0  0  0
106107  2  0  0  0  0
 85108  1  0  0  0  0
108109  2  0  0  0  0
109110  1  0  0  0  0
110111  1  0  0  0  0
111112  2  0  0  0  0
112113  1  0  0  0  0
113114  3  0  0  0  0
112115  1  0  0  0  0
115116  3  0  0  0  0
111117  1  0  0  0  0
117118  1  0  0  0  0
118119  1  0  0  0  0
119120  2  0  0  0  0
120121  1  0  0  0  0
121122  2  0  0  0  0
122123  1  0  0  0  0
123124  2  0  0  0  0
117125  1  0  0  0  0
125126  2  0  0  0  0
 11  2  1  0  0  0  0
 23 17  1  0  0  0  0
 65 24  1  0  0  0  0
 79 66  1  0  0  0  0
 99 82  1  0  0  0  0
107100  1  0  0  0  0
125109  1  0  0  0  0
 10  5  1  0  0  0  0
 22 18  1  0  0  0  0
 34 27  1  0  0  0  0
 42 35  1  0  0  0  0
 64 43  2  0  0  0  0
 79 72  1  0  0  0  0
 99 86  1  0  0  0  0
124119  1  0  0  0  0
 23  7  1  0  0  0  0
 55 48  1  0  0  0  0
 63 56  1  0  0  0  0
 96 89  1  0  0  0  0
  1127  1  0  0  0  0
  6128  1  0  0  0  0
  9129  1  0  0  0  0
 17130  1  0  0  0  0
 18131  1  0  0  0  0
 19132  1  0  0  0  0
 20133  1  0  0  0  0
 21134  1  0  0  0  0
 22135  1  0  0  0  0
 22136  1  0  0  0  0
 23137  1  0  0  0  0
 28138  1  0  0  0  0
 29139  1  0  0  0  0
 32140  1  0  0  0  0
 32141  1  0  0  0  0
 32142  1  0  0  0  0
 33143  1  0  0  0  0
 34144  1  0  0  0  0
 36145  1  0  0  0  0
 37146  1  0  0  0  0
 40147  1  0  0  0  0
 40148  1  0  0  0  0
 40149  1  0  0  0  0
 41150  1  0  0  0  0
 42151  1  0  0  0  0
 49152  1  0  0  0  0
 50153  1  0  0  0  0
 53154  1  0  0  0  0
 53155  1  0  0  0  0
 53156  1  0  0  0  0
 54157  1  0  0  0  0
 55158  1  0  0  0  0
 57159  1  0  0  0  0
 58160  1  0  0  0  0
 61161  1  0  0  0  0
 61162  1  0  0  0  0
 61163  1  0  0  0  0
 62164  1  0  0  0  0
 63165  1  0  0  0  0
 75166  1  0  0  0  0
 75167  1  0  0  0  0
 76168  1  0  0  0  0
 76169  1  0  0  0  0
 76170  1  0  0  0  0
 80171  1  0  0  0  0
 80172  1  0  0  0  0
 81173  1  0  0  0  0
 81174  1  0  0  0  0
 81175  1  0  0  0  0
 83176  1  0  0  0  0
 84177  1  0  0  0  0
 90178  1  0  0  0  0
 91179  1  0  0  0  0
 93180  1  0  0  0  0
 93181  1  0  0  0  0
 94182  1  0  0  0  0
 94183  1  0  0  0  0
 94184  1  0  0  0  0
 95185  1  0  0  0  0
 96186  1  0  0  0  0
101187  1  0  0  0  0
102188  1  0  0  0  0
104189  1  0  0  0  0
104190  1  0  0  0  0
105191  1  0  0  0  0
105192  1  0  0  0  0
105193  1  0  0  0  0
106194  1  0  0  0  0
107195  1  0  0  0  0
108196  1  0  0  0  0
118197  1  0  0  0  0
118198  1  0  0  0  0
120199  1  0  0  0  0
121200  1  0  0  0  0
122201  1  0  0  0  0
123202  1  0  0  0  0
124203  1  0  0  0  0
M  END
