
  xtb     02062218313D
 energy: -301.744369895155 gnorm: 0.000868693753 xtb: 6.4.1 (unknown)
180199  0     0  0            999 V2000
    3.3737    5.0166    4.7847 C   0  0  0  0  0  0  0  0  0  0  0  0
    2.1888    5.2689    5.3951 C   0  0  0  0  0  0  0  0  0  0  0  0
    0.9693    4.4305    5.1962 C   0  0  0  0  0  0  0  0  0  0  0  0
    0.8884    3.3620    4.6294 O   0  0  0  0  0  0  0  0  0  0  0  0
   -0.0935    5.0833    5.9779 C   0  0  0  0  0  0  0  0  0  0  0  0
   -1.4355    4.7111    6.0285 C   0  0  0  0  0  0  0  0  0  0  0  0
   -2.1986    5.4910    6.8629 C   0  0  0  0  0  0  0  0  0  0  0  0
   -1.6643    6.5571    7.6010 C   0  0  0  0  0  0  0  0  0  0  0  0
   -0.3435    6.9340    7.5597 C   0  0  0  0  0  0  0  0  0  0  0  0
    0.4526    6.1582    6.7103 C   0  0  0  0  0  0  0  0  0  0  0  0
    1.8717    6.2797    6.3865 C   0  0  0  0  0  0  0  0  0  0  0  0
    2.7263    7.2323    6.8750 C   0  0  0  0  0  0  0  0  0  0  0  0
    4.0757    7.3794    6.4896 C   0  0  0  0  0  0  0  0  0  0  0  0
    5.1729    7.5781    6.2157 N   0  0  0  0  0  0  0  0  0  0  0  0
    2.3768    8.2118    7.8276 C   0  0  0  0  0  0  0  0  0  0  0  0
    2.1642    9.0324    8.6023 N   0  0  0  0  0  0  0  0  0  0  0  0
   -2.9916    6.8867    8.2365 C   0  0  0  0  0  0  0  0  0  0  0  0
   -3.2213    6.4367    9.7004 C   0  0  0  0  0  0  0  0  0  0  0  0
   -2.3406    5.2321    9.9227 C   0  0  0  0  0  0  0  0  0  0  0  0
   -2.8470    4.2254    9.2231 C   0  0  0  0  0  0  0  0  0  0  0  0
   -4.0796    4.7313    8.5149 C   0  0  0  0  0  0  0  0  0  0  0  0
   -4.5875    5.7486    9.5491 C   0  0  0  0  0  0  0  0  0  0  0  0
   -3.5873    5.7016    7.4128 C   0  0  0  0  0  0  0  0  0  0  0  0
    3.4398    4.1638    3.6286 C   0  0  0  0  0  0  0  0  0  0  0  0
    4.4237    3.2047    3.4459 C   0  0  0  0  0  0  0  0  0  0  0  0
    5.3902    3.0785    4.3697 F   0  0  0  0  0  0  0  0  0  0  0  0
    4.3843    2.2651    2.4148 C   0  0  0  0  0  0  0  0  0  0  0  0
    5.2727    1.2550    2.4783 F   0  0  0  0  0  0  0  0  0  0  0  0
    3.3847    2.2721    1.4453 C   0  0  0  0  0  0  0  0  0  0  0  0
    2.4171    3.3180    1.5635 C   0  0  0  0  0  0  0  0  0  0  0  0
    1.4305    3.3607    0.6627 N   0  0  0  0  0  0  0  0  0  0  0  0
    0.4849    4.2619    0.7566 C   0  0  0  0  0  0  0  0  0  0  0  0
   -0.5587    4.2408   -0.3154 C   0  0  0  0  0  0  0  0  0  0  0  0
   -0.0858    5.0386   -1.5331 C   0  0  0  0  0  0  0  0  0  0  0  0
    0.5372    5.2346    1.7930 C   0  0  0  0  0  0  0  0  0  0  0  0
    1.4987    5.2088    2.6801 N   0  0  0  0  0  0  0  0  0  0  0  0
    2.4336    4.2481    2.6225 C   0  0  0  0  0  0  0  0  0  0  0  0
   -0.4987    6.3126    1.9126 C   0  0  0  0  0  0  0  0  0  0  0  0
   -0.1777    7.3256    3.0028 C   0  0  0  0  0  0  0  0  0  0  0  0
    3.1325    1.2386    0.4984 C   0  0  0  0  0  0  0  0  0  0  0  0
    3.9499    0.2006    0.0361 C   0  0  0  0  0  0  0  0  0  0  0  0
    5.3216    0.1780    0.0269 N   0  0  0  0  0  0  0  0  0  0  0  0
    5.9459   -1.0862   -0.0332 C   0  0  0  0  0  0  0  0  0  0  0  0
    6.8322   -1.3877   -1.0609 C   0  0  0  0  0  0  0  0  0  0  0  0
    7.3682   -2.6549   -1.1725 C   0  0  0  0  0  0  0  0  0  0  0  0
    7.0230   -3.6377   -0.2536 C   0  0  0  0  0  0  0  0  0  0  0  0
    7.5983   -5.3008   -0.3333 S   0  0  0  0  0  0  0  0  0  0  0  0
    8.4185   -5.3971   -1.9509 C   0  0  0  0  0  0  0  0  0  0  0  0
    6.1738   -3.3234    0.8056 C   0  0  0  0  0  0  0  0  0  0  0  0
    5.6383   -2.0596    0.9159 C   0  0  0  0  0  0  0  0  0  0  0  0
    6.1067    1.3297   -0.1015 C   0  0  0  0  0  0  0  0  0  0  0  0
    5.6285    2.4822   -0.7181 C   0  0  0  0  0  0  0  0  0  0  0  0
    6.4252    3.6055   -0.8327 C   0  0  0  0  0  0  0  0  0  0  0  0
    7.7218    3.5963   -0.3378 C   0  0  0  0  0  0  0  0  0  0  0  0
    8.8333    4.9628   -0.4301 S   0  0  0  0  0  0  0  0  0  0  0  0
    7.8220    6.3075   -1.1115 C   0  0  0  0  0  0  0  0  0  0  0  0
    8.2097    2.4389    0.2683 C   0  0  0  0  0  0  0  0  0  0  0  0
    7.4156    1.3227    0.3873 C   0  0  0  0  0  0  0  0  0  0  0  0
    3.1587   -0.8320   -0.5262 C   0  0  0  0  0  0  0  0  0  0  0  0
    3.5072   -2.4010   -1.1573 S   0  0  0  0  0  0  0  0  0  0  0  0
    1.7873   -2.7152   -1.4156 C   0  0  0  0  0  0  0  0  0  0  0  0
    1.0018   -1.5924   -1.1139 C   0  0  0  0  0  0  0  0  0  0  0  0
   -0.3635   -1.4369   -1.2646 N   0  0  0  0  0  0  0  0  0  0  0  0
   -1.0106   -0.5516   -0.3797 C   0  0  0  0  0  0  0  0  0  0  0  0
   -1.8839    0.4186   -0.8615 C   0  0  0  0  0  0  0  0  0  0  0  0
   -2.4475    1.3452   -0.0065 C   0  0  0  0  0  0  0  0  0  0  0  0
   -2.1352    1.3237    1.3469 C   0  0  0  0  0  0  0  0  0  0  0  0
   -2.6995    2.5395    2.4953 S   0  0  0  0  0  0  0  0  0  0  0  0
   -4.1370    3.2763    1.6546 C   0  0  0  0  0  0  0  0  0  0  0  0
   -1.2977    0.3278    1.8418 C   0  0  0  0  0  0  0  0  0  0  0  0
   -0.7506   -0.6068    0.9901 C   0  0  0  0  0  0  0  0  0  0  0  0
   -1.0911   -1.9806   -2.3249 C   0  0  0  0  0  0  0  0  0  0  0  0
   -0.4976   -2.2519   -3.5566 C   0  0  0  0  0  0  0  0  0  0  0  0
   -1.2062   -2.8924   -4.5554 C   0  0  0  0  0  0  0  0  0  0  0  0
   -2.5281   -3.2557   -4.3442 C   0  0  0  0  0  0  0  0  0  0  0  0
   -3.4855   -4.1724   -5.5150 S   0  0  0  0  0  0  0  0  0  0  0  0
   -2.2154   -5.0690   -6.4555 C   0  0  0  0  0  0  0  0  0  0  0  0
   -3.1533   -2.9036   -3.1510 C   0  0  0  0  0  0  0  0  0  0  0  0
   -2.4444   -2.2837   -2.1502 C   0  0  0  0  0  0  0  0  0  0  0  0
    1.8036   -0.5530   -0.5825 C   0  0  0  0  0  0  0  0  0  0  0  0
    1.4652    1.0614   -0.0343 S   0  0  0  0  0  0  0  0  0  0  0  0
    1.4473   -4.0179   -1.8337 C   0  0  0  0  0  0  0  0  0  0  0  0
   -0.1802   -4.6547   -1.8112 S   0  0  0  0  0  0  0  0  0  0  0  0
    0.3031   -6.1401   -2.6125 C   0  0  0  0  0  0  0  0  0  0  0  0
    1.7068   -6.1761   -2.7362 C   0  0  0  0  0  0  0  0  0  0  0  0
    2.6337   -7.1155   -3.2470 C   0  0  0  0  0  0  0  0  0  0  0  0
    3.9171   -6.6762   -3.1743 C   0  0  0  0  0  0  0  0  0  0  0  0
    5.1526   -7.4218   -3.5377 C   0  0  0  0  0  0  0  0  0  0  0  0
    5.7603   -8.0930   -2.3029 C   0  0  0  0  0  0  0  0  0  0  0  0
    4.0489   -5.0689   -2.4891 S   0  0  0  0  0  0  0  0  0  0  0  0
    2.3277   -4.9967   -2.2886 C   0  0  0  0  0  0  0  0  0  0  0  0
   -0.5399   -7.0586   -3.2232 C   0  0  0  0  0  0  0  0  0  0  0  0
   -1.9185   -7.0482   -3.3050 C   0  0  0  0  0  0  0  0  0  0  0  0
   -2.7885   -6.1798   -2.5215 C   0  0  0  0  0  0  0  0  0  0  0  0
   -2.4528   -5.3801   -1.6579 O   0  0  0  0  0  0  0  0  0  0  0  0
   -4.1634   -6.4536   -2.9669 C   0  0  0  0  0  0  0  0  0  0  0  0
   -5.3274   -5.8246   -2.5356 C   0  0  0  0  0  0  0  0  0  0  0  0
   -6.4561   -6.2163   -3.2145 C   0  0  0  0  0  0  0  0  0  0  0  0
   -6.4301   -7.1745   -4.2345 C   0  0  0  0  0  0  0  0  0  0  0  0
   -5.2908   -7.8244   -4.6493 C   0  0  0  0  0  0  0  0  0  0  0  0
   -4.1295   -7.4324   -3.9800 C   0  0  0  0  0  0  0  0  0  0  0  0
   -2.7392   -7.8508   -4.1752 C   0  0  0  0  0  0  0  0  0  0  0  0
   -2.3148   -8.8025   -5.0733 C   0  0  0  0  0  0  0  0  0  0  0  0
   -0.9760   -9.1845   -5.2827 C   0  0  0  0  0  0  0  0  0  0  0  0
    0.0921   -9.5405   -5.5181 N   0  0  0  0  0  0  0  0  0  0  0  0
   -3.1651   -9.5322   -5.9266 C   0  0  0  0  0  0  0  0  0  0  0  0
   -3.7902  -10.1587   -6.6597 N   0  0  0  0  0  0  0  0  0  0  0  0
   -7.9081   -7.0426   -4.5061 C   0  0  0  0  0  0  0  0  0  0  0  0
   -8.2996   -6.2197   -5.7522 C   0  0  0  0  0  0  0  0  0  0  0  0
   -9.7455   -5.8553   -5.5045 C   0  0  0  0  0  0  0  0  0  0  0  0
   -9.7726   -4.9501   -4.5343 C   0  0  0  0  0  0  0  0  0  0  0  0
   -8.3454   -4.6876   -4.1117 C   0  0  0  0  0  0  0  0  0  0  0  0
   -7.6323   -4.8695   -5.4580 C   0  0  0  0  0  0  0  0  0  0  0  0
   -7.9375   -5.9757   -3.3652 C   0  0  0  0  0  0  0  0  0  0  0  0
    4.2985    5.4513    5.1384 H   0  0  0  0  0  0  0  0  0  0  0  0
   -1.8011    3.8842    5.4388 H   0  0  0  0  0  0  0  0  0  0  0  0
    0.0493    7.7564    8.1338 H   0  0  0  0  0  0  0  0  0  0  0  0
   -3.3769    7.8864    8.0450 H   0  0  0  0  0  0  0  0  0  0  0  0
   -3.1396    7.2332   10.4350 H   0  0  0  0  0  0  0  0  0  0  0  0
   -1.4363    5.2505   10.5022 H   0  0  0  0  0  0  0  0  0  0  0  0
   -2.4500    3.2349    9.1001 H   0  0  0  0  0  0  0  0  0  0  0  0
   -4.7798    3.9747    8.1706 H   0  0  0  0  0  0  0  0  0  0  0  0
   -5.3651    6.4075    9.1647 H   0  0  0  0  0  0  0  0  0  0  0  0
   -4.9265    5.2785   10.4709 H   0  0  0  0  0  0  0  0  0  0  0  0
   -4.3621    5.9273    6.6823 H   0  0  0  0  0  0  0  0  0  0  0  0
   -0.7114    3.2018   -0.6108 H   0  0  0  0  0  0  0  0  0  0  0  0
   -1.4955    4.6524    0.0593 H   0  0  0  0  0  0  0  0  0  0  0  0
    0.1026    6.0778   -1.2715 H   0  0  0  0  0  0  0  0  0  0  0  0
   -0.8394    5.0098   -2.3162 H   0  0  0  0  0  0  0  0  0  0  0  0
    0.8341    4.6080   -1.9196 H   0  0  0  0  0  0  0  0  0  0  0  0
   -0.5962    6.8210    0.9499 H   0  0  0  0  0  0  0  0  0  0  0  0
   -1.4580    5.8329    2.1311 H   0  0  0  0  0  0  0  0  0  0  0  0
    0.8010    7.7662    2.8337 H   0  0  0  0  0  0  0  0  0  0  0  0
   -0.9247    8.1159    3.0114 H   0  0  0  0  0  0  0  0  0  0  0  0
   -0.1696    6.8420    3.9748 H   0  0  0  0  0  0  0  0  0  0  0  0
    7.0871   -0.6282   -1.7853 H   0  0  0  0  0  0  0  0  0  0  0  0
    8.0423   -2.8641   -1.9868 H   0  0  0  0  0  0  0  0  0  0  0  0
    7.7274   -5.0817   -2.7268 H   0  0  0  0  0  0  0  0  0  0  0  0
    8.6788   -6.4422   -2.0859 H   0  0  0  0  0  0  0  0  0  0  0  0
    9.3205   -4.7921   -1.9524 H   0  0  0  0  0  0  0  0  0  0  0  0
    5.9323   -4.0856    1.5300 H   0  0  0  0  0  0  0  0  0  0  0  0
    4.9727   -1.8148    1.7295 H   0  0  0  0  0  0  0  0  0  0  0  0
    4.6291    2.5056   -1.1257 H   0  0  0  0  0  0  0  0  0  0  0  0
    6.0195    4.4781   -1.3191 H   0  0  0  0  0  0  0  0  0  0  0  0
    7.5133    6.0685   -2.1252 H   0  0  0  0  0  0  0  0  0  0  0  0
    6.9659    6.4882   -0.4681 H   0  0  0  0  0  0  0  0  0  0  0  0
    8.4670    7.1806   -1.1207 H   0  0  0  0  0  0  0  0  0  0  0  0
    9.2172    2.4342    0.6543 H   0  0  0  0  0  0  0  0  0  0  0  0
    7.7941    0.4398    0.8781 H   0  0  0  0  0  0  0  0  0  0  0  0
   -2.1038    0.4623   -1.9180 H   0  0  0  0  0  0  0  0  0  0  0  0
   -3.1092    2.0932   -0.4133 H   0  0  0  0  0  0  0  0  0  0  0  0
   -3.8187    3.9042    0.8270 H   0  0  0  0  0  0  0  0  0  0  0  0
   -4.6379    3.8836    2.4020 H   0  0  0  0  0  0  0  0  0  0  0  0
   -4.8007    2.4883    1.3132 H   0  0  0  0  0  0  0  0  0  0  0  0
   -1.0716    0.3054    2.8965 H   0  0  0  0  0  0  0  0  0  0  0  0
   -0.1010   -1.3772    1.3772 H   0  0  0  0  0  0  0  0  0  0  0  0
    0.5340   -1.9814   -3.7270 H   0  0  0  0  0  0  0  0  0  0  0  0
   -0.7134   -3.1115   -5.4896 H   0  0  0  0  0  0  0  0  0  0  0  0
   -1.4792   -5.4751   -5.7676 H   0  0  0  0  0  0  0  0  0  0  0  0
   -2.7343   -5.8741   -6.9672 H   0  0  0  0  0  0  0  0  0  0  0  0
   -1.7490   -4.4138   -7.1856 H   0  0  0  0  0  0  0  0  0  0  0  0
   -4.1909   -3.1610   -3.0090 H   0  0  0  0  0  0  0  0  0  0  0  0
   -2.9207   -2.0718   -1.2062 H   0  0  0  0  0  0  0  0  0  0  0  0
    2.3620   -8.0768   -3.6449 H   0  0  0  0  0  0  0  0  0  0  0  0
    4.9034   -8.1808   -4.2819 H   0  0  0  0  0  0  0  0  0  0  0  0
    5.8819   -6.7358   -3.9737 H   0  0  0  0  0  0  0  0  0  0  0  0
    6.0061   -7.3500   -1.5478 H   0  0  0  0  0  0  0  0  0  0  0  0
    5.0540   -8.7994   -1.8739 H   0  0  0  0  0  0  0  0  0  0  0  0
    6.6655   -8.6299   -2.5748 H   0  0  0  0  0  0  0  0  0  0  0  0
   -0.0171   -7.8404   -3.7588 H   0  0  0  0  0  0  0  0  0  0  0  0
   -5.3015   -5.0932   -1.7428 H   0  0  0  0  0  0  0  0  0  0  0  0
   -5.2910   -8.5652   -5.4312 H   0  0  0  0  0  0  0  0  0  0  0  0
   -8.5001   -7.9485   -4.3896 H   0  0  0  0  0  0  0  0  0  0  0  0
   -8.0705   -6.6958   -6.7016 H   0  0  0  0  0  0  0  0  0  0  0  0
  -10.5758   -6.3194   -6.0041 H   0  0  0  0  0  0  0  0  0  0  0  0
  -10.6301   -4.5073   -4.0619 H   0  0  0  0  0  0  0  0  0  0  0  0
   -8.1580   -3.7663   -3.5662 H   0  0  0  0  0  0  0  0  0  0  0  0
   -7.9171   -4.1054   -6.1796 H   0  0  0  0  0  0  0  0  0  0  0  0
   -6.5470   -4.9115   -5.3861 H   0  0  0  0  0  0  0  0  0  0  0  0
   -8.5475   -6.1712   -2.4848 H   0  0  0  0  0  0  0  0  0  0  0  0
  1  2  2  0  0  0  0
  2  3  1  0  0  0  0
  3  4  2  0  0  0  0
  3  5  1  0  0  0  0
  5  6  2  0  0  0  0
  6  7  1  0  0  0  0
  7  8  2  0  0  0  0
  8  9  1  0  0  0  0
  9 10  2  0  0  0  0
 10 11  1  0  0  0  0
 11 12  2  0  0  0  0
 12 13  1  0  0  0  0
 13 14  3  0  0  0  0
 12 15  1  0  0  0  0
 15 16  3  0  0  0  0
  8 17  1  0  0  0  0
 17 18  1  0  0  0  0
 18 19  1  0  0  0  0
 19 20  2  0  0  0  0
 20 21  1  0  0  0  0
 21 22  1  0  0  0  0
 21 23  1  0  0  0  0
  1 24  1  0  0  0  0
 24 25  2  0  0  0  0
 25 26  1  0  0  0  0
 25 27  1  0  0  0  0
 27 28  1  0  0  0  0
 27 29  2  0  0  0  0
 29 30  1  0  0  0  0
 30 31  2  0  0  0  0
 31 32  1  0  0  0  0
 32 33  1  0  0  0  0
 33 34  1  0  0  0  0
 32 35  2  0  0  0  0
 35 36  1  0  0  0  0
 36 37  2  0  0  0  0
 35 38  1  0  0  0  0
 38 39  1  0  0  0  0
 29 40  1  0  0  0  0
 40 41  2  0  0  0  0
 41 42  1  0  0  0  0
 42 43  1  0  0  0  0
 43 44  2  0  0  0  0
 44 45  1  0  0  0  0
 45 46  2  0  0  0  0
 46 47  1  0  0  0  0
 47 48  1  0  0  0  0
 46 49  1  0  0  0  0
 49 50  2  0  0  0  0
 42 51  1  0  0  0  0
 51 52  2  0  0  0  0
 52 53  1  0  0  0  0
 53 54  2  0  0  0  0
 54 55  1  0  0  0  0
 55 56  1  0  0  0  0
 54 57  1  0  0  0  0
 57 58  2  0  0  0  0
 41 59  1  0  0  0  0
 59 60  1  0  0  0  0
 60 61  1  0  0  0  0
 61 62  2  0  0  0  0
 62 63  1  0  0  0  0
 63 64  1  0  0  0  0
 64 65  2  0  0  0  0
 65 66  1  0  0  0  0
 66 67  2  0  0  0  0
 67 68  1  0  0  0  0
 68 69  1  0  0  0  0
 67 70  1  0  0  0  0
 70 71  2  0  0  0  0
 63 72  1  0  0  0  0
 72 73  2  0  0  0  0
 73 74  1  0  0  0  0
 74 75  2  0  0  0  0
 75 76  1  0  0  0  0
 76 77  1  0  0  0  0
 75 78  1  0  0  0  0
 78 79  2  0  0  0  0
 62 80  1  0  0  0  0
 80 81  1  0  0  0  0
 61 82  1  0  0  0  0
 82 83  1  0  0  0  0
 83 84  1  0  0  0  0
 84 85  2  0  0  0  0
 85 86  1  0  0  0  0
 86 87  2  0  0  0  0
 87 88  1  0  0  0  0
 88 89  1  0  0  0  0
 87 90  1  0  0  0  0
 90 91  1  0  0  0  0
 84 92  1  0  0  0  0
 92 93  2  0  0  0  0
 93 94  1  0  0  0  0
 94 95  2  0  0  0  0
 94 96  1  0  0  0  0
 96 97  2  0  0  0  0
 97 98  1  0  0  0  0
 98 99  2  0  0  0  0
 99100  1  0  0  0  0
100101  2  0  0  0  0
101102  1  0  0  0  0
102103  2  0  0  0  0
103104  1  0  0  0  0
104105  3  0  0  0  0
103106  1  0  0  0  0
106107  3  0  0  0  0
 99108  1  0  0  0  0
108109  1  0  0  0  0
109110  1  0  0  0  0
110111  2  0  0  0  0
111112  1  0  0  0  0
112113  1  0  0  0  0
112114  1  0  0  0  0
 11  2  1  0  0  0  0
 23 17  1  0  0  0  0
 37 24  1  0  0  0  0
 81 40  1  0  0  0  0
 91 82  2  0  0  0  0
102 93  1  0  0  0  0
114108  1  0  0  0  0
 10  5  1  0  0  0  0
 22 18  1  0  0  0  0
 37 30  1  0  0  0  0
 50 43  1  0  0  0  0
 58 51  1  0  0  0  0
 80 59  2  0  0  0  0
 91 85  1  0  0  0  0
101 96  1  0  0  0  0
113109  1  0  0  0  0
 23  7  1  0  0  0  0
 71 64  1  0  0  0  0
 79 72  1  0  0  0  0
114 98  1  0  0  0  0
  1115  1  0  0  0  0
  6116  1  0  0  0  0
  9117  1  0  0  0  0
 17118  1  0  0  0  0
 18119  1  0  0  0  0
 19120  1  0  0  0  0
 20121  1  0  0  0  0
 21122  1  0  0  0  0
 22123  1  0  0  0  0
 22124  1  0  0  0  0
 23125  1  0  0  0  0
 33126  1  0  0  0  0
 33127  1  0  0  0  0
 34128  1  0  0  0  0
 34129  1  0  0  0  0
 34130  1  0  0  0  0
 38131  1  0  0  0  0
 38132  1  0  0  0  0
 39133  1  0  0  0  0
 39134  1  0  0  0  0
 39135  1  0  0  0  0
 44136  1  0  0  0  0
 45137  1  0  0  0  0
 48138  1  0  0  0  0
 48139  1  0  0  0  0
 48140  1  0  0  0  0
 49141  1  0  0  0  0
 50142  1  0  0  0  0
 52143  1  0  0  0  0
 53144  1  0  0  0  0
 56145  1  0  0  0  0
 56146  1  0  0  0  0
 56147  1  0  0  0  0
 57148  1  0  0  0  0
 58149  1  0  0  0  0
 65150  1  0  0  0  0
 66151  1  0  0  0  0
 69152  1  0  0  0  0
 69153  1  0  0  0  0
 69154  1  0  0  0  0
 70155  1  0  0  0  0
 71156  1  0  0  0  0
 73157  1  0  0  0  0
 74158  1  0  0  0  0
 77159  1  0  0  0  0
 77160  1  0  0  0  0
 77161  1  0  0  0  0
 78162  1  0  0  0  0
 79163  1  0  0  0  0
 86164  1  0  0  0  0
 88165  1  0  0  0  0
 88166  1  0  0  0  0
 89167  1  0  0  0  0
 89168  1  0  0  0  0
 89169  1  0  0  0  0
 92170  1  0  0  0  0
 97171  1  0  0  0  0
100172  1  0  0  0  0
108173  1  0  0  0  0
109174  1  0  0  0  0
110175  1  0  0  0  0
111176  1  0  0  0  0
112177  1  0  0  0  0
113178  1  0  0  0  0
113179  1  0  0  0  0
114180  1  0  0  0  0
M  END
