199

C         -3.85290       -3.70380       -6.27900
C         -5.20250       -3.74300       -6.27510
C         -6.05860       -3.14710       -5.20360
O         -5.69910       -2.45630       -4.27630
C         -7.44430       -3.47120       -5.57490
C         -8.59250       -3.16740       -4.84610
C         -9.75920       -3.57980       -5.44150
C         -9.78440       -4.24720       -6.67510
C         -8.66120       -4.55290       -7.40410
C         -7.45980       -4.13690       -6.81860
C         -6.09130       -4.26760       -7.30460
C         -5.72070       -4.78110       -8.51710
C         -4.40000       -4.86500       -9.00420
N         -3.36720       -4.95990       -9.49700
C         -6.61900       -5.27360       -9.48920
N         -7.28390       -5.68450      -10.32970
C        -11.28870       -4.34750       -6.67950
C        -12.07150       -3.36250       -7.58330
C        -11.20430       -2.13750       -7.73640
C        -11.18160       -1.50890       -6.56870
C        -12.03270       -2.29790       -5.60450
C        -13.10050       -2.84050       -6.56770
C        -11.26040       -3.60710       -5.30520
C         -3.06720       -3.25550       -5.14820
C         -3.28570       -3.70140       -3.85870
F         -4.18500       -4.66650       -3.62480
C         -2.52440       -3.24150       -2.78140
F         -2.74580       -3.79650       -1.57750
C         -1.53280       -2.28520       -2.92390
C         -1.33330       -1.75440       -4.23200
N         -0.54090       -0.68420       -4.41240
C         -0.36280       -0.20940       -5.62160
C          0.42800        1.05990       -5.74140
C          1.90170        0.81410       -6.07500
C         -0.92590       -0.87550       -6.74810
N         -1.76050       -1.87130       -6.58020
C         -2.03450       -2.30000       -5.33670
C         -0.69980       -0.45380       -8.16880
C         -1.84870        0.44630       -8.63220
C         -0.74360       -1.83980       -1.80190
C          0.62710       -1.62700       -1.75140
N          1.53390       -1.97060       -2.73300
C          1.22520       -2.98120       -3.65690
C          0.57330       -4.14610       -3.24880
C          0.10410       -5.04350       -4.18140
C          0.28870       -4.80880       -5.54300
S         -0.48600       -5.91640       -6.67370
C         -0.46750       -4.97350       -8.22500
C          1.05180       -3.71990       -5.94340
C          1.51450       -2.81700       -5.00810
C          2.70090       -1.21250       -2.88580
C          3.89790       -1.83070       -3.23580
C          5.05560       -1.09250       -3.38450
C          5.03780        0.28050       -3.17440
S          6.44910        1.32830       -3.33340
C          7.82510        0.17490       -3.59920
C          3.83970        0.90470       -2.83240
C          2.68270        0.17060       -2.69600
C          1.00250       -1.10990       -0.48490
S          2.50630       -0.62380        0.22060
C          1.68720       -0.20060        1.71460
C          0.32950       -0.50450        1.69400
N         -0.52930       -0.44900        2.77050
C         -0.05540       -0.61380        4.07910
C          1.00510       -1.47660        4.35150
C          1.59540       -1.49090        5.59860
C          1.10640       -0.66990        6.60630
S          1.88800       -0.50570        8.18160
C          3.60340       -0.98890        7.82530
C         -0.04520        0.07750        6.37950
C         -0.61280        0.11930        5.12610
C         -1.89900       -0.23790        2.54680
C         -2.84930       -0.96130        3.26770
C         -4.19030       -0.78380        3.01610
C         -4.61360        0.11250        2.03600
S         -6.35330        0.24530        1.77240
C         -6.46670        0.97900        0.11430
C         -3.67280        0.85860        1.33990
C         -2.32670        0.68620        1.59790
C         -0.04680       -0.98650        0.41250
S         -1.53840       -1.51660       -0.27280
C          2.45600        0.38580        2.76420
C          3.78720        0.24190        3.06160
C          4.02480        0.99280        4.23930
C          5.17010        1.19830        5.02950
C          6.43800        0.50740        4.78310
C          7.65670        1.16800        4.92140
C          8.84140        0.49910        4.68620
C          8.85130       -0.84010        4.31570
C         10.14670       -1.56940        4.10590
C         10.65310       -2.14920        5.42830
C          7.63510       -1.50190        4.20020
C          6.44450       -0.84110        4.42820
C          4.97800        2.09090        6.07620
C          3.71760        2.67750        6.40460
C          2.55460        2.41950        5.64750
C          1.23860        2.95180        5.98990
C          0.34670        3.34080        4.99120
C         -0.90980        3.80980        5.31570
C         -1.31950        3.90280        6.64060
C         -2.67320        4.44700        6.99090
C         -2.60010        5.96080        7.20250
C         -0.42960        3.51550        7.63540
C          0.82930        3.04440        7.32030
C          2.77440        1.59500        4.55640
O          1.83920        1.21230        3.65270
C          3.97240        3.48420        7.52760
C          5.32500        3.36670        7.81230
O          5.92220        2.51030        6.94430
C          6.00480        4.00740        8.86840
C          7.35390        4.13350        9.06910
C          8.41000        3.87710        8.06320
O          8.28810        3.61070        6.88980
C          9.68950        4.15770        8.75770
C         10.97190        4.03330        8.26260
C         12.02070        4.37860        9.09930
F         13.28260        4.26590        8.66370
C         11.77400        4.84330       10.39090
F         12.80580        5.17310       11.17740
C         10.48490        4.97600       10.88470
C          9.43000        4.62680       10.05500
C          7.98250        4.64590       10.26960
C          7.36550        5.05440       11.42490
C          5.97520        5.06010       11.66260
N          4.86220        5.09580       11.94470
C          8.05090        5.54110       12.55790
N          8.54450        5.94930       13.51060
H         -3.28910       -3.97350       -7.16090
H         -8.52590       -2.65590       -3.89870
H         -8.69920       -5.06940       -8.34850
H        -11.70020       -5.35420       -6.70960
H        -12.45140       -3.79910       -8.50290
H        -10.66760       -1.89250       -8.63420
H        -10.62150       -0.63360       -6.29550
H        -12.37810       -1.76580       -4.72200
H        -13.73520       -2.05610       -6.97710
H        -13.71850       -3.62500       -6.13350
H        -11.65140       -4.13070       -4.43520
H          0.36970        1.58000       -4.78460
H         -0.01810        1.69190       -6.51090
H          2.01240        0.21040       -6.97300
H          2.40450        1.76470       -6.23570
H          2.39500        0.30750       -5.25040
H          0.24810        0.06970       -8.27830
H         -0.68660       -1.34800       -8.79430
H         -1.90400        1.34960       -8.02830
H         -1.70350        0.73140       -9.67100
H         -2.79260       -0.08530       -8.54320
H          0.40840       -4.32710       -2.19720
H         -0.42990       -5.92730       -3.86830
H          0.52710       -4.98510       -8.66170
H         -0.80540       -3.95980       -8.02770
H         -1.16940       -5.47090       -8.88690
H          1.27390       -3.55080       -6.98460
H          2.07630       -1.95560       -5.33340
H          3.91850       -2.89920       -3.39190
H          5.96490       -1.60260       -3.65800
H          7.88380       -0.52520       -2.77110
H          7.70550       -0.34090       -4.54760
H          8.71930        0.78990       -3.62650
H          3.82890        1.97370       -2.68620
H          1.75090        0.66110       -2.46060
H          1.39210       -2.11710        3.57280
H          2.43750       -2.14170        5.77360
H          3.93270       -0.50500        6.91010
H          3.68790       -2.06930        7.75200
H          4.19320       -0.63480        8.66510
H         -0.46210        0.66240        7.18340
H         -1.46420        0.75620        4.94300
H         -2.52530       -1.67270        4.01230
H         -4.92800       -1.35110        3.56220
H         -7.50630        0.87830       -0.18120
H         -5.83080        0.42520       -0.56980
H         -6.19630        2.03060        0.14410
H         -3.97440        1.58030        0.59800
H         -1.59880        1.27690        1.06140
H          4.49510       -0.32980        2.49780
H          7.67620        2.20520        5.21200
H          9.77740        1.02880        4.79000
H         10.00520       -2.38020        3.38810
H         10.89610       -0.88400        3.70460
H         11.59600       -2.67050        5.28030
H         10.80510       -1.35460        6.15530
H          9.92830       -2.85050        5.83630
H          7.62160       -2.54880        3.92970
H          5.51090       -1.38060        4.35860
H          0.64710        3.28300        3.95670
H         -1.58900        4.10480        4.52790
H         -3.03770        3.97420        7.90510
H         -3.38000        4.22910        6.18760
H         -1.91000        6.19700        8.00920
H         -3.58040        6.35700        7.45640
H         -2.24950        6.45280        6.29780
H         -0.73340        3.56930        8.67130
H          1.48070        2.69540        8.10640
H          3.28290        4.11350        8.05200
H          5.33680        4.43980        9.60080
H         11.15600        3.67840        7.26120
H         10.35000        5.34480       11.88800
