256

C         -1.08380        1.50000        8.93570
C         -0.62630        0.55450        9.81100
C         -0.33090        0.90960       11.22000
O         -0.62930        1.93960       11.78550
C          0.43160       -0.23490       11.76270
C          1.05010       -0.33400       13.00610
C          1.72170       -1.51740       13.20490
C          1.79550       -2.52330       12.23260
C          1.18480       -2.44320       11.00330
C          0.47650       -1.25910       10.79470
C         -0.31820       -0.84190        9.64150
C         -0.90640       -1.71280        8.75510
C         -1.86590       -1.34830        7.79330
N         -2.70050       -1.12510        7.03420
C         -0.76410       -3.10950        8.81710
N         -0.73930       -4.25860        8.82990
C          2.64350       -3.41530       13.10400
C          1.95120       -4.62190       13.78380
C          0.49620       -4.25120       13.93090
C          0.41220       -3.30370       14.85520
C          1.80830       -3.01700       15.34970
C          2.43070       -4.41720       15.22950
C          2.54960       -2.30070       14.19320
C         -1.01250        1.46110        7.53440
C         -1.75020        2.23150        6.62270
N         -2.76780        3.08250        6.96170
C         -3.02360        4.20840        6.16240
C         -4.33160        4.56880        5.85590
C         -4.59230        5.70400        5.11520
C         -3.54550        6.50590        4.67930
S         -3.76470        7.99370        3.75850
C         -5.56380        8.14590        3.57700
C         -2.23290        6.14660        4.98390
C         -1.97310        5.00620        5.70850
C         -3.60870        2.84090        8.06600
C         -4.08340        1.56030        8.32870
C         -4.90010        1.32760        9.41730
C         -5.26800        2.37650       10.25040
S         -6.31330        2.20000       11.65960
C         -6.48240        0.40310       11.85330
C         -4.81550        3.66470        9.97050
C         -3.99330        3.89680        8.89060
C         -1.35870        1.95600        5.29550
S         -1.93420        2.44980        3.73540
C         -0.84480        1.31130        2.95520
C          0.00280        0.67680        3.86540
N          1.05480       -0.16490        3.53740
C          1.93200        0.15660        2.49520
C          2.18740        1.48600        2.15920
C          2.97080        1.79010        1.06800
C          3.53200        0.77910        0.29030
S          4.46330        1.29450       -1.11720
C          5.22470       -0.23540       -1.72530
C          3.31790       -0.54590        0.64730
C          2.52630       -0.85120        1.73550
C          1.27140       -1.31300        4.31660
C          0.19960       -2.09430        4.73870
C          0.41220       -3.24110        5.47880
C          1.70570       -3.62900        5.80110
S          2.10490       -5.09900        6.68990
C          0.58420       -6.08380        6.60390
C          2.77910       -2.83220        5.40530
C          2.56660       -1.68550        4.67530
C         -0.33570        1.02320        5.18830
S          0.18600        0.44490        6.72570
C         -0.98970        0.97440        1.58710
C         -1.61160        1.66630        0.55450
N         -2.13970        2.95130        0.62890
C         -3.35930        3.15610       -0.03460
C         -4.37250        2.21160        0.10430
C         -5.57940        2.36420       -0.54940
C         -5.79530        3.47390       -1.35440
S         -7.29640        3.79220       -2.22720
C         -8.30810        2.31790       -1.91200
C         -4.78220        4.42060       -1.49970
C         -3.57690        4.26350       -0.85460
C         -1.36500        4.02140        1.07840
C         -1.96780        5.19780        1.52890
C         -1.19550        6.26340        1.93200
C          0.19310        6.16380        1.95160
S          1.08930        7.58620        2.50610
C          2.75970        6.93950        2.81260
C          0.79800        4.99140        1.52530
C          0.02500        3.94050        1.07360
C         -1.60190        0.91380       -0.64270
S         -1.99630        1.27770       -2.28720
C         -1.30500       -0.24360       -2.80600
C         -0.77090       -0.97630       -1.76050
N          0.06310       -2.07400       -1.94900
C          0.28460       -2.95310       -0.88970
C         -0.77450       -3.32390       -0.05660
C         -0.54870       -4.11390        1.04790
C          0.73440       -4.56940        1.34060
S          0.92310       -5.52780        2.81090
C          2.71900       -5.58590        3.06330
C          1.77650       -4.26730        0.47460
C          1.55250       -3.46680       -0.62830
C          1.03980       -1.90530       -2.96460
C          1.24300       -2.88010       -3.93110
C          2.09410       -2.63930       -4.99530
C          2.75390       -1.42110       -5.10080
S          3.78730       -0.96400       -6.45410
C          3.46590       -2.25150       -7.68680
C          2.60840       -0.47350       -4.08830
C          1.76080       -0.71360       -3.03150
C         -0.98160       -0.31990       -0.52800
S         -0.44300       -0.62150        1.07750
C         -1.14230       -0.53740       -4.21210
C         -0.43570        0.39530       -5.01920
N         -0.00720        1.54590       -4.48890
C          0.81660        2.30880       -5.16610
C          1.22040        3.55560       -4.50200
C          1.32610        4.78000       -5.16390
C          1.66120        5.94210       -4.49490
C          1.93100        5.96380       -3.11410
O          2.21710        7.15510       -2.58450
C          2.31020        7.32340       -1.17060
C          2.40920        8.81420       -0.90080
C          1.85750        4.72820       -2.46320
C          1.48730        3.57030       -3.13400
F          1.41990        2.44750       -2.41740
F          2.15270        4.61260       -1.15230
F          1.72290        7.09790       -5.17070
F          1.04830        4.85800       -6.47450
C          1.26680        1.89970       -6.45580
C          2.33190        2.54730       -7.23060
C          3.55200        2.90970       -6.67700
F          3.76460        2.74270       -5.36000
C          4.59090        3.42400       -7.44070
F          5.72940        3.74720       -6.79110
C          4.46260        3.59560       -8.82310
O          5.35600        4.08850       -9.68840
C          6.73950        4.18740       -9.36590
C          7.39860        2.82060       -9.23480
C          3.21620        3.24240       -9.37410
F          3.04140        3.41520      -10.68940
C          2.18860        2.72610       -8.60940
F          1.02850        2.43360       -9.19910
N          0.75590        0.83490       -7.02390
C         -0.10040        0.06060       -6.35330
C         -0.59230       -1.14110       -6.95610
C         -1.28750       -2.01910       -6.13330
C         -1.52320       -1.73540       -4.79050
C         -0.26250       -1.29680       -8.33920
C         -0.64790       -2.17190       -9.30590
C         -1.62370       -3.29020       -9.25460
O         -2.07570       -3.85860       -8.28150
C         -1.93970       -3.60900      -10.65790
C         -2.89990       -4.51320      -11.10770
C         -3.00240       -4.58600      -12.47530
C         -2.21410       -3.80840      -13.33560
C         -1.25960       -2.91830      -12.90620
C         -1.12960       -2.83870      -11.51610
C         -0.23990       -2.02050      -10.70050
C          0.82670       -1.30080      -11.16810
C          1.19840       -1.23960      -12.52940
N          1.56650       -1.16050      -13.61380
C          1.77020       -0.58920      -10.39450
N          2.62710       -0.02790       -9.87370
C         -2.85700       -4.38280      -14.57270
C         -2.05970       -5.44200      -15.37280
C         -1.13060       -6.10980      -14.38960
C         -1.86910       -6.85070      -13.57420
C         -3.31090       -6.69760      -13.99140
C         -3.13710       -6.52970      -15.50940
C         -3.72930       -5.25430      -13.61490
H         -1.45890        2.41360        9.38500
H          0.98500        0.46780       13.72490
H          1.25770       -3.21410       10.25300
H          3.62850       -3.66520       12.71470
H          2.15700       -5.58170       13.31780
H         -0.28950       -4.66030       13.32310
H         -0.45920       -2.76300       15.17580
H          1.88330       -2.51670       16.31180
H          1.99410       -5.13350       15.92400
H          3.51520       -4.42010       15.33130
H          3.47380       -1.82980       14.52330
H         -5.14810        3.95350        6.20330
H         -5.61670        5.95140        4.88980
H         -6.03160        8.22610        4.55390
H         -5.95450        7.30110        3.01700
H         -5.72210        9.06240        3.01710
H         -1.42280        6.78120        4.66210
H         -0.95530        4.73970        5.95230
H         -3.81040        0.74100        7.68060
H         -5.25150        0.32390        9.59270
H         -7.03340        0.25940       12.77760
H         -7.04410       -0.01420       11.02260
H         -5.49900       -0.05050       11.93410
H         -5.10860        4.47640       10.61800
H         -3.63420        4.89430        8.68510
H          1.75870        2.27900        2.75420
H          3.15450        2.81740        0.79440
H          4.46070       -0.91380       -2.09470
H          5.81700       -0.69040       -0.93660
H          5.86840        0.06670       -2.54570
H          3.74110       -1.35300        0.07190
H          2.33070       -1.88440        1.97910
H         -0.80800       -1.80680        4.47670
H         -0.43610       -3.82880        5.78960
H          0.85810       -7.07490        6.95220
H         -0.16440       -5.65430        7.26400
H          0.24330       -6.12780        5.57360
H          3.78050       -3.12860        5.67920
H          3.40150       -1.07190        4.37030
H         -4.21260        1.35130        0.73770
H         -6.34180        1.61430       -0.41460
H         -9.22130        2.46430       -2.48030
H         -7.79030        1.43170       -2.26720
H         -8.54190        2.24340       -0.85390
H         -4.95210        5.27510       -2.13660
H         -2.79270        4.99250       -0.99150
H         -3.04360        5.27350        1.55740
H         -1.66250        7.18480        2.24230
H          2.70120        6.07730        3.46980
H          3.24690        6.68640        1.87550
H          3.30060        7.74290        3.30280
H          1.87040        4.88950        1.50810
H          0.51080        3.05490        0.69510
H         -1.77310       -2.97910       -0.27850
H         -1.36300       -4.38160        1.70300
H          3.18610       -6.21040        2.30720
H          3.11870       -4.57600        3.05180
H          2.86680       -6.02400        4.04570
H          2.77320       -4.63820        0.65470
H          2.37280       -3.22170       -1.28670
H          0.71820       -3.82080       -3.86140
H          2.21990       -3.40470       -5.74370
H          3.92080       -3.18990       -7.38120
H          3.92310       -1.89350       -8.60380
H          2.39380       -2.35440       -7.82890
H          3.15540        0.45510       -4.14720
H          1.63400        0.03210       -2.26220
H          3.19900        6.80290       -0.79600
H          1.41890        6.90850       -0.68600
H          3.31340        9.21900       -1.34580
H          2.42180        8.98990        0.17070
H          1.55180        9.32410       -1.33030
H          6.89240        4.78770       -8.46470
H          7.15600        4.72610      -10.22040
H          8.47170        2.94770       -9.12680
H          7.02500        2.28400       -8.36670
H          7.19920        2.22720      -10.12390
H         -1.64350       -2.95240       -6.53970
H         -2.03230       -2.46850       -4.18230
H          0.38030       -0.48670       -8.67000
H         -3.49410       -5.08230      -10.40980
H         -0.66800       -2.32180      -13.58010
H         -3.36620       -3.67030      -15.21850
H         -1.60460       -5.06920      -16.28630
H         -0.07150       -5.93370      -14.35320
H         -1.55010       -7.41830      -12.71960
H         -3.99470       -7.46950      -13.64800
H         -4.03910       -6.18620      -16.01400
H         -2.76580       -7.43190      -15.99310
H         -4.80850       -5.11630      -13.63940
