171

C          5.72820       -0.09320        3.07660
C          4.69360        0.29680        3.90110
C          3.26550        0.18140        3.51030
O          2.79970       -0.27660        2.48170
C          2.49060        0.61060        4.67860
C          1.10610        0.73730        4.74050
C          0.65230        1.27440        5.91870
C          1.51080        1.64280        6.96350
C          2.87750        1.47850        6.92860
C          3.36360        0.94160        5.73300
C          4.73540        0.68120        5.29160
C          5.86900        0.86070        6.04510
C          7.18080        0.68860        5.55900
N          8.27410        0.59280        5.22070
C          5.87030        1.24720        7.39960
N          5.93880        1.54740        8.50630
C          0.37750        2.18600        7.80020
C          0.19590        3.72500        7.83860
C          0.76840        4.26080        6.54920
C         -0.04140        3.89650        5.56400
C         -1.17780        3.11000        6.16840
C         -1.30650        3.81950        7.52550
C         -0.57600        1.76240        6.63830
C          5.56680       -0.02760        1.68240
S          4.52370        1.21380        1.04260
C          4.50870        0.53060       -0.55530
C          5.40670       -0.53000       -0.60420
S          5.86900       -1.62320       -1.86720
C          6.89820       -2.49270       -0.75470
C          7.66990       -3.64110       -1.23100
O          8.46550       -4.26270       -0.57670
O          7.35810       -3.91170       -2.51160
C          8.08140       -4.97580       -3.12920
C          9.39580       -4.47860       -3.71390
C          6.86570       -1.96550        0.51140
C          6.02620       -0.83260        0.63270
F          7.55170       -2.45880        1.53590
C          3.47650        0.87850       -1.44370
C          2.45980        1.79450       -1.15090
N          2.53640        2.78030       -0.19660
C          1.33480        3.13110        0.46840
C          0.81760        4.41650        0.35190
C         -0.36280        4.75400        0.98200
C         -1.04070        3.80570        1.73890
S         -2.52360        4.15750        2.62080
C         -3.18210        5.62400        1.77740
C         -0.51940        2.51740        1.85870
C          0.65870        2.17840        1.22770
C          3.63270        3.64510       -0.10620
C          3.84960        4.35530        1.07840
C          4.91670        5.21460        1.18800
C          5.80420        5.38510        0.12490
S          7.13190        6.51250        0.38600
C          8.14200        6.35930       -1.11470
C          5.59270        4.68150       -1.05360
C          4.51690        3.82300       -1.16690
C          1.31820        1.53440       -1.93620
S         -0.30460        2.10660       -1.88170
C         -0.75090        0.99670       -3.17330
C          0.31340        0.22170       -3.61300
N          0.26260       -0.77590       -4.56260
C          1.46590       -1.13040       -5.20350
C          1.88120       -2.45750       -5.23930
C          3.11090       -2.78810       -5.77100
C          3.94000       -1.79530       -6.27860
S          5.54960       -2.12320       -6.92470
C          6.05580       -3.60250       -5.99840
C          3.49950       -0.47530       -6.30130
C          2.27380       -0.14390       -5.76680
C         -0.89690       -1.52700       -4.79260
C         -1.22790       -1.89870       -6.09150
C         -2.40490       -2.57520       -6.35450
C         -3.27540       -2.88610       -5.31740
S         -4.84600       -3.65840       -5.53240
C         -4.87780       -4.10320       -7.29330
C         -2.92070       -2.55980       -4.00870
C         -1.74180       -1.90050       -3.74610
C          1.48940        0.53980       -2.88710
S          3.08900       -0.13320       -2.82900
C         -2.15430        0.90380       -3.43570
C         -2.87050        0.85530       -4.60460
C         -4.25550        0.77010       -4.39470
S         -5.46920        0.68340       -5.63980
C         -4.47650        0.33670       -7.14230
C         -5.41920       -0.04260       -8.26860
C         -4.61850        0.76140       -3.04260
S         -3.19290        0.84140       -2.04810
C         -5.91920        0.57050       -2.54630
C         -6.36520        0.34670       -1.27630
C         -7.68180       -0.32780       -1.11100
O         -8.57950       -0.37750       -1.92090
C         -7.62200       -0.97420        0.21510
C         -8.56580       -1.83070        0.77850
C         -8.21570       -2.31470        2.01630
C         -7.00710       -1.98550        2.64420
C         -6.06950       -1.13770        2.10470
C         -6.41500       -0.61990        0.85360
C         -5.72150        0.36050        0.01670
C         -4.80860        1.27310        0.48560
C         -4.15930        1.15570        1.72950
N         -3.56000        1.06390        2.70520
C         -4.50160        2.48260       -0.17000
N         -4.29150        3.52520       -0.60480
C         -7.31140       -2.83290        3.85430
C         -7.76820       -2.07980        5.12150
C         -8.44330       -3.14630        5.95320
C         -9.59130       -3.45200        5.36210
C         -9.71130       -2.59720        4.12090
C         -9.00160       -1.32670        4.60650
C         -8.66270       -3.19420        3.15810
H          6.66150       -0.46760        3.47670
H          0.48270        0.45200        3.90880
H          3.52310        1.75360        7.74640
H          0.23480        1.72720        8.77660
H          0.54850        4.19670        8.75220
H          1.70550        4.78270        6.48330
H          0.07870        4.05160        4.50760
H         -2.06930        3.01960        5.55420
H         -1.93260        3.28400        8.23780
H         -1.65260        4.84760        7.43170
H         -1.33960        1.01680        6.84830
H          7.41940       -5.35890       -3.90890
H          8.26960       -5.75420       -2.38230
H          9.88890       -5.28810       -4.24410
H          9.21500       -3.65650       -4.40290
H         10.04850       -4.13200       -2.91630
H          1.34470        5.15150       -0.23880
H         -0.74570        5.75570        0.87600
H         -4.17800        5.76920        2.18460
H         -3.24650        5.42080        0.71250
H         -2.57030        6.49570        1.98980
H         -1.06280        1.79500        2.44800
H          1.07390        1.18550        1.32250
H          3.17670        4.21610        1.91060
H          5.08490        5.76060        2.10310
H          7.58540        6.70970       -1.97910
H          9.00460        6.99760       -0.95070
H          8.46360        5.32970       -1.23960
H          6.25200        4.79790       -1.89840
H          4.35950        3.29500       -2.09560
H          1.24370       -3.22530       -4.82650
H          3.42200       -3.82030       -5.77290
H          5.52920       -4.48020       -6.36170
H          7.11910       -3.71420       -6.18650
H          5.87750       -3.43940       -4.93960
H          4.13590        0.28530       -6.72590
H          1.94150        0.88390       -5.76140
H         -0.56240       -1.64240       -6.90310
H         -2.63370       -2.84320       -7.37380
H         -4.04330       -4.75840       -7.52480
H         -4.86200       -3.20930       -7.91040
H         -5.81400       -4.63270       -7.44060
H         -3.58490       -2.83210       -3.20280
H         -1.46710       -1.67190       -2.72780
H         -2.39930        0.90530       -5.56830
H         -3.91190        1.23520       -7.39160
H         -3.79590       -0.47980       -6.89990
H         -4.84940       -0.28250       -9.16420
H         -6.09270        0.78040       -8.49550
H         -6.01920       -0.90510       -7.98730
H         -6.67740        0.44980       -3.31620
H         -9.47940       -2.06760        0.25640
H         -5.13940       -0.90020        2.59340
H         -6.60400       -3.63280        4.06530
H         -6.99160       -1.49630        5.60840
H         -8.00530       -3.59350        6.82620
H        -10.30370       -4.20550        5.64280
H        -10.70620       -2.48540        3.69850
H         -8.78560       -0.60900        3.81740
H         -9.54660       -0.83230        5.40900
H         -8.85880       -4.23540        2.90840
