211

C          1.53270       -2.50260        6.89690
C          1.96300       -1.43470        7.64370
C          1.98940       -0.03410        7.16400
O          1.82180        0.37660        6.03330
C          2.14420        0.79680        8.37240
C          2.14240        2.18860        8.42590
C          2.31180        2.69570        9.69190
C          2.46270        1.88060       10.82120
C          2.43940        0.50570       10.78390
C          2.26880       -0.03190        9.50490
C          2.17530       -1.42350        9.06980
C          2.33680       -2.53080        9.86720
C          2.55270       -2.48880       11.25880
N          2.72760       -2.52980       12.39340
C          2.36290       -3.85740        9.40200
N          2.44060       -4.96810        9.11370
C          2.59740        3.05990       11.75270
C          4.02570        3.40740       12.22380
C          3.90750        4.83440       12.70840
C          3.75230        5.61040       11.64340
C          3.76480        4.72120       10.42130
C          4.74790        3.64090       10.89010
C          2.41980        3.96890       10.49410
C          1.48070       -2.53180        5.48860
C          0.49570       -3.11020        4.66940
N         -0.64120       -3.75330        5.09580
C         -0.61420       -4.64430        6.17460
C         -1.67970       -4.70290        7.07370
C         -1.62830       -5.56200        8.14800
C         -0.51690       -6.38000        8.35090
S         -0.53980       -7.42020        9.76950
C          1.20090       -7.89570        9.96300
C          0.53120       -6.34800        7.43810
C          0.48120       -5.48540        6.36270
C         -1.84410       -3.49050        4.41710
C         -2.73620       -4.51670        4.12670
C         -3.89540       -4.25870        3.42060
C         -4.17120       -2.97010        2.98370
S         -5.60710       -2.53530        2.05310
C         -6.35400       -4.12960        1.61700
C         -3.29110       -1.93490        3.29160
C         -2.14470       -2.18990        4.00830
C          0.73190       -2.79480        3.31360
S         -0.12630       -3.07090        1.83540
C          1.04350       -2.10580        0.94200
C          2.07480       -1.65540        1.74160
N          3.08200       -0.75120        1.37920
C          4.20850       -1.16550        0.67080
C          4.50550       -2.51380        0.50510
C          5.62950       -2.91240       -0.19240
C          6.48960       -1.96260       -0.71910
S          7.97310       -2.35600       -1.59790
C          7.82210       -4.13500       -1.92540
C          6.20590       -0.61000       -0.54960
C          5.07240       -0.21530        0.12160
C          3.15270        0.36390        2.24610
C          4.32440        0.70750        2.91080
C          4.33830        1.75340        3.81230
C          3.17380        2.45880        4.07740
S          3.09060        3.79050        5.23250
C          4.59990        3.58260        6.22390
C          2.00100        2.12780        3.40550
C          1.99060        1.09260        2.49770
C          1.88380       -2.05750        3.08950
S          2.72260       -1.71790        4.54880
C          0.64070       -1.67030       -0.36650
C          1.29010       -1.58690       -1.57410
N          2.50800       -2.21990       -1.88800
C          2.31250       -3.59900       -2.18420
C          2.26050       -4.04820       -3.49950
C          2.04310       -5.38310       -3.78410
C          1.85100       -6.28980       -2.75040
S          1.56980       -8.01730       -2.98200
C          1.55020       -8.22400       -4.78540
C          1.86750       -5.83710       -1.43310
C          2.09370       -4.50660       -1.15370
C          3.49020       -1.48630       -2.54990
C          4.55740       -2.11600       -3.18720
C          5.55600       -1.38420       -3.79810
C          5.52750        0.00130       -3.75990
S          6.76400        1.02890       -4.49500
C          8.16240       -0.10550       -4.73350
C          4.47840        0.63960       -3.10710
C          3.47820       -0.09050       -2.50630
C          0.48700       -0.92210       -2.53800
S          0.70860       -0.50880       -4.19870
C         -0.87320        0.25720       -4.24170
C         -1.56490        0.11940       -3.04780
N         -2.87810        0.48110       -2.80910
C         -3.27020        0.79680       -1.49630
C         -4.47360        0.31350       -0.99180
C         -4.85610        0.58870        0.30570
C         -4.03380        1.35380        1.12280
S         -4.39520        1.73560        2.80880
C         -6.09150        1.13540        3.04320
C         -2.83680        1.85570        0.61710
C         -2.45990        1.58630       -0.68010
C         -3.82540        0.54060       -3.84160
C         -3.82910       -0.39460       -4.87780
C         -4.66450       -0.22760       -5.95850
C         -5.53530        0.85950       -6.01940
S         -6.46310        1.04510       -7.51010
C         -7.38750        2.58610       -7.25740
C         -5.61170        1.73010       -4.94130
C         -4.75890        1.57370       -3.86730
C         -0.75930       -0.53510       -2.07860
S         -0.98900       -0.99920       -0.43180
C         -1.33300        0.88070       -5.46190
C         -2.10470        2.05500       -5.40300
C         -2.68730        2.51570       -6.55740
C         -3.63300        3.64560       -6.73950
O         -4.06220        4.40290       -5.90010
C         -3.97790        3.60750       -8.18560
C         -3.29200        2.53830       -8.80180
C         -2.49010        1.86570       -7.79350
C         -1.64300        0.77620       -7.87040
C         -1.07300        0.29490       -6.70230
C         -3.47760        2.29130      -10.15010
C         -4.33440        3.10530      -10.87320
C         -5.01960        4.17290      -10.27450
C         -4.82840        4.41400       -8.89660
C         -5.92200        5.04650      -10.96580
C         -6.27780        5.19820      -12.26880
C         -5.86970        4.54350      -13.52700
O         -5.10890        3.61680      -13.70400
C         -6.59990        5.25980      -14.60640
C         -6.54850        5.04420      -15.97000
C         -7.32930        5.84890      -16.79180
Cl        -7.29000        5.61070      -18.49240
C         -8.14520        6.84950      -16.24890
Cl        -9.09900        7.82900      -17.28890
C         -8.19310        7.06140      -14.87560
C         -7.41420        6.25880      -14.06470
C         -7.26390        6.26490      -12.59100
O         -7.82540        6.98790      -11.80070
H          1.14430       -3.36830        7.42170
H          2.01160        2.77860        7.53210
H          2.53160       -0.10820       11.66440
H          1.86000        3.12280       12.55060
H          4.46490        2.69090       12.91260
H          3.89180        5.11670       13.74470
H          3.58110        6.67050       11.61180
H          3.96450        5.20640        9.46930
H          5.75460        4.03150       11.03040
H          4.78380        2.76390       10.24610
H          1.55790        4.63180       10.44810
H         -2.53330       -4.05680        6.93240
H         -2.44230       -5.59930        8.85550
H          1.28480       -8.31020       10.96270
H          1.82060       -7.00830        9.86890
H          1.46830       -8.64990        9.22830
H          1.38890       -6.98790        7.55450
H          1.29920       -5.45820        5.65790
H         -2.51600       -5.52350        4.44930
H         -4.56650       -5.07580        3.21020
H         -6.73030       -4.62500        2.50730
H         -7.17930       -3.89470        0.95180
H         -5.62390       -4.74420        1.09860
H         -3.51040       -0.93150        2.96370
H         -1.47280       -1.38050        4.25250
H          3.86530       -3.26250        0.94620
H          5.82650       -3.96750       -0.29660
H          7.91640       -4.69670       -1.00050
H          8.64320       -4.38480       -2.59030
H          6.87250       -4.33560       -2.41260
H          6.87820        0.12680       -0.96090
H          4.84970        0.83470        0.23160
H          5.22730        0.14140        2.73630
H          5.26260        1.99210        4.31360
H          5.47590        3.85920        5.64400
H          4.49610        4.25450        7.07020
H          4.66380        2.55580        6.57210
H          1.09850        2.68030        3.61500
H          1.07450        0.82670        1.98990
H          2.38800       -3.34330       -4.30860
H          2.01440       -5.69660       -4.81530
H          0.74700       -7.63470       -5.21810
H          2.51410       -7.94870       -5.20350
H          1.36440       -9.28010       -4.95480
H          1.70130       -6.54280       -0.63360
H          2.09230       -4.16320       -0.13240
H          4.61250       -3.19430       -3.20260
H          6.35740       -1.90870       -4.29270
H          8.34930       -0.64840       -3.81140
H          7.96140       -0.78290       -5.55870
H          9.01330        0.52340       -4.97620
H          4.46220        1.71780       -3.06650
H          2.69220        0.42500       -1.97570
H         -5.10860       -0.29160       -1.62170
H         -5.78380        0.18220        0.67250
H         -6.12510        0.05400        2.94410
H         -6.75220        1.61950        2.33030
H         -6.36310        1.42290        4.05420
H         -2.20990        2.46150        1.25300
H         -1.53680        1.99000       -1.06960
H         -3.15380       -1.23620       -4.84330
H         -4.64470       -0.92970       -6.77770
H         -8.13140        2.44910       -6.47770
H         -7.87770        2.79120       -8.20420
H         -6.70170        3.39110       -7.01290
H         -6.30300        2.55610       -4.93510
H         -4.79330        2.28320       -3.05430
H         -2.23920        2.58360       -4.47260
H         -1.44990        0.28590       -8.81220
H         -0.44080       -0.58090       -6.73710
H         -2.96850        1.47510      -10.63910
H         -4.47950        2.91490      -11.92400
H         -5.33990        5.23100       -8.40780
H         -6.42800        5.75760      -10.31390
H         -5.91920        4.27330      -16.38640
H         -8.82060        7.83220      -14.45660
