
  xtb     02072215073D
 energy: -345.000327772223 gnorm: 0.000255698418 xtb: 6.4.1 (unknown)
206225  0     0  0            999 V2000
    4.1225    3.2697   -0.5060 C   0  0  0  0  0  0  0  0  0  0  0  0
    4.5257    3.9620    0.6113 C   0  0  0  0  0  0  0  0  0  0  0  0
    3.6955    4.2987    1.7690 C   0  0  0  0  0  0  0  0  0  0  0  0
    2.5421    3.9555    1.9777 O   0  0  0  0  0  0  0  0  0  0  0  0
    4.5339    5.1184    2.6587 C   0  0  0  0  0  0  0  0  0  0  0  0
    4.1675    5.6819    3.8791 C   0  0  0  0  0  0  0  0  0  0  0  0
    5.1778    6.3807    4.4954 C   0  0  0  0  0  0  0  0  0  0  0  0
    6.4548    6.5182    3.9369 C   0  0  0  0  0  0  0  0  0  0  0  0
    6.8258    5.9752    2.7290 C   0  0  0  0  0  0  0  0  0  0  0  0
    5.8164    5.2521    2.0877 C   0  0  0  0  0  0  0  0  0  0  0  0
    5.8451    4.5111    0.8266 C   0  0  0  0  0  0  0  0  0  0  0  0
    6.9532    4.3421    0.0318 C   0  0  0  0  0  0  0  0  0  0  0  0
    8.2071    4.9403    0.2708 C   0  0  0  0  0  0  0  0  0  0  0  0
    9.2525    5.4011    0.3905 N   0  0  0  0  0  0  0  0  0  0  0  0
    7.0321    3.5150   -1.1053 C   0  0  0  0  0  0  0  0  0  0  0  0
    7.2014    2.8332   -2.0159 N   0  0  0  0  0  0  0  0  0  0  0  0
    6.9662    7.3271    5.1030 C   0  0  0  0  0  0  0  0  0  0  0  0
    7.8646    6.5826    6.1134 C   0  0  0  0  0  0  0  0  0  0  0  0
    7.8089    7.4462    7.3528 C   0  0  0  0  0  0  0  0  0  0  0  0
    6.5993    7.3146    7.8823 C   0  0  0  0  0  0  0  0  0  0  0  0
    5.8169    6.3600    7.0096 C   0  0  0  0  0  0  0  0  0  0  0  0
    6.9501    5.4319    6.5532 C   0  0  0  0  0  0  0  0  0  0  0  0
    5.5417    7.1728    5.7264 C   0  0  0  0  0  0  0  0  0  0  0  0
    2.9013    2.6663   -0.8089 C   0  0  0  0  0  0  0  0  0  0  0  0
    2.7117    1.8825   -1.9710 C   0  0  0  0  0  0  0  0  0  0  0  0
    3.5993    1.7521   -3.0152 N   0  0  0  0  0  0  0  0  0  0  0  0
    3.6952    0.4826   -3.6123 C   0  0  0  0  0  0  0  0  0  0  0  0
    3.7648   -0.6496   -2.7985 C   0  0  0  0  0  0  0  0  0  0  0  0
    3.8007   -1.9068   -3.3547 C   0  0  0  0  0  0  0  0  0  0  0  0
    3.7784   -2.0614   -4.7392 C   0  0  0  0  0  0  0  0  0  0  0  0
    3.7967   -3.7189   -5.3442 S   0  0  0  0  0  0  0  0  0  0  0  0
    3.9409   -3.5365   -7.1438 C   0  0  0  0  0  0  0  0  0  0  0  0
    3.7332   -0.9385   -5.5544 C   0  0  0  0  0  0  0  0  0  0  0  0
    3.6889    0.3238   -4.9938 C   0  0  0  0  0  0  0  0  0  0  0  0
    4.2331    2.8614   -3.5926 C   0  0  0  0  0  0  0  0  0  0  0  0
    3.6315    4.1179   -3.5601 C   0  0  0  0  0  0  0  0  0  0  0  0
    4.2470    5.2092   -4.1397 C   0  0  0  0  0  0  0  0  0  0  0  0
    5.4739    5.0603   -4.7741 C   0  0  0  0  0  0  0  0  0  0  0  0
    6.3458    6.3742   -5.5645 S   0  0  0  0  0  0  0  0  0  0  0  0
    5.4016    7.8597   -5.1180 C   0  0  0  0  0  0  0  0  0  0  0  0
    6.0714    3.8022   -4.8193 C   0  0  0  0  0  0  0  0  0  0  0  0
    5.4654    2.7153   -4.2311 C   0  0  0  0  0  0  0  0  0  0  0  0
    1.4794    1.2118   -1.9306 C   0  0  0  0  0  0  0  0  0  0  0  0
    0.7368   -0.0046   -2.9121 S   0  0  0  0  0  0  0  0  0  0  0  0
   -0.6742   -0.0237   -1.8593 C   0  0  0  0  0  0  0  0  0  0  0  0
   -0.5628    0.8796   -0.8129 C   0  0  0  0  0  0  0  0  0  0  0  0
   -1.5054    1.1213    0.1794 N   0  0  0  0  0  0  0  0  0  0  0  0
   -2.2514    0.0846    0.7379 C   0  0  0  0  0  0  0  0  0  0  0  0
   -3.5579    0.3095    1.1712 C   0  0  0  0  0  0  0  0  0  0  0  0
   -4.3029   -0.7066    1.7336 C   0  0  0  0  0  0  0  0  0  0  0  0
   -3.7797   -1.9899    1.8163 C   0  0  0  0  0  0  0  0  0  0  0  0
   -4.6890   -3.3524    2.4836 S   0  0  0  0  0  0  0  0  0  0  0  0
   -6.4052   -2.9534    2.0416 C   0  0  0  0  0  0  0  0  0  0  0  0
   -2.4779   -2.2215    1.3872 C   0  0  0  0  0  0  0  0  0  0  0  0
   -1.7096   -1.1940    0.8843 C   0  0  0  0  0  0  0  0  0  0  0  0
   -1.6351    2.4325    0.6718 C   0  0  0  0  0  0  0  0  0  0  0  0
   -1.9741    2.6608    2.0016 C   0  0  0  0  0  0  0  0  0  0  0  0
   -2.1076    3.9432    2.4960 C   0  0  0  0  0  0  0  0  0  0  0  0
   -1.8805    5.0349    1.6696 C   0  0  0  0  0  0  0  0  0  0  0  0
   -2.0209    6.7155    2.1794 S   0  0  0  0  0  0  0  0  0  0  0  0
   -2.3658    6.6114    3.9582 C   0  0  0  0  0  0  0  0  0  0  0  0
   -1.5337    4.8136    0.3387 C   0  0  0  0  0  0  0  0  0  0  0  0
   -1.4173    3.5343   -0.1554 C   0  0  0  0  0  0  0  0  0  0  0  0
    0.6810    1.5584   -0.8518 C   0  0  0  0  0  0  0  0  0  0  0  0
    1.4755    2.6445    0.2347 S   0  0  0  0  0  0  0  0  0  0  0  0
   -1.5763   -1.1301   -2.0209 C   0  0  0  0  0  0  0  0  0  0  0  0
   -2.9602   -1.2135   -2.0789 C   0  0  0  0  0  0  0  0  0  0  0  0
   -3.7366   -0.1253   -2.4211 N   0  0  0  0  0  0  0  0  0  0  0  0
   -3.0904    0.9246   -3.1186 C   0  0  0  0  0  0  0  0  0  0  0  0
   -2.2554    0.6519   -4.1980 C   0  0  0  0  0  0  0  0  0  0  0  0
   -1.5092    1.6540   -4.7819 C   0  0  0  0  0  0  0  0  0  0  0  0
   -1.5995    2.9529   -4.2985 C   0  0  0  0  0  0  0  0  0  0  0  0
   -0.5569    4.2620   -4.8632 S   0  0  0  0  0  0  0  0  0  0  0  0
    0.8217    3.3689   -5.6418 C   0  0  0  0  0  0  0  0  0  0  0  0
   -2.5300    3.2504   -3.3059 C   0  0  0  0  0  0  0  0  0  0  0  0
   -3.2672    2.2442   -2.7156 C   0  0  0  0  0  0  0  0  0  0  0  0
   -5.1339   -0.0923   -2.3376 C   0  0  0  0  0  0  0  0  0  0  0  0
   -5.8108   -0.5783   -1.2261 C   0  0  0  0  0  0  0  0  0  0  0  0
   -7.1916   -0.5431   -1.1642 C   0  0  0  0  0  0  0  0  0  0  0  0
   -7.9226   -0.0128   -2.2161 C   0  0  0  0  0  0  0  0  0  0  0  0
   -9.6847    0.0796   -2.2567 S   0  0  0  0  0  0  0  0  0  0  0  0
  -10.2032   -0.8179   -0.7659 C   0  0  0  0  0  0  0  0  0  0  0  0
   -7.2473    0.4995   -3.3234 C   0  0  0  0  0  0  0  0  0  0  0  0
   -5.8739    0.4607   -3.3860 C   0  0  0  0  0  0  0  0  0  0  0  0
   -3.3736   -2.5601   -1.8718 C   0  0  0  0  0  0  0  0  0  0  0  0
   -4.8737   -3.3609   -1.5376 S   0  0  0  0  0  0  0  0  0  0  0  0
   -4.0365   -4.8730   -1.1614 C   0  0  0  0  0  0  0  0  0  0  0  0
   -2.6897   -4.7956   -1.4794 C   0  0  0  0  0  0  0  0  0  0  0  0
   -1.8297   -5.8723   -1.5377 N   0  0  0  0  0  0  0  0  0  0  0  0
   -0.4349   -5.6670   -1.4592 C   0  0  0  0  0  0  0  0  0  0  0  0
    0.1159   -4.9362   -0.4073 C   0  0  0  0  0  0  0  0  0  0  0  0
    1.4778   -4.7496   -0.3262 C   0  0  0  0  0  0  0  0  0  0  0  0
    2.3184   -5.2794   -1.3023 C   0  0  0  0  0  0  0  0  0  0  0  0
    4.0412   -4.9591   -1.1091 S   0  0  0  0  0  0  0  0  0  0  0  0
    4.8254   -5.9438   -2.4170 C   0  0  0  0  0  0  0  0  0  0  0  0
    1.7750   -6.0066   -2.3542 C   0  0  0  0  0  0  0  0  0  0  0  0
    0.4101   -6.2038   -2.4249 C   0  0  0  0  0  0  0  0  0  0  0  0
   -2.2930   -7.1579   -1.8687 C   0  0  0  0  0  0  0  0  0  0  0  0
   -1.6641   -8.2745   -1.3159 C   0  0  0  0  0  0  0  0  0  0  0  0
   -2.0987   -9.5430   -1.6247 C   0  0  0  0  0  0  0  0  0  0  0  0
   -3.1742   -9.7317   -2.4905 C   0  0  0  0  0  0  0  0  0  0  0  0
   -3.6476  -11.4026   -2.8015 S   0  0  0  0  0  0  0  0  0  0  0  0
   -5.1262  -11.2534   -3.8442 C   0  0  0  0  0  0  0  0  0  0  0  0
   -3.7927   -8.6245   -3.0550 C   0  0  0  0  0  0  0  0  0  0  0  0
   -3.3529   -7.3519   -2.7479 C   0  0  0  0  0  0  0  0  0  0  0  0
   -2.3232   -3.4669   -1.8078 C   0  0  0  0  0  0  0  0  0  0  0  0
   -0.7938   -2.7056   -2.0028 S   0  0  0  0  0  0  0  0  0  0  0  0
   -4.7716   -5.8500   -0.4118 C   0  0  0  0  0  0  0  0  0  0  0  0
   -4.3397   -6.4858    0.7015 C   0  0  0  0  0  0  0  0  0  0  0  0
   -3.0308   -6.3413    1.2713 C   0  0  0  0  0  0  0  0  0  0  0  0
   -2.7979   -6.0168    2.5649 C   0  0  0  0  0  0  0  0  0  0  0  0
   -1.5045   -5.5293    2.9090 C   0  0  0  0  0  0  0  0  0  0  0  0
   -1.1756   -4.4549    3.6807 C   0  0  0  0  0  0  0  0  0  0  0  0
    0.0979   -3.7549    3.3573 C   0  0  0  0  0  0  0  0  0  0  0  0
    1.0712   -4.2221    2.8098 O   0  0  0  0  0  0  0  0  0  0  0  0
   -0.1223   -2.3507    3.7566 C   0  0  0  0  0  0  0  0  0  0  0  0
    0.6637   -1.2572    3.4829 C   0  0  0  0  0  0  0  0  0  0  0  0
    0.2372   -0.0097    3.9509 C   0  0  0  0  0  0  0  0  0  0  0  0
    0.8705    1.2583    3.8165 C   0  0  0  0  0  0  0  0  0  0  0  0
    0.1905    2.2329    4.4610 C   0  0  0  0  0  0  0  0  0  0  0  0
    0.6722    4.0248    4.5925 Br  0  0  0  0  0  0  0  0  0  0  0  0
   -1.2626    1.6835    5.2570 S   0  0  0  0  0  0  0  0  0  0  0  0
   -0.9621    0.0649    4.6987 C   0  0  0  0  0  0  0  0  0  0  0  0
   -1.7750   -1.0341    4.9467 C   0  0  0  0  0  0  0  0  0  0  0  0
   -1.3499   -2.2547    4.4574 C   0  0  0  0  0  0  0  0  0  0  0  0
   -1.9630   -3.5784    4.5243 C   0  0  0  0  0  0  0  0  0  0  0  0
   -3.0134   -3.9308    5.3279 C   0  0  0  0  0  0  0  0  0  0  0  0
   -3.7541   -3.0172    6.1038 C   0  0  0  0  0  0  0  0  0  0  0  0
   -4.4063   -2.3119    6.7329 N   0  0  0  0  0  0  0  0  0  0  0  0
   -3.4437   -5.2583    5.5251 C   0  0  0  0  0  0  0  0  0  0  0  0
   -3.8076   -6.3213    5.7600 N   0  0  0  0  0  0  0  0  0  0  0  0
    4.8700    3.1405   -1.2788 H   0  0  0  0  0  0  0  0  0  0  0  0
    3.1711    5.5598    4.2730 H   0  0  0  0  0  0  0  0  0  0  0  0
    7.8110    6.0952    2.3109 H   0  0  0  0  0  0  0  0  0  0  0  0
    7.3275    8.3263    4.8675 H   0  0  0  0  0  0  0  0  0  0  0  0
    8.8519    6.3242    5.7403 H   0  0  0  0  0  0  0  0  0  0  0  0
    8.6099    8.0854    7.6750 H   0  0  0  0  0  0  0  0  0  0  0  0
    6.1880    7.8220    8.7351 H   0  0  0  0  0  0  0  0  0  0  0  0
    4.9383    5.8988    7.4523 H   0  0  0  0  0  0  0  0  0  0  0  0
    7.3739    4.8627    7.3790 H   0  0  0  0  0  0  0  0  0  0  0  0
    6.6716    4.7538    5.7487 H   0  0  0  0  0  0  0  0  0  0  0  0
    4.9516    8.0688    5.9084 H   0  0  0  0  0  0  0  0  0  0  0  0
    3.7908   -0.5345   -1.7254 H   0  0  0  0  0  0  0  0  0  0  0  0
    3.8484   -2.7778   -2.7204 H   0  0  0  0  0  0  0  0  0  0  0  0
    4.8350   -2.9695   -7.3856 H   0  0  0  0  0  0  0  0  0  0  0  0
    4.0268   -4.5453   -7.5355 H   0  0  0  0  0  0  0  0  0  0  0  0
    3.0492   -3.0621   -7.5435 H   0  0  0  0  0  0  0  0  0  0  0  0
    3.7176   -1.0277   -6.6288 H   0  0  0  0  0  0  0  0  0  0  0  0
    3.6384    1.1924   -5.6341 H   0  0  0  0  0  0  0  0  0  0  0  0
    2.6732    4.2449   -3.0780 H   0  0  0  0  0  0  0  0  0  0  0  0
    3.7509    6.1656   -4.0975 H   0  0  0  0  0  0  0  0  0  0  0  0
    5.9673    8.6949   -5.5190 H   0  0  0  0  0  0  0  0  0  0  0  0
    5.3358    7.9436   -4.0372 H   0  0  0  0  0  0  0  0  0  0  0  0
    4.4160    7.8320   -5.5739 H   0  0  0  0  0  0  0  0  0  0  0  0
    7.0280    3.6923   -5.3050 H   0  0  0  0  0  0  0  0  0  0  0  0
    5.9480    1.7516   -4.2501 H   0  0  0  0  0  0  0  0  0  0  0  0
   -3.9960    1.2898    1.0598 H   0  0  0  0  0  0  0  0  0  0  0  0
   -5.3000   -0.4949    2.0867 H   0  0  0  0  0  0  0  0  0  0  0  0
   -6.9733   -3.8554    2.2466 H   0  0  0  0  0  0  0  0  0  0  0  0
   -6.4523   -2.7141    0.9835 H   0  0  0  0  0  0  0  0  0  0  0  0
   -6.7788   -2.1395    2.6558 H   0  0  0  0  0  0  0  0  0  0  0  0
   -2.0751   -3.2196    1.4603 H   0  0  0  0  0  0  0  0  0  0  0  0
   -0.6855   -1.3807    0.5993 H   0  0  0  0  0  0  0  0  0  0  0  0
   -2.1457    1.8191    2.6557 H   0  0  0  0  0  0  0  0  0  0  0  0
   -2.3838    4.0744    3.5303 H   0  0  0  0  0  0  0  0  0  0  0  0
   -1.5499    6.1015    4.4614 H   0  0  0  0  0  0  0  0  0  0  0  0
   -3.3157    6.1123    4.1265 H   0  0  0  0  0  0  0  0  0  0  0  0
   -2.4259    7.6392    4.3021 H   0  0  0  0  0  0  0  0  0  0  0  0
   -1.3600    5.6612   -0.3060 H   0  0  0  0  0  0  0  0  0  0  0  0
   -1.1605    3.3841   -1.1919 H   0  0  0  0  0  0  0  0  0  0  0  0
   -2.1638   -0.3605   -4.5630 H   0  0  0  0  0  0  0  0  0  0  0  0
   -0.8551    1.4078   -5.6023 H   0  0  0  0  0  0  0  0  0  0  0  0
    1.1409    2.5586   -4.9924 H   0  0  0  0  0  0  0  0  0  0  0  0
    1.6229    4.0936   -5.7523 H   0  0  0  0  0  0  0  0  0  0  0  0
    0.5273    2.9959   -6.6187 H   0  0  0  0  0  0  0  0  0  0  0  0
   -2.6451    4.2727   -2.9797 H   0  0  0  0  0  0  0  0  0  0  0  0
   -3.9565    2.4718   -1.9166 H   0  0  0  0  0  0  0  0  0  0  0  0
   -5.2473   -0.9609   -0.3923 H   0  0  0  0  0  0  0  0  0  0  0  0
   -7.6820   -0.9242   -0.2826 H   0  0  0  0  0  0  0  0  0  0  0  0
  -11.2874   -0.8488   -0.8069 H   0  0  0  0  0  0  0  0  0  0  0  0
   -9.8853   -0.2828    0.1243 H   0  0  0  0  0  0  0  0  0  0  0  0
   -9.8035   -1.8276   -0.7854 H   0  0  0  0  0  0  0  0  0  0  0  0
   -7.8181    0.9197   -4.1371 H   0  0  0  0  0  0  0  0  0  0  0  0
   -5.3631    0.8523   -4.2530 H   0  0  0  0  0  0  0  0  0  0  0  0
   -0.5274   -4.5150    0.3501 H   0  0  0  0  0  0  0  0  0  0  0  0
    1.8980   -4.2096    0.5075 H   0  0  0  0  0  0  0  0  0  0  0  0
    4.5412   -5.5626   -3.3938 H   0  0  0  0  0  0  0  0  0  0  0  0
    4.5552   -6.9891   -2.3007 H   0  0  0  0  0  0  0  0  0  0  0  0
    5.8939   -5.8201   -2.2706 H   0  0  0  0  0  0  0  0  0  0  0  0
    2.4010   -6.4152   -3.1303 H   0  0  0  0  0  0  0  0  0  0  0  0
   -0.0090   -6.7739   -3.2411 H   0  0  0  0  0  0  0  0  0  0  0  0
   -0.8295   -8.1418   -0.6436 H   0  0  0  0  0  0  0  0  0  0  0  0
   -1.6149  -10.4051   -1.1925 H   0  0  0  0  0  0  0  0  0  0  0  0
   -5.4753  -12.2693   -4.0008 H   0  0  0  0  0  0  0  0  0  0  0  0
   -5.8873  -10.6775   -3.3259 H   0  0  0  0  0  0  0  0  0  0  0  0
   -4.8685  -10.8027   -4.7982 H   0  0  0  0  0  0  0  0  0  0  0  0
   -4.6132   -8.7354   -3.7453 H   0  0  0  0  0  0  0  0  0  0  0  0
   -3.8349   -6.5023   -3.2076 H   0  0  0  0  0  0  0  0  0  0  0  0
   -5.8247   -5.9146   -0.6569 H   0  0  0  0  0  0  0  0  0  0  0  0
   -5.0668   -7.0306    1.2883 H   0  0  0  0  0  0  0  0  0  0  0  0
   -2.1901   -6.3292    0.5946 H   0  0  0  0  0  0  0  0  0  0  0  0
   -3.6179   -5.9366    3.2591 H   0  0  0  0  0  0  0  0  0  0  0  0
   -0.6823   -5.8985    2.3001 H   0  0  0  0  0  0  0  0  0  0  0  0
    1.5863   -1.3594    2.9328 H   0  0  0  0  0  0  0  0  0  0  0  0
    1.7758    1.4339    3.2641 H   0  0  0  0  0  0  0  0  0  0  0  0
   -2.6953   -0.9175    5.4946 H   0  0  0  0  0  0  0  0  0  0  0  0
  1  2  2  0  0  0  0
  2  3  1  0  0  0  0
  3  4  2  0  0  0  0
  3  5  1  0  0  0  0
  5  6  2  0  0  0  0
  6  7  1  0  0  0  0
  7  8  2  0  0  0  0
  8  9  1  0  0  0  0
  9 10  2  0  0  0  0
 10 11  1  0  0  0  0
 11 12  2  0  0  0  0
 12 13  1  0  0  0  0
 13 14  3  0  0  0  0
 12 15  1  0  0  0  0
 15 16  3  0  0  0  0
  8 17  1  0  0  0  0
 17 18  1  0  0  0  0
 18 19  1  0  0  0  0
 19 20  2  0  0  0  0
 20 21  1  0  0  0  0
 21 22  1  0  0  0  0
 21 23  1  0  0  0  0
  1 24  1  0  0  0  0
 24 25  2  0  0  0  0
 25 26  1  0  0  0  0
 26 27  1  0  0  0  0
 27 28  2  0  0  0  0
 28 29  1  0  0  0  0
 29 30  2  0  0  0  0
 30 31  1  0  0  0  0
 31 32  1  0  0  0  0
 30 33  1  0  0  0  0
 33 34  2  0  0  0  0
 26 35  1  0  0  0  0
 35 36  2  0  0  0  0
 36 37  1  0  0  0  0
 37 38  2  0  0  0  0
 38 39  1  0  0  0  0
 39 40  1  0  0  0  0
 38 41  1  0  0  0  0
 41 42  2  0  0  0  0
 25 43  1  0  0  0  0
 43 44  1  0  0  0  0
 44 45  1  0  0  0  0
 45 46  2  0  0  0  0
 46 47  1  0  0  0  0
 47 48  1  0  0  0  0
 48 49  2  0  0  0  0
 49 50  1  0  0  0  0
 50 51  2  0  0  0  0
 51 52  1  0  0  0  0
 52 53  1  0  0  0  0
 51 54  1  0  0  0  0
 54 55  2  0  0  0  0
 47 56  1  0  0  0  0
 56 57  2  0  0  0  0
 57 58  1  0  0  0  0
 58 59  2  0  0  0  0
 59 60  1  0  0  0  0
 60 61  1  0  0  0  0
 59 62  1  0  0  0  0
 62 63  2  0  0  0  0
 46 64  1  0  0  0  0
 64 65  1  0  0  0  0
 45 66  1  0  0  0  0
 66 67  2  0  0  0  0
 67 68  1  0  0  0  0
 68 69  1  0  0  0  0
 69 70  2  0  0  0  0
 70 71  1  0  0  0  0
 71 72  2  0  0  0  0
 72 73  1  0  0  0  0
 73 74  1  0  0  0  0
 72 75  1  0  0  0  0
 75 76  2  0  0  0  0
 68 77  1  0  0  0  0
 77 78  2  0  0  0  0
 78 79  1  0  0  0  0
 79 80  2  0  0  0  0
 80 81  1  0  0  0  0
 81 82  1  0  0  0  0
 80 83  1  0  0  0  0
 83 84  2  0  0  0  0
 67 85  1  0  0  0  0
 85 86  1  0  0  0  0
 86 87  1  0  0  0  0
 87 88  2  0  0  0  0
 88 89  1  0  0  0  0
 89 90  1  0  0  0  0
 90 91  2  0  0  0  0
 91 92  1  0  0  0  0
 92 93  2  0  0  0  0
 93 94  1  0  0  0  0
 94 95  1  0  0  0  0
 93 96  1  0  0  0  0
 96 97  2  0  0  0  0
 89 98  1  0  0  0  0
 98 99  2  0  0  0  0
 99100  1  0  0  0  0
100101  2  0  0  0  0
101102  1  0  0  0  0
102103  1  0  0  0  0
101104  1  0  0  0  0
104105  2  0  0  0  0
 88106  1  0  0  0  0
106107  1  0  0  0  0
 87108  1  0  0  0  0
108109  2  0  0  0  0
109110  1  0  0  0  0
110111  2  0  0  0  0
111112  1  0  0  0  0
112113  2  0  0  0  0
113114  1  0  0  0  0
114115  2  0  0  0  0
114116  1  0  0  0  0
116117  2  0  0  0  0
117118  1  0  0  0  0
118119  1  0  0  0  0
119120  2  0  0  0  0
120121  1  0  0  0  0
120122  1  0  0  0  0
122123  1  0  0  0  0
123124  1  0  0  0  0
124125  2  0  0  0  0
125126  1  0  0  0  0
126127  2  0  0  0  0
127128  1  0  0  0  0
128129  3  0  0  0  0
127130  1  0  0  0  0
130131  3  0  0  0  0
 11  2  1  0  0  0  0
 23 17  1  0  0  0  0
 65 24  1  0  0  0  0
107 66  1  0  0  0  0
126113  1  0  0  0  0
 10  5  1  0  0  0  0
 22 18  1  0  0  0  0
 34 27  1  0  0  0  0
 42 35  1  0  0  0  0
 64 43  2  0  0  0  0
 76 69  1  0  0  0  0
 84 77  1  0  0  0  0
106 85  2  0  0  0  0
125116  1  0  0  0  0
 23  7  1  0  0  0  0
 55 48  1  0  0  0  0
 63 56  1  0  0  0  0
 97 90  1  0  0  0  0
105 98  1  0  0  0  0
123118  2  0  0  0  0
  1132  1  0  0  0  0
  6133  1  0  0  0  0
  9134  1  0  0  0  0
 17135  1  0  0  0  0
 18136  1  0  0  0  0
 19137  1  0  0  0  0
 20138  1  0  0  0  0
 21139  1  0  0  0  0
 22140  1  0  0  0  0
 22141  1  0  0  0  0
 23142  1  0  0  0  0
 28143  1  0  0  0  0
 29144  1  0  0  0  0
 32145  1  0  0  0  0
 32146  1  0  0  0  0
 32147  1  0  0  0  0
 33148  1  0  0  0  0
 34149  1  0  0  0  0
 36150  1  0  0  0  0
 37151  1  0  0  0  0
 40152  1  0  0  0  0
 40153  1  0  0  0  0
 40154  1  0  0  0  0
 41155  1  0  0  0  0
 42156  1  0  0  0  0
 49157  1  0  0  0  0
 50158  1  0  0  0  0
 53159  1  0  0  0  0
 53160  1  0  0  0  0
 53161  1  0  0  0  0
 54162  1  0  0  0  0
 55163  1  0  0  0  0
 57164  1  0  0  0  0
 58165  1  0  0  0  0
 61166  1  0  0  0  0
 61167  1  0  0  0  0
 61168  1  0  0  0  0
 62169  1  0  0  0  0
 63170  1  0  0  0  0
 70171  1  0  0  0  0
 71172  1  0  0  0  0
 74173  1  0  0  0  0
 74174  1  0  0  0  0
 74175  1  0  0  0  0
 75176  1  0  0  0  0
 76177  1  0  0  0  0
 78178  1  0  0  0  0
 79179  1  0  0  0  0
 82180  1  0  0  0  0
 82181  1  0  0  0  0
 82182  1  0  0  0  0
 83183  1  0  0  0  0
 84184  1  0  0  0  0
 91185  1  0  0  0  0
 92186  1  0  0  0  0
 95187  1  0  0  0  0
 95188  1  0  0  0  0
 95189  1  0  0  0  0
 96190  1  0  0  0  0
 97191  1  0  0  0  0
 99192  1  0  0  0  0
100193  1  0  0  0  0
103194  1  0  0  0  0
103195  1  0  0  0  0
103196  1  0  0  0  0
104197  1  0  0  0  0
105198  1  0  0  0  0
108199  1  0  0  0  0
109200  1  0  0  0  0
110201  1  0  0  0  0
111202  1  0  0  0  0
112203  1  0  0  0  0
117204  1  0  0  0  0
119205  1  0  0  0  0
124206  1  0  0  0  0
M  END
