
  xtb     02132223063D
 energy: -304.451895000205 gnorm: 0.000240539892 xtb: 6.4.1 (unknown)
175195  0     0  0            999 V2000
    3.5441   -1.6156    4.8933 C   0  0  0  0  0  0  0  0  0  0  0  0
    4.0897   -2.8728    4.7895 C   0  0  0  0  0  0  0  0  0  0  0  0
    3.8437   -3.8568    3.7294 C   0  0  0  0  0  0  0  0  0  0  0  0
    2.9138   -3.8935    2.9408 O   0  0  0  0  0  0  0  0  0  0  0  0
    4.9339   -4.8422    3.8229 C   0  0  0  0  0  0  0  0  0  0  0  0
    5.1757   -5.9089    2.9610 C   0  0  0  0  0  0  0  0  0  0  0  0
    6.2753   -6.6600    3.3003 C   0  0  0  0  0  0  0  0  0  0  0  0
    7.0774   -6.3703    4.4116 C   0  0  0  0  0  0  0  0  0  0  0  0
    6.8497   -5.3188    5.2689 C   0  0  0  0  0  0  0  0  0  0  0  0
    5.7354   -4.5411    4.9422 C   0  0  0  0  0  0  0  0  0  0  0  0
    5.1834   -3.3583    5.6010 C   0  0  0  0  0  0  0  0  0  0  0  0
    5.6359   -2.8214    6.7810 C   0  0  0  0  0  0  0  0  0  0  0  0
    6.7760   -3.2603    7.4825 C   0  0  0  0  0  0  0  0  0  0  0  0
    7.7013   -3.5304    8.1077 N   0  0  0  0  0  0  0  0  0  0  0  0
    5.0140   -1.7782    7.4917 C   0  0  0  0  0  0  0  0  0  0  0  0
    4.5662   -0.9572    8.1612 N   0  0  0  0  0  0  0  0  0  0  0  0
    8.0141   -7.5206    4.1349 C   0  0  0  0  0  0  0  0  0  0  0  0
    9.3694   -7.1654    3.4871 C   0  0  0  0  0  0  0  0  0  0  0  0
    9.8468   -8.4770    2.9063 C   0  0  0  0  0  0  0  0  0  0  0  0
    9.0842   -8.7551    1.8566 C   0  0  0  0  0  0  0  0  0  0  0  0
    8.0785   -7.6362    1.7100 C   0  0  0  0  0  0  0  0  0  0  0  0
    8.9246   -6.4549    2.2021 C   0  0  0  0  0  0  0  0  0  0  0  0
    7.1163   -7.8458    2.8981 C   0  0  0  0  0  0  0  0  0  0  0  0
    2.6645   -0.9466    4.0365 C   0  0  0  0  0  0  0  0  0  0  0  0
    2.4279    0.4497    4.0599 C   0  0  0  0  0  0  0  0  0  0  0  0
    3.0729    1.3586    4.8622 N   0  0  0  0  0  0  0  0  0  0  0  0
    4.4194    1.1958    5.2343 C   0  0  0  0  0  0  0  0  0  0  0  0
    5.3482    0.6866    4.3237 C   0  0  0  0  0  0  0  0  0  0  0  0
    6.6355    0.4198    4.7280 C   0  0  0  0  0  0  0  0  0  0  0  0
    7.0329    0.6818    6.0396 C   0  0  0  0  0  0  0  0  0  0  0  0
    8.6743    0.2145    6.4851 S   0  0  0  0  0  0  0  0  0  0  0  0
    8.6118    0.1565    8.2977 C   0  0  0  0  0  0  0  0  0  0  0  0
    6.1388    1.2805    6.9165 C   0  0  0  0  0  0  0  0  0  0  0  0
    4.8383    1.5251    6.5197 C   0  0  0  0  0  0  0  0  0  0  0  0
    2.3872    2.5170    5.2643 C   0  0  0  0  0  0  0  0  0  0  0  0
    1.0482    2.4439    5.6510 C   0  0  0  0  0  0  0  0  0  0  0  0
    0.3796    3.5786    6.0483 C   0  0  0  0  0  0  0  0  0  0  0  0
    1.0316    4.8110    6.0782 C   0  0  0  0  0  0  0  0  0  0  0  0
    0.0718    6.1885    6.6122 S   0  0  0  0  0  0  0  0  0  0  0  0
    1.2425    7.5761    6.5953 C   0  0  0  0  0  0  0  0  0  0  0  0
    2.3664    4.8853    5.7008 C   0  0  0  0  0  0  0  0  0  0  0  0
    3.0356    3.7474    5.2955 C   0  0  0  0  0  0  0  0  0  0  0  0
    1.4772    0.8150    3.0864 C   0  0  0  0  0  0  0  0  0  0  0  0
    0.7975    2.3230    2.5425 S   0  0  0  0  0  0  0  0  0  0  0  0
   -0.0489    1.4885    1.2650 C   0  0  0  0  0  0  0  0  0  0  0  0
    0.1252    0.1228    1.2996 C   0  0  0  0  0  0  0  0  0  0  0  0
   -0.5160   -0.7776    0.4613 N   0  0  0  0  0  0  0  0  0  0  0  0
   -1.8684   -0.6404    0.1621 C   0  0  0  0  0  0  0  0  0  0  0  0
   -2.7397   -0.0066    1.0496 C   0  0  0  0  0  0  0  0  0  0  0  0
   -4.0768    0.1343    0.7455 C   0  0  0  0  0  0  0  0  0  0  0  0
   -4.5755   -0.3597   -0.4511 C   0  0  0  0  0  0  0  0  0  0  0  0
   -6.2956   -0.2288   -0.8646 S   0  0  0  0  0  0  0  0  0  0  0  0
   -6.7101    1.4112   -0.1991 C   0  0  0  0  0  0  0  0  0  0  0  0
   -3.7225   -1.0178   -1.3293 C   0  0  0  0  0  0  0  0  0  0  0  0
   -2.3831   -1.1533   -1.0301 C   0  0  0  0  0  0  0  0  0  0  0  0
    0.1960   -1.9444    0.1337 C   0  0  0  0  0  0  0  0  0  0  0  0
   -0.3694   -3.2036    0.3070 C   0  0  0  0  0  0  0  0  0  0  0  0
    0.3950   -4.3383    0.1272 C   0  0  0  0  0  0  0  0  0  0  0  0
    1.7344   -4.2286   -0.2220 C   0  0  0  0  0  0  0  0  0  0  0  0
    2.7909   -5.6342   -0.3816 S   0  0  0  0  0  0  0  0  0  0  0  0
    2.0455   -6.7986    0.8002 C   0  0  0  0  0  0  0  0  0  0  0  0
    2.2838   -2.9740   -0.4639 C   0  0  0  0  0  0  0  0  0  0  0  0
    1.5210   -1.8407   -0.2875 C   0  0  0  0  0  0  0  0  0  0  0  0
    1.0125   -0.2563    2.3361 C   0  0  0  0  0  0  0  0  0  0  0  0
    1.7297   -1.7561    2.7779 S   0  0  0  0  0  0  0  0  0  0  0  0
   -0.7874    2.1663    0.2078 C   0  0  0  0  0  0  0  0  0  0  0  0
   -2.0087    2.8413    0.4199 C   0  0  0  0  0  0  0  0  0  0  0  0
   -2.7902    3.2900   -0.7035 C   0  0  0  0  0  0  0  0  0  0  0  0
   -3.9007    3.8141   -0.2222 N   0  0  0  0  0  0  0  0  0  0  0  0
   -3.8144    3.7057    1.1071 O   0  0  0  0  0  0  0  0  0  0  0  0
   -2.6869    3.1217    1.5121 N   0  0  0  0  0  0  0  0  0  0  0  0
   -2.3516    3.1361   -2.0375 C   0  0  0  0  0  0  0  0  0  0  0  0
   -1.1363    2.5168   -2.2259 C   0  0  0  0  0  0  0  0  0  0  0  0
   -0.5362    2.2564   -3.4115 O   0  0  0  0  0  0  0  0  0  0  0  0
   -1.2820    1.9259   -4.5741 C   0  0  0  0  0  0  0  0  0  0  0  0
   -2.0243    0.6053   -4.4296 C   0  0  0  0  0  0  0  0  0  0  0  0
   -0.3662    2.0364   -1.0967 C   0  0  0  0  0  0  0  0  0  0  0  0
    0.7648    1.3122   -1.3340 O   0  0  0  0  0  0  0  0  0  0  0  0
    1.8820    2.0103   -1.8774 C   0  0  0  0  0  0  0  0  0  0  0  0
    2.5655    2.8734   -0.8225 C   0  0  0  0  0  0  0  0  0  0  0  0
   -3.2757    3.5608   -3.0992 C   0  0  0  0  0  0  0  0  0  0  0  0
   -3.1391    4.7321   -3.8488 C   0  0  0  0  0  0  0  0  0  0  0  0
   -4.0178    5.0285   -4.9688 C   0  0  0  0  0  0  0  0  0  0  0  0
   -3.6720    6.1692   -5.5707 N   0  0  0  0  0  0  0  0  0  0  0  0
   -2.4139    6.8052   -4.8073 S   0  0  0  0  0  4  0  0  0  0  0  0
   -2.2017    5.6757   -3.6926 N   0  0  0  0  0  0  0  0  0  0  0  0
   -5.0171    4.1344   -5.3951 C   0  0  0  0  0  0  0  0  0  0  0  0
   -5.2338    3.0318   -4.5497 C   0  0  0  0  0  0  0  0  0  0  0  0
   -6.1885    2.1067   -4.6644 N   0  0  0  0  0  0  0  0  0  0  0  0
   -6.0030    1.0107   -3.5104 S   0  0  0  0  0  0  0  0  0  0  0  0
   -4.7335    1.6431   -2.7752 N   0  0  0  0  0  0  0  0  0  0  0  0
   -4.3783    2.7670   -3.4125 C   0  0  0  0  0  0  0  0  0  0  0  0
   -5.7360    4.3164   -6.6169 C   0  0  0  0  0  0  0  0  0  0  0  0
   -6.0554    3.2873   -7.4468 C   0  0  0  0  0  0  0  0  0  0  0  0
   -5.3886    1.9575   -7.4250 C   0  0  0  0  0  0  0  0  0  0  0  0
   -4.4699    1.5919   -6.7185 O   0  0  0  0  0  0  0  0  0  0  0  0
   -5.9595    1.2054   -8.5539 C   0  0  0  0  0  0  0  0  0  0  0  0
   -5.6576   -0.1058   -8.9163 C   0  0  0  0  0  0  0  0  0  0  0  0
   -6.3276   -0.5478  -10.0306 C   0  0  0  0  0  0  0  0  0  0  0  0
   -7.2261    0.2594  -10.7422 C   0  0  0  0  0  0  0  0  0  0  0  0
   -7.5314    1.5544  -10.3976 C   0  0  0  0  0  0  0  0  0  0  0  0
   -6.8645    2.0227   -9.2609 C   0  0  0  0  0  0  0  0  0  0  0  0
   -6.9411    3.3202   -8.5958 C   0  0  0  0  0  0  0  0  0  0  0  0
   -7.7634    4.3564   -8.9507 C   0  0  0  0  0  0  0  0  0  0  0  0
   -7.8816    5.5745   -8.2475 C   0  0  0  0  0  0  0  0  0  0  0  0
   -8.0534    6.5848   -7.7296 N   0  0  0  0  0  0  0  0  0  0  0  0
   -8.6256    4.3478  -10.0672 C   0  0  0  0  0  0  0  0  0  0  0  0
   -9.3410    4.4143  -10.9628 N   0  0  0  0  0  0  0  0  0  0  0  0
   -7.5154   -0.8197  -11.7553 C   0  0  0  0  0  0  0  0  0  0  0  0
   -6.8396   -0.7061  -13.1444 C   0  0  0  0  0  0  0  0  0  0  0  0
   -5.5680    0.0797  -12.9411 C   0  0  0  0  0  0  0  0  0  0  0  0
   -4.7220   -0.6864  -12.2655 C   0  0  0  0  0  0  0  0  0  0  0  0
   -5.4066   -2.0044  -11.9993 C   0  0  0  0  0  0  0  0  0  0  0  0
   -6.2635   -2.1258  -13.2694 C   0  0  0  0  0  0  0  0  0  0  0  0
   -6.5188   -1.7202  -10.9595 C   0  0  0  0  0  0  0  0  0  0  0  0
    3.9036   -1.0152    5.7186 H   0  0  0  0  0  0  0  0  0  0  0  0
    4.5432   -6.0874    2.1064 H   0  0  0  0  0  0  0  0  0  0  0  0
    7.4773   -5.1062    6.1184 H   0  0  0  0  0  0  0  0  0  0  0  0
    8.1023   -8.2634    4.9254 H   0  0  0  0  0  0  0  0  0  0  0  0
   10.0606   -6.6375    4.1384 H   0  0  0  0  0  0  0  0  0  0  0  0
   10.6279   -9.0751    3.3377 H   0  0  0  0  0  0  0  0  0  0  0  0
    9.1012   -9.6319    1.2362 H   0  0  0  0  0  0  0  0  0  0  0  0
    7.5928   -7.5367    0.7429 H   0  0  0  0  0  0  0  0  0  0  0  0
    8.3562   -5.5427    2.3728 H   0  0  0  0  0  0  0  0  0  0  0  0
    9.7614   -6.2436    1.5384 H   0  0  0  0  0  0  0  0  0  0  0  0
    6.6025   -8.8050    2.8666 H   0  0  0  0  0  0  0  0  0  0  0  0
    5.0414    0.4698    3.3113 H   0  0  0  0  0  0  0  0  0  0  0  0
    7.3497   -0.0024    4.0379 H   0  0  0  0  0  0  0  0  0  0  0  0
    8.6205    1.1619    8.7090 H   0  0  0  0  0  0  0  0  0  0  0  0
    7.7298   -0.3931    8.6122 H   0  0  0  0  0  0  0  0  0  0  0  0
    9.5060   -0.3765    8.6049 H   0  0  0  0  0  0  0  0  0  0  0  0
    6.4305    1.5297    7.9230 H   0  0  0  0  0  0  0  0  0  0  0  0
    4.1341    1.9444    7.2212 H   0  0  0  0  0  0  0  0  0  0  0  0
    0.5425    1.4901    5.6497 H   0  0  0  0  0  0  0  0  0  0  0  0
   -0.6550    3.5253    6.3494 H   0  0  0  0  0  0  0  0  0  0  0  0
    2.0702    7.3719    7.2681 H   0  0  0  0  0  0  0  0  0  0  0  0
    0.6814    8.4341    6.9524 H   0  0  0  0  0  0  0  0  0  0  0  0
    1.5896    7.7594    5.5827 H   0  0  0  0  0  0  0  0  0  0  0  0
    2.8973    5.8232    5.7094 H   0  0  0  0  0  0  0  0  0  0  0  0
    4.0711    3.8124    4.9958 H   0  0  0  0  0  0  0  0  0  0  0  0
   -2.3714    0.3677    1.9927 H   0  0  0  0  0  0  0  0  0  0  0  0
   -4.7269    0.6191    1.4566 H   0  0  0  0  0  0  0  0  0  0  0  0
   -7.6573    1.6922   -0.6491 H   0  0  0  0  0  0  0  0  0  0  0  0
   -6.8198    1.3664    0.8798 H   0  0  0  0  0  0  0  0  0  0  0  0
   -5.9332    2.1151   -0.4849 H   0  0  0  0  0  0  0  0  0  0  0  0
   -4.1164   -1.4144   -2.2524 H   0  0  0  0  0  0  0  0  0  0  0  0
   -1.7194   -1.6525   -1.7199 H   0  0  0  0  0  0  0  0  0  0  0  0
   -1.4021   -3.2898    0.6116 H   0  0  0  0  0  0  0  0  0  0  0  0
   -0.0579   -5.3041    0.2845 H   0  0  0  0  0  0  0  0  0  0  0  0
    1.8469   -6.2679    1.7269 H   0  0  0  0  0  0  0  0  0  0  0  0
    1.1383   -7.2323    0.3895 H   0  0  0  0  0  0  0  0  0  0  0  0
    2.7792   -7.5832    0.9594 H   0  0  0  0  0  0  0  0  0  0  0  0
    3.3170   -2.8997   -0.7666 H   0  0  0  0  0  0  0  0  0  0  0  0
    1.9411   -0.8604   -0.4520 H   0  0  0  0  0  0  0  0  0  0  0  0
   -1.9759    2.7263   -4.8421 H   0  0  0  0  0  0  0  0  0  0  0  0
   -0.5206    1.8542   -5.3553 H   0  0  0  0  0  0  0  0  0  0  0  0
   -2.6476    0.6173   -3.5372 H   0  0  0  0  0  0  0  0  0  0  0  0
   -2.6577    0.4605   -5.3004 H   0  0  0  0  0  0  0  0  0  0  0  0
   -1.3204   -0.2192   -4.3466 H   0  0  0  0  0  0  0  0  0  0  0  0
    1.5778    2.6209   -2.7316 H   0  0  0  0  0  0  0  0  0  0  0  0
    2.5535    1.2211   -2.2241 H   0  0  0  0  0  0  0  0  0  0  0  0
    1.8881    3.6472   -0.4665 H   0  0  0  0  0  0  0  0  0  0  0  0
    3.4442    3.3471   -1.2513 H   0  0  0  0  0  0  0  0  0  0  0  0
    2.8704    2.2650    0.0260 H   0  0  0  0  0  0  0  0  0  0  0  0
   -5.9833    5.3371   -6.8773 H   0  0  0  0  0  0  0  0  0  0  0  0
   -4.9570   -0.6915   -8.3417 H   0  0  0  0  0  0  0  0  0  0  0  0
   -8.2227    2.1620  -10.9570 H   0  0  0  0  0  0  0  0  0  0  0  0
   -8.5521   -1.1429  -11.8245 H   0  0  0  0  0  0  0  0  0  0  0  0
   -7.4958   -0.3598  -13.9382 H   0  0  0  0  0  0  0  0  0  0  0  0
   -5.4393    1.1005  -13.2500 H   0  0  0  0  0  0  0  0  0  0  0  0
   -3.7452   -0.4335  -11.8967 H   0  0  0  0  0  0  0  0  0  0  0  0
   -4.7586   -2.8408  -11.7506 H   0  0  0  0  0  0  0  0  0  0  0  0
   -5.6654   -2.2598  -14.1695 H   0  0  0  0  0  0  0  0  0  0  0  0
   -7.0192   -2.9078  -13.2100 H   0  0  0  0  0  0  0  0  0  0  0  0
   -6.9059   -2.6305  -10.5058 H   0  0  0  0  0  0  0  0  0  0  0  0
  1  2  2  0  0  0  0
  2  3  1  0  0  0  0
  3  4  2  0  0  0  0
  3  5  1  0  0  0  0
  5  6  2  0  0  0  0
  6  7  1  0  0  0  0
  7  8  2  0  0  0  0
  8  9  1  0  0  0  0
  9 10  2  0  0  0  0
 10 11  1  0  0  0  0
 11 12  2  0  0  0  0
 12 13  1  0  0  0  0
 13 14  3  0  0  0  0
 12 15  1  0  0  0  0
 15 16  3  0  0  0  0
  8 17  1  0  0  0  0
 17 18  1  0  0  0  0
 18 19  1  0  0  0  0
 19 20  2  0  0  0  0
 20 21  1  0  0  0  0
 21 22  1  0  0  0  0
 21 23  1  0  0  0  0
  1 24  1  0  0  0  0
 24 25  2  0  0  0  0
 25 26  1  0  0  0  0
 26 27  1  0  0  0  0
 27 28  2  0  0  0  0
 28 29  1  0  0  0  0
 29 30  2  0  0  0  0
 30 31  1  0  0  0  0
 31 32  1  0  0  0  0
 30 33  1  0  0  0  0
 33 34  2  0  0  0  0
 26 35  1  0  0  0  0
 35 36  2  0  0  0  0
 36 37  1  0  0  0  0
 37 38  2  0  0  0  0
 38 39  1  0  0  0  0
 39 40  1  0  0  0  0
 38 41  1  0  0  0  0
 41 42  2  0  0  0  0
 25 43  1  0  0  0  0
 43 44  1  0  0  0  0
 44 45  1  0  0  0  0
 45 46  2  0  0  0  0
 46 47  1  0  0  0  0
 47 48  1  0  0  0  0
 48 49  2  0  0  0  0
 49 50  1  0  0  0  0
 50 51  2  0  0  0  0
 51 52  1  0  0  0  0
 52 53  1  0  0  0  0
 51 54  1  0  0  0  0
 54 55  2  0  0  0  0
 47 56  1  0  0  0  0
 56 57  2  0  0  0  0
 57 58  1  0  0  0  0
 58 59  2  0  0  0  0
 59 60  1  0  0  0  0
 60 61  1  0  0  0  0
 59 62  1  0  0  0  0
 62 63  2  0  0  0  0
 46 64  1  0  0  0  0
 64 65  1  0  0  0  0
 45 66  1  0  0  0  0
 66 67  1  0  0  0  0
 67 68  1  0  0  0  0
 68 69  2  0  0  0  0
 69 70  1  0  0  0  0
 70 71  1  0  0  0  0
 68 72  1  0  0  0  0
 72 73  2  0  0  0  0
 73 74  1  0  0  0  0
 74 75  1  0  0  0  0
 75 76  1  0  0  0  0
 73 77  1  0  0  0  0
 77 78  1  0  0  0  0
 78 79  1  0  0  0  0
 79 80  1  0  0  0  0
 72 81  1  0  0  0  0
 81 82  2  0  0  0  0
 82 83  1  0  0  0  0
 83 84  1  0  0  0  0
 84 85  2  0  0  0  0
 85 86  2  0  0  0  0
 83 87  2  0  0  0  0
 87 88  1  0  0  0  0
 88 89  2  0  0  0  0
 89 90  1  0  0  0  0
 90 91  1  0  0  0  0
 91 92  2  0  0  0  0
 87 93  1  0  0  0  0
 93 94  2  0  0  0  0
 94 95  1  0  0  0  0
 95 96  2  0  0  0  0
 95 97  1  0  0  0  0
 97 98  2  0  0  0  0
 98 99  1  0  0  0  0
 99100  2  0  0  0  0
100101  1  0  0  0  0
101102  2  0  0  0  0
102103  1  0  0  0  0
103104  2  0  0  0  0
104105  1  0  0  0  0
105106  3  0  0  0  0
104107  1  0  0  0  0
107108  3  0  0  0  0
100109  1  0  0  0  0
109110  1  0  0  0  0
110111  1  0  0  0  0
111112  2  0  0  0  0
112113  1  0  0  0  0
113114  1  0  0  0  0
113115  1  0  0  0  0
 11  2  1  0  0  0  0
 23 17  1  0  0  0  0
 65 24  1  0  0  0  0
 77 66  2  0  0  0  0
 92 81  1  0  0  0  0
103 94  1  0  0  0  0
115109  1  0  0  0  0
 10  5  1  0  0  0  0
 22 18  1  0  0  0  0
 34 27  1  0  0  0  0
 42 35  1  0  0  0  0
 64 43  2  0  0  0  0
 71 67  2  0  0  0  0
 86 82  1  0  0  0  0
 92 88  1  0  0  0  0
102 97  1  0  0  0  0
114110  1  0  0  0  0
 23  7  1  0  0  0  0
 55 48  1  0  0  0  0
 63 56  1  0  0  0  0
115 99  1  0  0  0  0
  1116  1  0  0  0  0
  6117  1  0  0  0  0
  9118  1  0  0  0  0
 17119  1  0  0  0  0
 18120  1  0  0  0  0
 19121  1  0  0  0  0
 20122  1  0  0  0  0
 21123  1  0  0  0  0
 22124  1  0  0  0  0
 22125  1  0  0  0  0
 23126  1  0  0  0  0
 28127  1  0  0  0  0
 29128  1  0  0  0  0
 32129  1  0  0  0  0
 32130  1  0  0  0  0
 32131  1  0  0  0  0
 33132  1  0  0  0  0
 34133  1  0  0  0  0
 36134  1  0  0  0  0
 37135  1  0  0  0  0
 40136  1  0  0  0  0
 40137  1  0  0  0  0
 40138  1  0  0  0  0
 41139  1  0  0  0  0
 42140  1  0  0  0  0
 49141  1  0  0  0  0
 50142  1  0  0  0  0
 53143  1  0  0  0  0
 53144  1  0  0  0  0
 53145  1  0  0  0  0
 54146  1  0  0  0  0
 55147  1  0  0  0  0
 57148  1  0  0  0  0
 58149  1  0  0  0  0
 61150  1  0  0  0  0
 61151  1  0  0  0  0
 61152  1  0  0  0  0
 62153  1  0  0  0  0
 63154  1  0  0  0  0
 75155  1  0  0  0  0
 75156  1  0  0  0  0
 76157  1  0  0  0  0
 76158  1  0  0  0  0
 76159  1  0  0  0  0
 79160  1  0  0  0  0
 79161  1  0  0  0  0
 80162  1  0  0  0  0
 80163  1  0  0  0  0
 80164  1  0  0  0  0
 93165  1  0  0  0  0
 98166  1  0  0  0  0
101167  1  0  0  0  0
109168  1  0  0  0  0
110169  1  0  0  0  0
111170  1  0  0  0  0
112171  1  0  0  0  0
113172  1  0  0  0  0
114173  1  0  0  0  0
114174  1  0  0  0  0
115175  1  0  0  0  0
M  END
