160

C         -3.57920       -1.95430       -7.15250
C         -3.02720       -3.15010       -6.85650
C         -2.62700       -3.55990       -5.47260
O         -3.06200       -3.13330       -4.42580
C         -1.75020       -4.72830       -5.64900
C         -1.02080       -5.38310       -4.65860
C         -0.35940       -6.50360       -5.09750
C         -0.43510       -6.95530       -6.42380
C         -1.13730       -6.31060       -7.41330
C         -1.80910       -5.15650       -6.99180
C         -2.65560       -4.23970       -7.74980
C         -3.01180       -4.36880       -9.06280
C         -2.61310       -5.43300       -9.90040
N         -2.32260       -6.26690      -10.63360
C         -3.84510       -3.46700       -9.76120
N         -4.51240       -2.77960      -10.39240
C          0.39930       -8.17840       -6.13690
C         -0.34370       -9.52770       -5.96430
C         -1.73200       -9.20430       -5.47120
C         -1.62790       -8.77000       -4.22230
C         -0.16550       -8.78910       -3.84960
C          0.30310      -10.01050       -4.65600
C          0.50790       -7.65980       -4.66770
C         -3.55480       -0.86700       -6.19610
C         -4.59070        0.02650       -6.01160
F         -5.71080       -0.10650       -6.73340
C         -4.53970        1.05310       -5.04790
F         -5.58660        1.87920       -4.96120
C         -3.44160        1.22160       -4.23460
C         -2.34450        0.33810       -4.41900
N         -1.27540        0.44820       -3.62510
C         -0.24810       -0.35320       -3.77980
C          0.86680       -0.07840       -2.89980
S          2.52870       -0.35480       -3.31140
C          3.10820        0.39700       -1.86940
C          4.56140        0.53730       -1.58000
C          5.23550        1.48680       -2.57210
C          2.05570        0.83710       -1.12070
C          0.79180        0.58660       -1.69900
F         -0.34340        0.94170       -1.09900
F          2.20230        1.45960        0.05860
C         -0.26690       -1.33790       -4.81790
N         -1.30900       -1.44540       -5.60720
C         -2.38050       -0.66590       -5.41630
C          0.80530       -2.27570       -5.09730
S          1.25620       -2.58370       -6.74120
C          2.42120       -3.77220       -6.28750
C          3.28580       -4.45480       -7.29190
C          2.84530       -5.90060       -7.52310
C          2.39890       -3.95610       -4.93450
F          3.17840       -4.84450       -4.29910
C          1.48850       -3.11410       -4.25800
F          1.30220       -3.15630       -2.93360
C         -3.35940        2.15650       -3.11220
C         -2.25370        2.95580       -2.92320
F         -1.34510        3.10350       -3.90170
C         -2.04400        3.64640       -1.72190
F         -0.91730        4.37560       -1.61690
C         -2.93470        3.58680       -0.67120
C         -4.12890        2.84680       -0.87870
N         -5.05950        2.79490        0.09140
C         -6.12830        2.06210       -0.07610
C         -7.14950        2.06630        1.02190
C         -6.76800        2.98630        2.17380
C         -6.29970        1.28610       -1.26380
N         -5.41170        1.33330       -2.22150
C         -4.32830        2.11730       -2.07900
C         -7.44750        0.34810       -1.47540
C         -7.09990       -1.04100       -0.93330
C         -2.62150        4.17570        0.63570
C         -1.38020        3.89880        1.19370
C         -1.10160        4.39690        2.45620
N          0.02850        4.25530        3.21710
C          1.18580        3.46450        2.88610
C          1.10270        2.06540        3.49230
C         -0.18350        4.87210        4.42320
C         -1.47020        5.47450        4.42890
C         -2.05890        5.17080        3.16370
C         -3.29150        5.45080        2.57930
C         -3.56450        4.95130        1.32650
C         -1.89330        6.18580        5.55020
C         -1.06230        6.25790        6.64100
C          0.19220        5.60750        6.66070
C          0.65010        4.94120        5.52290
C          0.97260        5.67520        7.86380
C          1.82450        4.73940        8.36340
C          1.91280        3.31010        7.96220
O          1.44340        2.76090        6.98750
C          2.64950        2.63820        9.04980
C          2.90970        1.27240        9.15260
C          3.61290        0.92050       10.27870
C          4.01960        1.85580       11.24070
C          3.76730        3.20360       11.15390
C          3.06060        3.58480       10.00810
C          2.61840        4.90380        9.57230
C          2.96830        6.09610       10.14770
C          3.77530        6.21940       11.29800
N          4.42400        6.38910       12.23020
C          2.61600        7.36950        9.65040
N          2.39550        8.44130        9.30220
C          4.67540        0.80470       12.10120
C          6.21510        0.72290       12.03340
C          6.52800       -0.65480       12.57110
C          6.14600       -1.54010       11.65950
C          5.56840       -0.77550       10.49010
C          6.44770        0.48070       10.53640
C          4.22520       -0.23720       11.02740
H         -3.99060       -1.74130       -8.12960
H         -1.01220       -5.01700       -3.64350
H         -1.18210       -6.66930       -8.42820
H          1.31290       -8.29120       -6.71590
H         -0.28270      -10.18600       -6.82670
H         -2.61390       -9.27040       -6.08100
H         -2.40550       -8.40080       -3.57980
H          0.06030       -8.77350       -2.78680
H         -0.12610      -10.94320       -4.29370
H          1.38670      -10.10240       -4.71490
H          1.49420       -7.40030       -4.28810
H          4.67440        0.91910       -0.56350
H          5.03960       -0.44330       -1.63760
H          5.13220        1.10780       -3.58630
H          4.78180        2.47340       -2.52180
H          6.29250        1.57830       -2.33880
H          4.31760       -4.44920       -6.93140
H          3.24210       -3.90030       -8.22960
H          3.48080       -6.36600       -8.27140
H          1.81470       -5.93160       -7.86870
H          2.92460       -6.46490       -6.59780
H         -7.27230        1.04350        1.38840
H         -8.11130        2.37660        0.60240
H         -6.70940        4.01500        1.83100
H         -7.50990        2.92120        2.96590
H         -5.79580        2.71040        2.57140
H         -8.34770        0.72360       -0.98850
H         -7.62700        0.27340       -2.54840
H         -6.89260       -1.00360        0.13420
H         -7.92830       -1.72450       -1.10130
H         -6.22020       -1.42770       -1.44160
H         -0.67420        3.27790        0.66590
H          2.07590        3.98090        3.25670
H          1.25970        3.39930        1.79910
H          1.06470        2.12220        4.57750
H          0.21000        1.55640        3.13630
H          1.97340        1.48600        3.19780
H         -4.02210        6.04450        3.10740
H         -4.51110        5.15370        0.85370
H         -2.85830        6.66920        5.55790
H         -1.37840        6.79290        7.52440
H          1.63780        4.51490        5.50330
H          0.80200        6.56140        8.46520
H          2.57010        0.58590        8.39280
H          4.07510        3.90930       11.90730
H          4.28800        0.71020       13.11380
H          6.73550        1.55850       12.49310
H          6.93020       -0.83970       13.54980
H          6.16510       -2.61220       11.72470
H          5.50100       -1.30610        9.54410
H          7.49040        0.26170       10.31230
H          6.10030        1.28980        9.89660
H          3.53820       -1.02760       11.32400
