189

C         -7.27390       -0.27790        3.04000
C         -8.37760        0.28650        2.49190
C         -8.40560        1.14810        1.28390
O         -7.46130        1.51210        0.61490
C         -9.81540        1.52840        1.09270
C        -10.33220        2.31380        0.06510
C        -11.68940        2.51140        0.13960
C        -12.47850        1.96320        1.16060
C        -11.98200        1.18630        2.17920
C        -10.59910        0.97990        2.12830
C         -9.72490        0.25630        3.04580
C        -10.11020       -0.30090        4.23610
C         -9.25800       -0.89930        5.18700
N         -8.64570       -1.36410        6.04130
C        -11.43410       -0.30520        4.72680
N        -12.48210       -0.34920        5.19350
C        -13.74520        2.57770        0.61970
C        -14.29890        3.83350        1.33760
C        -13.11800        4.51350        1.98500
C        -12.37050        5.03240        1.02010
C        -13.03270        4.71280       -0.29750
C        -14.50980        4.75430        0.12500
C        -12.86600        3.18850       -0.51670
C         -5.93770       -0.30900        2.50610
C         -4.86070       -0.08170        3.39010
C         -4.91740        0.22180        4.78050
C         -3.70110        0.35360        5.36130
C         -3.39230        0.60990        6.79510
C         -2.91000       -0.66520        7.49110
S         -2.39820        0.12980        4.22310
C         -3.53060       -0.14310        2.92910
C         -3.19940       -0.47700        1.62130
C         -4.26560       -0.69310        0.73530
C         -5.60330       -0.61670        1.18660
S         -6.69790       -1.07850       -0.07490
C         -5.39060       -1.28220       -1.20960
C         -5.66890       -1.70360       -2.61250
C         -5.33250       -3.18080       -2.83110
C         -4.18790       -1.03740       -0.64340
C         -1.82530       -0.67770        1.19660
C         -1.29680       -1.81910        0.62280
N         -1.99200       -3.00620        0.44100
C         -1.79060       -3.77470       -0.70790
C         -1.97770       -5.15450       -0.66480
C         -1.80490       -5.92980       -1.79380
C         -1.42480       -5.34090       -2.99250
S         -1.18570       -6.22260       -4.50360
C         -1.32640       -7.96610       -4.01860
C         -1.22580       -3.96340       -3.04030
C         -1.41060       -3.18880       -1.91690
C         -3.00900       -3.33690        1.35330
C         -2.80630       -3.15910        2.71780
C         -3.84270       -3.32790        3.61510
C         -5.10550       -3.67660        3.15690
S         -6.53970       -3.77970        4.17820
C         -5.97320       -3.15940        5.78620
C         -5.28760       -3.94700        1.80140
C         -4.25220       -3.78730        0.90990
C          0.07570       -1.63940        0.31110
S          1.30400       -2.64240       -0.37910
C          2.45760       -1.32530       -0.27440
C          1.93730       -0.20380        0.36050
N          2.65700        0.91540        0.75120
C          4.00790        0.77910        1.10740
C          4.95770        1.71970        0.70630
C          6.29790        1.48290        0.91160
C          6.72770        0.30930        1.52950
S          8.47010        0.05030        1.59440
C          8.64310       -1.65170        2.20190
C          5.77990       -0.57440        2.02940
C          4.43520       -0.33800        1.82080
C          2.07340        2.18170        0.62380
C          2.41680        3.20950        1.50330
C          1.87000        4.46320        1.35470
C          0.95510        4.72270        0.33490
S          0.34810        6.37730        0.22150
C         -0.89420        6.29680       -1.09990
C          0.59110        3.69870       -0.52700
C          1.14960        2.44410       -0.38470
C          0.56790       -0.39250        0.66560
S         -0.63660        0.58810        1.42420
C          3.80130       -1.51520       -0.74680
C          4.51100       -0.53110       -1.44990
C          3.97830        0.69620       -1.92330
C          4.91520        1.52610       -2.44560
C          4.73830        2.90720       -2.90410
O          5.57770        3.55440       -3.47710
O          3.53010        3.36390       -2.54010
C          3.20190        4.71240       -2.87740
C          2.28760        4.75570       -4.09240
S          6.50700        0.82360       -2.44340
C          5.90880       -0.63290       -1.70950
C          6.68730       -1.72090       -1.29950
C          5.94890       -2.73410       -0.63920
C          4.54220       -2.66000       -0.41110
N          4.18960       -3.76100        0.27140
N          5.30090       -4.41980        0.41290
C          5.35480       -5.66050        1.13100
C          5.90600       -5.43450        2.53580
N          6.37800       -3.87590       -0.08680
C          8.10040       -1.85640       -1.34220
C          9.06180       -1.26300       -2.10220
C         10.46060       -1.24480       -1.58260
O         10.88660       -1.86280       -0.63520
C         11.17730       -0.27900       -2.44380
C         12.46120        0.20750       -2.33000
C         12.90020        1.14330       -3.26960
C         14.28750        1.66070       -3.14400
O         15.06540        1.31410       -2.29040
O         14.58750        2.56220       -4.08960
C         15.89900        3.10250       -4.03380
C         12.04960        1.57310       -4.28750
C         10.76010        1.07690       -4.40550
C         10.32320        0.14050       -3.48220
C          9.04970       -0.56520       -3.36080
C          8.12370       -0.72310       -4.36180
C          7.03550       -1.61380       -4.26840
N          6.15590       -2.35070       -4.23690
C          8.21460       -0.11010       -5.62770
N          8.24150        0.35620       -6.67610
H         -7.37200       -0.73680        4.01510
H         -9.68760        2.71290       -0.70240
H        -12.60400        0.77060        2.95400
H        -14.53160        1.88040        0.33770
H        -15.15530        3.64560        1.97930
H        -12.92390        4.49830        3.04150
H        -11.42630        5.53720        1.10920
H        -12.73650        5.32590       -1.14470
H        -14.83900        5.75320        0.40710
H        -15.18660        4.34090       -0.62160
H        -13.07830        2.89110       -1.54180
H         -5.83620        0.34640        5.32650
H         -4.29120        0.98150        7.29090
H         -2.61460        1.37350        6.86940
H         -2.66420       -0.45560        8.52870
H         -2.02300       -1.05270        6.99460
H         -3.68580       -1.42750        7.46750
H         -5.06780       -1.09630       -3.29350
H         -6.72230       -1.53340       -2.83910
H         -4.27930       -3.36740       -2.63180
H         -5.54240       -3.46280       -3.85970
H         -5.93160       -3.80650       -2.17330
H         -3.26210       -1.08870       -1.18590
H         -2.26470       -5.62200        0.26530
H         -1.96610       -6.99310       -1.72160
H         -1.10280       -8.53650       -4.91480
H         -0.59830       -8.19300       -3.24540
H         -2.33770       -8.18430       -3.68750
H         -0.93300       -3.50770       -3.97350
H         -1.26360       -2.12100       -1.97980
H         -1.83360       -2.85660        3.07770
H         -3.65330       -3.16960        4.66450
H         -6.87450       -3.01780        6.37480
H         -5.47090       -2.20600        5.64980
H         -5.32260       -3.88920        6.26010
H         -6.26280       -4.25370        1.45550
H         -4.40950       -3.97160       -0.14110
H          4.64190        2.61750        0.19700
H          7.03440        2.19180        0.56570
H          9.67370       -1.92450        1.99520
H          8.45100       -1.68910        3.27080
H          7.97250       -2.30820        1.65610
H          6.07640       -1.45400        2.57850
H          3.70710       -1.04330        2.19400
H          3.11660        3.01590        2.30200
H          2.14160        5.25960        2.03040
H         -0.41960        6.05610       -2.04710
H         -1.66010        5.57100       -0.84310
H         -1.32980        7.28990       -1.15020
H         -0.11640        3.86320       -1.32330
H          0.86500        1.66530       -1.07670
H          2.93770        0.95460       -1.88290
H          2.70390        5.12070       -1.99380
H          4.12720        5.26360       -3.07180
H          2.79840        4.34480       -4.96000
H          1.38900        4.17190       -3.90720
H          2.01060        5.78480       -4.30280
H          6.00260       -6.34340        0.57720
H          4.33720       -6.05200        1.16880
H          5.26800       -4.74680        3.08620
H          5.94630       -6.37780        3.07240
H          6.91010       -5.02070        2.48030
H          8.49630       -2.52120       -0.57990
H         13.12070       -0.11700       -1.53970
H         16.06400        3.59960       -3.07570
H         16.64100        2.30960       -4.14880
H         15.96950        3.81440       -4.85210
H         12.40790        2.30550       -4.99350
H         10.11500        1.42950       -5.19420
