
  xtb     02072221433D
 energy: -321.500351328194 gnorm: 0.000415966177 xtb: 6.4.1 (unknown)
199219  0     0  0            999 V2000
   -3.4744    0.7256    9.5889 C   0  0  0  0  0  0  0  0  0  0  0  0
   -2.7450    1.4390   10.5141 C   0  0  0  0  0  0  0  0  0  0  0  0
   -1.6208    2.3338   10.2385 C   0  0  0  0  0  0  0  0  0  0  0  0
   -1.1504    2.6294    9.1519 O   0  0  0  0  0  0  0  0  0  0  0  0
   -1.1460    2.8211   11.5463 C   0  0  0  0  0  0  0  0  0  0  0  0
   -0.0763    3.6796   11.7830 C   0  0  0  0  0  0  0  0  0  0  0  0
    0.1434    3.9447   13.1137 C   0  0  0  0  0  0  0  0  0  0  0  0
   -0.6426    3.3928   14.1327 C   0  0  0  0  0  0  0  0  0  0  0  0
   -1.7012    2.5435   13.9112 C   0  0  0  0  0  0  0  0  0  0  0  0
   -1.9444    2.2637   12.5642 C   0  0  0  0  0  0  0  0  0  0  0  0
   -2.9588    1.4096   11.9440 C   0  0  0  0  0  0  0  0  0  0  0  0
   -3.9281    0.7168   12.6296 C   0  0  0  0  0  0  0  0  0  0  0  0
   -4.9129   -0.1155   12.0614 C   0  0  0  0  0  0  0  0  0  0  0  0
   -5.7490   -0.8126   11.6899 N   0  0  0  0  0  0  0  0  0  0  0  0
   -4.0893    0.7397   14.0297 C   0  0  0  0  0  0  0  0  0  0  0  0
   -4.2908    0.7069   15.1603 N   0  0  0  0  0  0  0  0  0  0  0  0
    0.1382    4.0868   15.2208 C   0  0  0  0  0  0  0  0  0  0  0  0
   -0.4966    5.3354   15.8810 C   0  0  0  0  0  0  0  0  0  0  0  0
   -1.4277    5.9350   14.8569 C   0  0  0  0  0  0  0  0  0  0  0  0
   -0.6844    6.4591   13.8916 C   0  0  0  0  0  0  0  0  0  0  0  0
    0.7630    6.2230   14.2455 C   0  0  0  0  0  0  0  0  0  0  0  0
    0.6851    6.3130   15.7779 C   0  0  0  0  0  0  0  0  0  0  0  0
    1.0138    4.7032   14.0845 C   0  0  0  0  0  0  0  0  0  0  0  0
   -3.3462    0.6116    8.2043 C   0  0  0  0  0  0  0  0  0  0  0  0
   -4.1795   -0.2208    7.4123 C   0  0  0  0  0  0  0  0  0  0  0  0
   -5.3730   -0.9177    7.9888 C   0  0  0  0  0  0  0  0  0  0  0  0
   -6.5084    0.0688    8.2807 C   0  0  0  0  0  0  0  0  0  0  0  0
   -3.7696   -0.2547    6.0896 C   0  0  0  0  0  0  0  0  0  0  0  0
   -2.6388    0.5578    5.8751 C   0  0  0  0  0  0  0  0  0  0  0  0
   -2.0830    1.3864    7.2556 S   0  0  0  0  0  0  0  0  0  0  0  0
   -2.2159    0.4208    4.5406 C   0  0  0  0  0  0  0  0  0  0  0  0
   -3.0199   -0.5119    3.8932 C   0  0  0  0  0  0  0  0  0  0  0  0
   -4.1242   -1.0028    4.8065 C   0  0  0  0  0  0  0  0  0  0  0  0
   -4.0389   -2.5204    5.0530 C   0  0  0  0  0  0  0  0  0  0  0  0
   -4.1265   -3.3796    3.7972 C   0  0  0  0  0  0  0  0  0  0  0  0
   -5.4442   -0.5413    4.1432 C   0  0  0  0  0  0  0  0  0  0  0  0
   -6.7485   -1.1065    4.6882 C   0  0  0  0  0  0  0  0  0  0  0  0
   -2.6619   -0.7001    2.5636 C   0  0  0  0  0  0  0  0  0  0  0  0
   -1.5903    0.0945    2.1860 C   0  0  0  0  0  0  0  0  0  0  0  0
   -1.0055    1.0794    3.5143 S   0  0  0  0  0  0  0  0  0  0  0  0
   -0.9390    0.1849    0.9275 C   0  0  0  0  0  0  0  0  0  0  0  0
   -1.3041   -0.3204   -0.3165 C   0  0  0  0  0  0  0  0  0  0  0  0
   -2.4520   -1.0283   -0.6511 N   0  0  0  0  0  0  0  0  0  0  0  0
   -2.2691   -2.0106   -1.6477 C   0  0  0  0  0  0  0  0  0  0  0  0
   -1.2710   -2.9688   -1.4749 C   0  0  0  0  0  0  0  0  0  0  0  0
   -0.9628   -3.8417   -2.4942 C   0  0  0  0  0  0  0  0  0  0  0  0
   -1.6459   -3.7709   -3.7044 C   0  0  0  0  0  0  0  0  0  0  0  0
   -1.1363   -4.8743   -4.9887 S   0  0  0  0  0  0  0  0  0  0  0  0
   -1.5623   -3.9688   -6.5041 C   0  0  0  0  0  0  0  0  0  0  0  0
   -2.6869   -2.8647   -3.8553 C   0  0  0  0  0  0  0  0  0  0  0  0
   -2.9972   -1.9899   -2.8330 C   0  0  0  0  0  0  0  0  0  0  0  0
   -3.7303   -0.6365   -0.2638 C   0  0  0  0  0  0  0  0  0  0  0  0
   -3.9992    0.6620    0.1634 C   0  0  0  0  0  0  0  0  0  0  0  0
   -5.2557    1.0116    0.6184 C   0  0  0  0  0  0  0  0  0  0  0  0
   -6.2731    0.0686    0.6515 C   0  0  0  0  0  0  0  0  0  0  0  0
   -7.9048    0.3827    1.2519 S   0  0  0  0  0  0  0  0  0  0  0  0
   -7.8165    2.0786    1.8907 C   0  0  0  0  0  0  0  0  0  0  0  0
   -6.0191   -1.2243    0.1950 C   0  0  0  0  0  0  0  0  0  0  0  0
   -4.7670   -1.5752   -0.2541 C   0  0  0  0  0  0  0  0  0  0  0  0
   -0.3054   -0.0440   -1.2838 C   0  0  0  0  0  0  0  0  0  0  0  0
   -0.1156   -0.4469   -2.9508 S   0  0  0  0  0  0  0  0  0  0  0  0
    1.4252    0.3846   -3.0034 C   0  0  0  0  0  0  0  0  0  0  0  0
    1.7849    0.9154   -1.7833 C   0  0  0  0  0  0  0  0  0  0  0  0
    2.9848    1.5391   -1.4688 N   0  0  0  0  0  0  0  0  0  0  0  0
    2.8912    2.5887   -0.5371 C   0  0  0  0  0  0  0  0  0  0  0  0
    1.9203    3.5725   -0.7264 C   0  0  0  0  0  0  0  0  0  0  0  0
    1.7463    4.5663    0.2098 C   0  0  0  0  0  0  0  0  0  0  0  0
    2.5399    4.6008    1.3543 C   0  0  0  0  0  0  0  0  0  0  0  0
    2.2227    5.9056    2.4999 S   0  0  0  0  0  0  0  0  0  0  0  0
    3.0351    5.3392    4.0216 C   0  0  0  0  0  0  0  0  0  0  0  0
    3.5259    3.6391    1.5327 C   0  0  0  0  0  0  0  0  0  0  0  0
    3.6956    2.6377    0.5967 C   0  0  0  0  0  0  0  0  0  0  0  0
    4.2109    1.0444   -1.8993 C   0  0  0  0  0  0  0  0  0  0  0  0
    4.3500   -0.2671   -2.3518 C   0  0  0  0  0  0  0  0  0  0  0  0
    5.5663   -0.7375   -2.8066 C   0  0  0  0  0  0  0  0  0  0  0  0
    6.6829    0.0859   -2.8002 C   0  0  0  0  0  0  0  0  0  0  0  0
    8.2871   -0.3999   -3.3612 S   0  0  0  0  0  0  0  0  0  0  0  0
    8.0490   -2.1011   -3.9465 C   0  0  0  0  0  0  0  0  0  0  0  0
    6.5607    1.3868   -2.3176 C   0  0  0  0  0  0  0  0  0  0  0  0
    5.3442    1.8630   -1.8808 C   0  0  0  0  0  0  0  0  0  0  0  0
    0.7790    0.6739   -0.8123 C   0  0  0  0  0  0  0  0  0  0  0  0
    0.5989    1.0474    0.8647 S   0  0  0  0  0  0  0  0  0  0  0  0
    2.0875    0.3797   -4.2934 C   0  0  0  0  0  0  0  0  0  0  0  0
    2.5091    1.5561   -4.9203 C   0  0  0  0  0  0  0  0  0  0  0  0
    2.4604    2.6644   -4.1519 O   0  0  0  0  0  0  0  0  0  0  0  0
    3.1848    3.8539   -4.4543 C   0  0  0  0  0  0  0  0  0  0  0  0
    4.6635    3.6384   -4.7425 C   0  0  0  0  0  0  0  0  0  0  0  0
    2.8215    1.5172   -6.3051 C   0  0  0  0  0  0  0  0  0  0  0  0
    2.9820    2.6854   -7.0167 O   0  0  0  0  0  0  0  0  0  0  0  0
    1.7713    3.2730   -7.4884 C   0  0  0  0  0  0  0  0  0  0  0  0
    1.1286    2.5205   -8.6455 C   0  0  0  0  0  0  0  0  0  0  0  0
    2.9027    0.3162   -6.9986 C   0  0  0  0  0  0  0  0  0  0  0  0
    2.6470   -0.9037   -6.3149 C   0  0  0  0  0  0  0  0  0  0  0  0
    2.1719   -0.8547   -4.9810 C   0  0  0  0  0  0  0  0  0  0  0  0
    1.8286   -1.9907   -4.3433 N   0  0  0  0  0  0  0  0  0  0  0  0
    1.9587   -3.1199   -4.9842 C   0  0  0  0  0  0  0  0  0  0  0  0
    2.4871   -3.1726   -6.2865 C   0  0  0  0  0  0  0  0  0  0  0  0
    2.8232   -2.0851   -6.9283 N   0  0  0  0  0  0  0  0  0  0  0  0
    3.2931    0.2714   -8.3870 C   0  0  0  0  0  0  0  0  0  0  0  0
    2.8088   -0.6514   -9.2450 C   0  0  0  0  0  0  0  0  0  0  0  0
    1.6546   -1.5568   -8.9651 C   0  0  0  0  0  0  0  0  0  0  0  0
    0.6715   -1.3121   -8.2949 O   0  0  0  0  0  0  0  0  0  0  0  0
    1.8457   -2.7042   -9.8735 C   0  0  0  0  0  0  0  0  0  0  0  0
    1.1501   -3.9101   -9.8740 C   0  0  0  0  0  0  0  0  0  0  0  0
    1.5397   -4.7850  -10.8588 C   0  0  0  0  0  0  0  0  0  0  0  0
    2.5469   -4.4827  -11.7864 C   0  0  0  0  0  0  0  0  0  0  0  0
    3.2327   -3.2930  -11.8088 C   0  0  0  0  0  0  0  0  0  0  0  0
    2.8511   -2.3887  -10.8121 C   0  0  0  0  0  0  0  0  0  0  0  0
    3.3543   -1.0486  -10.5333 C   0  0  0  0  0  0  0  0  0  0  0  0
    4.1519   -0.2907  -11.3443 C   0  0  0  0  0  0  0  0  0  0  0  0
    4.5180    1.0424  -11.0585 C   0  0  0  0  0  0  0  0  0  0  0  0
    4.8243    2.1357  -10.8907 N   0  0  0  0  0  0  0  0  0  0  0  0
    4.6466   -0.7143  -12.5955 C   0  0  0  0  0  0  0  0  0  0  0  0
    5.0754   -1.0054  -13.6196 N   0  0  0  0  0  0  0  0  0  0  0  0
    2.4110   -5.8115  -12.4866 C   0  0  0  0  0  0  0  0  0  0  0  0
    1.6571   -5.8380  -13.8390 C   0  0  0  0  0  0  0  0  0  0  0  0
    0.6956   -4.6757  -13.8160 C   0  0  0  0  0  0  0  0  0  0  0  0
   -0.2601   -4.9583  -12.9408 C   0  0  0  0  0  0  0  0  0  0  0  0
    0.0378   -6.3172  -12.3563 C   0  0  0  0  0  0  0  0  0  0  0  0
    0.6855   -6.9988  -13.5721 C   0  0  0  0  0  0  0  0  0  0  0  0
    1.2869   -6.1464  -11.4560 C   0  0  0  0  0  0  0  0  0  0  0  0
   -4.2675    0.1194   10.0023 H   0  0  0  0  0  0  0  0  0  0  0  0
    0.5059    4.0773   10.9664 H   0  0  0  0  0  0  0  0  0  0  0  0
   -2.2916    2.1260   14.7093 H   0  0  0  0  0  0  0  0  0  0  0  0
    0.6266    3.4379   15.9452 H   0  0  0  0  0  0  0  0  0  0  0  0
   -0.9173    5.1596   16.8675 H   0  0  0  0  0  0  0  0  0  0  0  0
   -2.4986    5.8666   14.9090 H   0  0  0  0  0  0  0  0  0  0  0  0
   -1.0101    6.9160   12.9754 H   0  0  0  0  0  0  0  0  0  0  0  0
    1.4897    6.8565   13.7432 H   0  0  0  0  0  0  0  0  0  0  0  0
    0.4366    7.3133   16.1294 H   0  0  0  0  0  0  0  0  0  0  0  0
    1.5852    5.9598   16.2796 H   0  0  0  0  0  0  0  0  0  0  0  0
    2.0740    4.4572   14.0685 H   0  0  0  0  0  0  0  0  0  0  0  0
   -5.7231   -1.6697    7.2842 H   0  0  0  0  0  0  0  0  0  0  0  0
   -5.1058   -1.4342    8.9131 H   0  0  0  0  0  0  0  0  0  0  0  0
   -6.7721    0.6296    7.3862 H   0  0  0  0  0  0  0  0  0  0  0  0
   -7.3849   -0.4707    8.6297 H   0  0  0  0  0  0  0  0  0  0  0  0
   -6.2200    0.7807    9.0491 H   0  0  0  0  0  0  0  0  0  0  0  0
   -3.0900   -2.7233    5.5562 H   0  0  0  0  0  0  0  0  0  0  0  0
   -4.8362   -2.8072    5.7385 H   0  0  0  0  0  0  0  0  0  0  0  0
   -4.1870   -4.4284    4.0808 H   0  0  0  0  0  0  0  0  0  0  0  0
   -5.0063   -3.1345    3.2085 H   0  0  0  0  0  0  0  0  0  0  0  0
   -3.2446   -3.2508    3.1767 H   0  0  0  0  0  0  0  0  0  0  0  0
   -5.4714    0.5499    4.2079 H   0  0  0  0  0  0  0  0  0  0  0  0
   -5.3786   -0.7986    3.0841 H   0  0  0  0  0  0  0  0  0  0  0  0
   -6.9340   -0.7824    5.7053 H   0  0  0  0  0  0  0  0  0  0  0  0
   -6.7559   -2.1922    4.6556 H   0  0  0  0  0  0  0  0  0  0  0  0
   -7.5677   -0.7517    4.0657 H   0  0  0  0  0  0  0  0  0  0  0  0
   -3.1344   -1.3925    1.8962 H   0  0  0  0  0  0  0  0  0  0  0  0
   -0.7186   -2.9966   -0.5473 H   0  0  0  0  0  0  0  0  0  0  0  0
   -0.1788   -4.5722   -2.3696 H   0  0  0  0  0  0  0  0  0  0  0  0
   -1.1161   -4.5370   -7.3143 H   0  0  0  0  0  0  0  0  0  0  0  0
   -1.1354   -2.9706   -6.4689 H   0  0  0  0  0  0  0  0  0  0  0  0
   -2.6391   -3.9342   -6.6396 H   0  0  0  0  0  0  0  0  0  0  0  0
   -3.2470   -2.8158   -4.7753 H   0  0  0  0  0  0  0  0  0  0  0  0
   -3.7866   -1.2646   -2.9626 H   0  0  0  0  0  0  0  0  0  0  0  0
   -3.2191    1.4070    0.1381 H   0  0  0  0  0  0  0  0  0  0  0  0
   -5.4235    2.0251    0.9443 H   0  0  0  0  0  0  0  0  0  0  0  0
   -7.6335    2.7756    1.0781 H   0  0  0  0  0  0  0  0  0  0  0  0
   -7.0450    2.1466    2.6520 H   0  0  0  0  0  0  0  0  0  0  0  0
   -8.7889    2.2759    2.3313 H   0  0  0  0  0  0  0  0  0  0  0  0
   -6.8152   -1.9529    0.2139 H   0  0  0  0  0  0  0  0  0  0  0  0
   -4.5743   -2.5849   -0.5851 H   0  0  0  0  0  0  0  0  0  0  0  0
    1.3013    3.5361   -1.6108 H   0  0  0  0  0  0  0  0  0  0  0  0
    0.9908    5.3245    0.0717 H   0  0  0  0  0  0  0  0  0  0  0  0
    2.7156    4.3260    4.2457 H   0  0  0  0  0  0  0  0  0  0  0  0
    4.1149    5.4027    3.9214 H   0  0  0  0  0  0  0  0  0  0  0  0
    2.6997    6.0149    4.8022 H   0  0  0  0  0  0  0  0  0  0  0  0
    4.1606    3.6506    2.4040 H   0  0  0  0  0  0  0  0  0  0  0  0
    4.4475    1.8783    0.7526 H   0  0  0  0  0  0  0  0  0  0  0  0
    3.5052   -0.9379   -2.3400 H   0  0  0  0  0  0  0  0  0  0  0  0
    5.6257   -1.7571   -3.1526 H   0  0  0  0  0  0  0  0  0  0  0  0
    7.7534   -2.7418   -3.1207 H   0  0  0  0  0  0  0  0  0  0  0  0
    7.3124   -2.1196   -4.7448 H   0  0  0  0  0  0  0  0  0  0  0  0
    9.0151   -2.4157   -4.3288 H   0  0  0  0  0  0  0  0  0  0  0  0
    7.4312    2.0248   -2.3024 H   0  0  0  0  0  0  0  0  0  0  0  0
    5.2648    2.8781   -1.5211 H   0  0  0  0  0  0  0  0  0  0  0  0
    2.7130    4.3970   -5.2789 H   0  0  0  0  0  0  0  0  0  0  0  0
    3.0638    4.4406   -3.5381 H   0  0  0  0  0  0  0  0  0  0  0  0
    4.8126    3.2070   -5.7277 H   0  0  0  0  0  0  0  0  0  0  0  0
    5.1698    4.5990   -4.7074 H   0  0  0  0  0  0  0  0  0  0  0  0
    5.1012    2.9800   -3.9966 H   0  0  0  0  0  0  0  0  0  0  0  0
    1.0531    3.3635   -6.6612 H   0  0  0  0  0  0  0  0  0  0  0  0
    2.0729    4.2720   -7.8138 H   0  0  0  0  0  0  0  0  0  0  0  0
    1.8349    2.4235   -9.4665 H   0  0  0  0  0  0  0  0  0  0  0  0
    0.2633    3.0797   -8.9919 H   0  0  0  0  0  0  0  0  0  0  0  0
    0.8006    1.5299   -8.3379 H   0  0  0  0  0  0  0  0  0  0  0  0
    1.6604   -4.0162   -4.4595 H   0  0  0  0  0  0  0  0  0  0  0  0
    2.6445   -4.1106   -6.8013 H   0  0  0  0  0  0  0  0  0  0  0  0
    4.0666    0.9651   -8.6884 H   0  0  0  0  0  0  0  0  0  0  0  0
    0.3796   -4.1046   -9.1444 H   0  0  0  0  0  0  0  0  0  0  0  0
    4.0053   -3.0705  -12.5264 H   0  0  0  0  0  0  0  0  0  0  0  0
    3.2994   -6.4398  -12.4939 H   0  0  0  0  0  0  0  0  0  0  0  0
    2.2994   -5.9122  -14.7122 H   0  0  0  0  0  0  0  0  0  0  0  0
    0.8363   -3.7714  -14.3784 H   0  0  0  0  0  0  0  0  0  0  0  0
   -1.0778   -4.3367  -12.6257 H   0  0  0  0  0  0  0  0  0  0  0  0
   -0.7950   -6.8286  -11.8805 H   0  0  0  0  0  0  0  0  0  0  0  0
   -0.0164   -7.1566  -14.3894 H   0  0  0  0  0  0  0  0  0  0  0  0
    1.1847   -7.9359  -13.3296 H   0  0  0  0  0  0  0  0  0  0  0  0
    1.4387   -6.9960  -10.7928 H   0  0  0  0  0  0  0  0  0  0  0  0
  1  2  2  0  0  0  0
  2  3  1  0  0  0  0
  3  4  2  0  0  0  0
  3  5  1  0  0  0  0
  5  6  2  0  0  0  0
  6  7  1  0  0  0  0
  7  8  2  0  0  0  0
  8  9  1  0  0  0  0
  9 10  2  0  0  0  0
 10 11  1  0  0  0  0
 11 12  2  0  0  0  0
 12 13  1  0  0  0  0
 13 14  3  0  0  0  0
 12 15  1  0  0  0  0
 15 16  3  0  0  0  0
  8 17  1  0  0  0  0
 17 18  1  0  0  0  0
 18 19  1  0  0  0  0
 19 20  2  0  0  0  0
 20 21  1  0  0  0  0
 21 22  1  0  0  0  0
 21 23  1  0  0  0  0
  1 24  1  0  0  0  0
 24 25  2  0  0  0  0
 25 26  1  0  0  0  0
 26 27  1  0  0  0  0
 25 28  1  0  0  0  0
 28 29  2  0  0  0  0
 29 30  1  0  0  0  0
 29 31  1  0  0  0  0
 31 32  2  0  0  0  0
 32 33  1  0  0  0  0
 33 34  1  0  0  0  0
 34 35  1  0  0  0  0
 33 36  1  0  0  0  0
 36 37  1  0  0  0  0
 32 38  1  0  0  0  0
 38 39  2  0  0  0  0
 39 40  1  0  0  0  0
 39 41  1  0  0  0  0
 41 42  2  0  0  0  0
 42 43  1  0  0  0  0
 43 44  1  0  0  0  0
 44 45  2  0  0  0  0
 45 46  1  0  0  0  0
 46 47  2  0  0  0  0
 47 48  1  0  0  0  0
 48 49  1  0  0  0  0
 47 50  1  0  0  0  0
 50 51  2  0  0  0  0
 43 52  1  0  0  0  0
 52 53  2  0  0  0  0
 53 54  1  0  0  0  0
 54 55  2  0  0  0  0
 55 56  1  0  0  0  0
 56 57  1  0  0  0  0
 55 58  1  0  0  0  0
 58 59  2  0  0  0  0
 42 60  1  0  0  0  0
 60 61  1  0  0  0  0
 61 62  1  0  0  0  0
 62 63  2  0  0  0  0
 63 64  1  0  0  0  0
 64 65  1  0  0  0  0
 65 66  2  0  0  0  0
 66 67  1  0  0  0  0
 67 68  2  0  0  0  0
 68 69  1  0  0  0  0
 69 70  1  0  0  0  0
 68 71  1  0  0  0  0
 71 72  2  0  0  0  0
 64 73  1  0  0  0  0
 73 74  2  0  0  0  0
 74 75  1  0  0  0  0
 75 76  2  0  0  0  0
 76 77  1  0  0  0  0
 77 78  1  0  0  0  0
 76 79  1  0  0  0  0
 79 80  2  0  0  0  0
 63 81  1  0  0  0  0
 81 82  1  0  0  0  0
 62 83  1  0  0  0  0
 83 84  2  0  0  0  0
 84 85  1  0  0  0  0
 85 86  1  0  0  0  0
 86 87  1  0  0  0  0
 84 88  1  0  0  0  0
 88 89  1  0  0  0  0
 89 90  1  0  0  0  0
 90 91  1  0  0  0  0
 88 92  2  0  0  0  0
 92 93  1  0  0  0  0
 93 94  2  0  0  0  0
 94 95  1  0  0  0  0
 95 96  2  0  0  0  0
 96 97  1  0  0  0  0
 97 98  2  0  0  0  0
 92 99  1  0  0  0  0
 99100  2  0  0  0  0
100101  1  0  0  0  0
101102  2  0  0  0  0
101103  1  0  0  0  0
103104  2  0  0  0  0
104105  1  0  0  0  0
105106  2  0  0  0  0
106107  1  0  0  0  0
107108  2  0  0  0  0
108109  1  0  0  0  0
109110  2  0  0  0  0
110111  1  0  0  0  0
111112  3  0  0  0  0
110113  1  0  0  0  0
113114  3  0  0  0  0
106115  1  0  0  0  0
115116  1  0  0  0  0
116117  1  0  0  0  0
117118  2  0  0  0  0
118119  1  0  0  0  0
119120  1  0  0  0  0
119121  1  0  0  0  0
 11  2  1  0  0  0  0
 23 17  1  0  0  0  0
 30 24  1  0  0  0  0
 40 31  1  0  0  0  0
 82 41  1  0  0  0  0
 94 83  1  0  0  0  0
109100  1  0  0  0  0
121115  1  0  0  0  0
 10  5  1  0  0  0  0
 22 18  1  0  0  0  0
 33 28  1  0  0  0  0
 51 44  1  0  0  0  0
 59 52  1  0  0  0  0
 81 60  2  0  0  0  0
 98 93  1  0  0  0  0
108103  1  0  0  0  0
120116  1  0  0  0  0
 23  7  1  0  0  0  0
 72 65  1  0  0  0  0
 80 73  1  0  0  0  0
121105  1  0  0  0  0
  1122  1  0  0  0  0
  6123  1  0  0  0  0
  9124  1  0  0  0  0
 17125  1  0  0  0  0
 18126  1  0  0  0  0
 19127  1  0  0  0  0
 20128  1  0  0  0  0
 21129  1  0  0  0  0
 22130  1  0  0  0  0
 22131  1  0  0  0  0
 23132  1  0  0  0  0
 26133  1  0  0  0  0
 26134  1  0  0  0  0
 27135  1  0  0  0  0
 27136  1  0  0  0  0
 27137  1  0  0  0  0
 34138  1  0  0  0  0
 34139  1  0  0  0  0
 35140  1  0  0  0  0
 35141  1  0  0  0  0
 35142  1  0  0  0  0
 36143  1  0  0  0  0
 36144  1  0  0  0  0
 37145  1  0  0  0  0
 37146  1  0  0  0  0
 37147  1  0  0  0  0
 38148  1  0  0  0  0
 45149  1  0  0  0  0
 46150  1  0  0  0  0
 49151  1  0  0  0  0
 49152  1  0  0  0  0
 49153  1  0  0  0  0
 50154  1  0  0  0  0
 51155  1  0  0  0  0
 53156  1  0  0  0  0
 54157  1  0  0  0  0
 57158  1  0  0  0  0
 57159  1  0  0  0  0
 57160  1  0  0  0  0
 58161  1  0  0  0  0
 59162  1  0  0  0  0
 66163  1  0  0  0  0
 67164  1  0  0  0  0
 70165  1  0  0  0  0
 70166  1  0  0  0  0
 70167  1  0  0  0  0
 71168  1  0  0  0  0
 72169  1  0  0  0  0
 74170  1  0  0  0  0
 75171  1  0  0  0  0
 78172  1  0  0  0  0
 78173  1  0  0  0  0
 78174  1  0  0  0  0
 79175  1  0  0  0  0
 80176  1  0  0  0  0
 86177  1  0  0  0  0
 86178  1  0  0  0  0
 87179  1  0  0  0  0
 87180  1  0  0  0  0
 87181  1  0  0  0  0
 90182  1  0  0  0  0
 90183  1  0  0  0  0
 91184  1  0  0  0  0
 91185  1  0  0  0  0
 91186  1  0  0  0  0
 96187  1  0  0  0  0
 97188  1  0  0  0  0
 99189  1  0  0  0  0
104190  1  0  0  0  0
107191  1  0  0  0  0
115192  1  0  0  0  0
116193  1  0  0  0  0
117194  1  0  0  0  0
118195  1  0  0  0  0
119196  1  0  0  0  0
120197  1  0  0  0  0
120198  1  0  0  0  0
121199  1  0  0  0  0
M  END
