
  xtb     02092217543D
 energy: -317.685145813911 gnorm: 0.000301083723 xtb: 6.4.1 (unknown)
192212  0     0  0            999 V2000
   -3.5522   -0.6481    6.2816 C   0  0  0  0  0  0  0  0  0  0  0  0
   -4.8405   -0.2303    6.5157 C   0  0  0  0  0  0  0  0  0  0  0  0
   -5.6868    0.5521    5.6112 C   0  0  0  0  0  0  0  0  0  0  0  0
   -5.5118    0.7665    4.4222 O   0  0  0  0  0  0  0  0  0  0  0  0
   -6.8169    1.0382    6.4238 C   0  0  0  0  0  0  0  0  0  0  0  0
   -7.8546    1.8724    6.0141 C   0  0  0  0  0  0  0  0  0  0  0  0
   -8.7635    2.1620    7.0038 C   0  0  0  0  0  0  0  0  0  0  0  0
   -8.6540    1.6563    8.3053 C   0  0  0  0  0  0  0  0  0  0  0  0
   -7.6370    0.8298    8.7222 C   0  0  0  0  0  0  0  0  0  0  0  0
   -6.6977    0.5283    7.7326 C   0  0  0  0  0  0  0  0  0  0  0  0
   -5.5014   -0.3084    7.7976 C   0  0  0  0  0  0  0  0  0  0  0  0
   -5.0951   -1.0320    8.8924 C   0  0  0  0  0  0  0  0  0  0  0  0
   -5.6961   -0.9778   10.1652 C   0  0  0  0  0  0  0  0  0  0  0  0
   -6.0980   -0.9760   11.2416 N   0  0  0  0  0  0  0  0  0  0  0  0
   -4.0366   -1.9591    8.9118 C   0  0  0  0  0  0  0  0  0  0  0  0
   -3.2186   -2.7599    9.0243 N   0  0  0  0  0  0  0  0  0  0  0  0
   -9.9044    2.3610    8.7705 C   0  0  0  0  0  0  0  0  0  0  0  0
   -9.7035    3.6350    9.6181 C   0  0  0  0  0  0  0  0  0  0  0  0
  -11.0298    4.3528    9.5123 C   0  0  0  0  0  0  0  0  0  0  0  0
  -11.1315    4.8331    8.2796 C   0  0  0  0  0  0  0  0  0  0  0  0
   -9.8759    4.4478    7.5312 C   0  0  0  0  0  0  0  0  0  0  0  0
   -8.8580    4.5035    8.6777 C   0  0  0  0  0  0  0  0  0  0  0  0
  -10.0254    2.9262    7.3188 C   0  0  0  0  0  0  0  0  0  0  0  0
   -2.7319   -0.4839    5.1640 C   0  0  0  0  0  0  0  0  0  0  0  0
   -1.3364   -0.7212    5.1750 C   0  0  0  0  0  0  0  0  0  0  0  0
   -0.5800   -1.0355    6.2767 N   0  0  0  0  0  0  0  0  0  0  0  0
    0.5834   -1.8001    6.0796 C   0  0  0  0  0  0  0  0  0  0  0  0
    1.7802   -1.4586    6.7072 C   0  0  0  0  0  0  0  0  0  0  0  0
    2.9304   -2.1613    6.4245 C   0  0  0  0  0  0  0  0  0  0  0  0
    2.9098   -3.2121    5.5098 C   0  0  0  0  0  0  0  0  0  0  0  0
    4.4452   -3.9989    5.1432 S   0  0  0  0  0  0  0  0  0  0  0  0
    4.1296   -4.7428    3.5150 C   0  0  0  0  0  0  0  0  0  0  0  0
    1.7061   -3.5973    4.9344 C   0  0  0  0  0  0  0  0  0  0  0  0
    0.5528   -2.8974    5.2223 C   0  0  0  0  0  0  0  0  0  0  0  0
   -0.8651   -0.5294    7.5566 C   0  0  0  0  0  0  0  0  0  0  0  0
   -1.3531    0.7697    7.7153 C   0  0  0  0  0  0  0  0  0  0  0  0
   -1.7363    1.2148    8.9588 C   0  0  0  0  0  0  0  0  0  0  0  0
   -1.6158    0.3851   10.0741 C   0  0  0  0  0  0  0  0  0  0  0  0
   -2.2229    1.0137   11.6064 S   0  0  0  0  0  0  0  0  0  0  0  0
   -2.4616   -0.4850   12.6018 C   0  0  0  0  0  0  0  0  0  0  0  0
   -1.0386   -0.8691    9.9327 C   0  0  0  0  0  0  0  0  0  0  0  0
   -0.6752   -1.3269    8.6807 C   0  0  0  0  0  0  0  0  0  0  0  0
   -0.7922   -0.5605    3.8874 C   0  0  0  0  0  0  0  0  0  0  0  0
    0.8134   -0.6745    3.2386 S   0  0  0  0  0  0  0  0  0  0  0  0
    0.2172   -0.2210    1.6622 C   0  0  0  0  0  0  0  0  0  0  0  0
   -1.1531   -0.0409    1.6304 C   0  0  0  0  0  0  0  0  0  0  0  0
   -1.8757    0.1672    0.4628 N   0  0  0  0  0  0  0  0  0  0  0  0
   -1.4668   -0.5031   -0.7040 C   0  0  0  0  0  0  0  0  0  0  0  0
   -1.4519    0.1439   -1.9353 C   0  0  0  0  0  0  0  0  0  0  0  0
   -0.9228   -0.4772   -3.0511 C   0  0  0  0  0  0  0  0  0  0  0  0
   -0.3988   -1.7591   -2.9504 C   0  0  0  0  0  0  0  0  0  0  0  0
    0.4388   -2.6048   -4.2545 S   0  0  0  0  0  0  0  0  0  0  0  0
   -0.0221   -1.6982   -5.7568 C   0  0  0  0  0  0  0  0  0  0  0  0
   -0.4809   -2.4369   -1.7361 C   0  0  0  0  0  0  0  0  0  0  0  0
   -1.0132   -1.8197   -0.6280 C   0  0  0  0  0  0  0  0  0  0  0  0
   -3.0377    0.9355    0.4999 C   0  0  0  0  0  0  0  0  0  0  0  0
   -3.1295    2.0293    1.3616 C   0  0  0  0  0  0  0  0  0  0  0  0
   -4.3130    2.7279    1.4800 C   0  0  0  0  0  0  0  0  0  0  0  0
   -5.4129    2.3492    0.7301 C   0  0  0  0  0  0  0  0  0  0  0  0
   -6.9811    3.1543    0.9983 S   0  0  0  0  0  0  0  0  0  0  0  0
   -7.7392    1.8184    1.9798 C   0  0  0  0  0  0  0  0  0  0  0  0
   -5.3132    1.3075   -0.1798 C   0  0  0  0  0  0  0  0  0  0  0  0
   -4.1347    0.6013   -0.2945 C   0  0  0  0  0  0  0  0  0  0  0  0
   -1.7237   -0.2115    2.9174 C   0  0  0  0  0  0  0  0  0  0  0  0
   -3.3110   -0.0068    3.5652 S   0  0  0  0  0  0  0  0  0  0  0  0
    1.1046   -0.1079    0.5197 C   0  0  0  0  0  0  0  0  0  0  0  0
    1.0890    1.0518   -0.2691 C   0  0  0  0  0  0  0  0  0  0  0  0
    0.3916    2.2653   -0.0162 C   0  0  0  0  0  0  0  0  0  0  0  0
    0.5791    3.2092   -0.9652 C   0  0  0  0  0  0  0  0  0  0  0  0
   -0.0678    4.5478   -1.0542 C   0  0  0  0  0  0  0  0  0  0  0  0
   -1.4673    4.4243   -1.6640 C   0  0  0  0  0  0  0  0  0  0  0  0
    1.6438    2.6617   -2.2323 S   0  0  0  0  0  0  0  0  0  0  0  0
    1.8332    1.1093   -1.4679 C   0  0  0  0  0  0  0  0  0  0  0  0
    2.6098    0.0479   -1.9202 C   0  0  0  0  0  0  0  0  0  0  0  0
    2.6342   -1.1091   -1.1256 C   0  0  0  0  0  0  0  0  0  0  0  0
    1.9135   -1.1495    0.0871 C   0  0  0  0  0  0  0  0  0  0  0  0
    2.0569   -2.7039    0.8550 S   0  0  0  0  0  0  0  0  0  0  0  0
    3.0201   -3.3103   -0.4742 C   0  0  0  0  0  0  0  0  0  0  0  0
    3.4451   -4.7377   -0.4857 C   0  0  0  0  0  0  0  0  0  0  0  0
    2.2522   -5.6580   -0.7530 C   0  0  0  0  0  0  0  0  0  0  0  0
    3.2304   -2.3698   -1.4198 C   0  0  0  0  0  0  0  0  0  0  0  0
    3.4049    0.1251   -3.1440 C   0  0  0  0  0  0  0  0  0  0  0  0
    2.9004    0.5477   -4.3545 C   0  0  0  0  0  0  0  0  0  0  0  0
    1.6043    0.8854   -4.4730 F   0  0  0  0  0  0  0  0  0  0  0  0
    3.6833    0.6283   -5.5158 C   0  0  0  0  0  0  0  0  0  0  0  0
    3.1101    1.1588   -6.6050 F   0  0  0  0  0  0  0  0  0  0  0  0
    5.0130    0.2553   -5.5258 C   0  0  0  0  0  0  0  0  0  0  0  0
    5.5755   -0.1515   -4.2816 C   0  0  0  0  0  0  0  0  0  0  0  0
    6.8709   -0.5051   -4.2402 N   0  0  0  0  0  0  0  0  0  0  0  0
    7.4116   -0.8400   -3.0948 C   0  0  0  0  0  0  0  0  0  0  0  0
    8.8657   -1.1935   -3.1380 C   0  0  0  0  0  0  0  0  0  0  0  0
    9.7130    0.0793   -3.0498 C   0  0  0  0  0  0  0  0  0  0  0  0
    6.6420   -0.8006   -1.8953 C   0  0  0  0  0  0  0  0  0  0  0  0
    5.3688   -0.4996   -1.9303 N   0  0  0  0  0  0  0  0  0  0  0  0
    4.7903   -0.1979   -3.1055 C   0  0  0  0  0  0  0  0  0  0  0  0
    7.1943   -1.1374   -0.5437 C   0  0  0  0  0  0  0  0  0  0  0  0
    7.0014   -2.6287   -0.2554 C   0  0  0  0  0  0  0  0  0  0  0  0
    5.8881    0.3469   -6.6686 C   0  0  0  0  0  0  0  0  0  0  0  0
    5.5818    0.0606   -7.9514 C   0  0  0  0  0  0  0  0  0  0  0  0
    4.3291   -0.5937   -8.4337 C   0  0  0  0  0  0  0  0  0  0  0  0
    3.4923   -1.1558   -7.7648 O   0  0  0  0  0  0  0  0  0  0  0  0
    4.3805   -0.5039   -9.9035 C   0  0  0  0  0  0  0  0  0  0  0  0
    3.3810   -0.8794  -10.7990 C   0  0  0  0  0  0  0  0  0  0  0  0
    3.6974   -0.6601  -12.1175 C   0  0  0  0  0  0  0  0  0  0  0  0
    4.9209   -0.1051  -12.5206 C   0  0  0  0  0  0  0  0  0  0  0  0
    5.9187    0.2615  -11.6512 C   0  0  0  0  0  0  0  0  0  0  0  0
    5.6200    0.0400  -10.3022 C   0  0  0  0  0  0  0  0  0  0  0  0
    6.4252    0.3049   -9.1164 C   0  0  0  0  0  0  0  0  0  0  0  0
    7.7372    0.6915   -9.1067 C   0  0  0  0  0  0  0  0  0  0  0  0
    8.5249    0.9119   -7.9550 C   0  0  0  0  0  0  0  0  0  0  0  0
    9.2434    1.1094   -7.0813 N   0  0  0  0  0  0  0  0  0  0  0  0
    8.5171    0.8896  -10.2673 C   0  0  0  0  0  0  0  0  0  0  0  0
    9.2129    1.0637  -11.1634 N   0  0  0  0  0  0  0  0  0  0  0  0
    4.5565   -0.1623  -13.9824 C   0  0  0  0  0  0  0  0  0  0  0  0
    5.1854   -1.2895  -14.8380 C   0  0  0  0  0  0  0  0  0  0  0  0
    5.4896   -2.4254  -13.8928 C   0  0  0  0  0  0  0  0  0  0  0  0
    4.3349   -2.9545  -13.5110 C   0  0  0  0  0  0  0  0  0  0  0  0
    3.2287   -2.1864  -14.1916 C   0  0  0  0  0  0  0  0  0  0  0  0
    3.9199   -1.8350  -15.5188 C   0  0  0  0  0  0  0  0  0  0  0  0
    3.1962   -0.7840  -13.5343 C   0  0  0  0  0  0  0  0  0  0  0  0
   -3.0625   -1.1349    7.1149 H   0  0  0  0  0  0  0  0  0  0  0  0
   -7.9075    2.2421    5.0024 H   0  0  0  0  0  0  0  0  0  0  0  0
   -7.5651    0.4464    9.7265 H   0  0  0  0  0  0  0  0  0  0  0  0
  -10.6984    1.7193    9.1476 H   0  0  0  0  0  0  0  0  0  0  0  0
   -9.3198    3.4597   10.6194 H   0  0  0  0  0  0  0  0  0  0  0  0
  -11.7575    4.3883   10.3017 H   0  0  0  0  0  0  0  0  0  0  0  0
  -11.9611    5.3498    7.8335 H   0  0  0  0  0  0  0  0  0  0  0  0
   -9.6493    5.0134    6.6313 H   0  0  0  0  0  0  0  0  0  0  0  0
   -8.7243    5.5141    9.0602 H   0  0  0  0  0  0  0  0  0  0  0  0
   -7.8878    4.0762    8.4317 H   0  0  0  0  0  0  0  0  0  0  0  0
  -10.9014    2.6629    6.7287 H   0  0  0  0  0  0  0  0  0  0  0  0
    1.8061   -0.6240    7.3915 H   0  0  0  0  0  0  0  0  0  0  0  0
    3.8650   -1.8865    6.8884 H   0  0  0  0  0  0  0  0  0  0  0  0
    3.6286   -4.0146    2.8833 H   0  0  0  0  0  0  0  0  0  0  0  0
    5.1062   -4.9883    3.1088 H   0  0  0  0  0  0  0  0  0  0  0  0
    3.5384   -5.6484    3.6182 H   0  0  0  0  0  0  0  0  0  0  0  0
    1.6549   -4.4360    4.2597 H   0  0  0  0  0  0  0  0  0  0  0  0
   -0.3824   -3.1959    4.7720 H   0  0  0  0  0  0  0  0  0  0  0  0
   -1.4594    1.4112    6.8532 H   0  0  0  0  0  0  0  0  0  0  0  0
   -2.1411    2.2072    9.0842 H   0  0  0  0  0  0  0  0  0  0  0  0
   -1.5056   -0.8638   12.9517 H   0  0  0  0  0  0  0  0  0  0  0  0
   -3.0702   -0.1814   13.4477 H   0  0  0  0  0  0  0  0  0  0  0  0
   -2.9918   -1.2285   12.0143 H   0  0  0  0  0  0  0  0  0  0  0  0
   -0.8964   -1.5141   10.7836 H   0  0  0  0  0  0  0  0  0  0  0  0
   -0.2696   -2.3204    8.5699 H   0  0  0  0  0  0  0  0  0  0  0  0
   -1.8296    1.1527   -2.0116 H   0  0  0  0  0  0  0  0  0  0  0  0
   -0.8936    0.0617   -3.9836 H   0  0  0  0  0  0  0  0  0  0  0  0
    0.4397   -2.2412   -6.5756 H   0  0  0  0  0  0  0  0  0  0  0  0
    0.3679   -0.6875   -5.7302 H   0  0  0  0  0  0  0  0  0  0  0  0
   -1.1030   -1.6998   -5.8630 H   0  0  0  0  0  0  0  0  0  0  0  0
   -0.1085   -3.4479   -1.6722 H   0  0  0  0  0  0  0  0  0  0  0  0
   -1.0619   -2.3485    0.3127 H   0  0  0  0  0  0  0  0  0  0  0  0
   -2.2761    2.3196    1.9564 H   0  0  0  0  0  0  0  0  0  0  0  0
   -4.3930    3.5571    2.1653 H   0  0  0  0  0  0  0  0  0  0  0  0
   -8.6576    2.2183    2.3977 H   0  0  0  0  0  0  0  0  0  0  0  0
   -7.9608    0.9729    1.3346 H   0  0  0  0  0  0  0  0  0  0  0  0
   -7.0458    1.5252    2.7636 H   0  0  0  0  0  0  0  0  0  0  0  0
   -6.1691    1.0351   -0.7788 H   0  0  0  0  0  0  0  0  0  0  0  0
   -4.0629   -0.2319   -0.9777 H   0  0  0  0  0  0  0  0  0  0  0  0
   -0.2132    2.4256    0.8569 H   0  0  0  0  0  0  0  0  0  0  0  0
    0.5408    5.2118   -1.6703 H   0  0  0  0  0  0  0  0  0  0  0  0
   -0.1465    4.9778   -0.0531 H   0  0  0  0  0  0  0  0  0  0  0  0
   -2.0971    3.7875   -1.0455 H   0  0  0  0  0  0  0  0  0  0  0  0
   -1.9329    5.4036   -1.7381 H   0  0  0  0  0  0  0  0  0  0  0  0
   -1.4066    3.9933   -2.6610 H   0  0  0  0  0  0  0  0  0  0  0  0
    3.8939   -5.0007    0.4758 H   0  0  0  0  0  0  0  0  0  0  0  0
    4.1959   -4.8753   -1.2665 H   0  0  0  0  0  0  0  0  0  0  0  0
    2.5706   -6.6972   -0.7548 H   0  0  0  0  0  0  0  0  0  0  0  0
    1.8104   -5.4273   -1.7197 H   0  0  0  0  0  0  0  0  0  0  0  0
    1.4953   -5.5263    0.0171 H   0  0  0  0  0  0  0  0  0  0  0  0
    3.7745   -2.5668   -2.3253 H   0  0  0  0  0  0  0  0  0  0  0  0
    9.1240   -1.8752   -2.3283 H   0  0  0  0  0  0  0  0  0  0  0  0
    9.0682   -1.6803   -4.0927 H   0  0  0  0  0  0  0  0  0  0  0  0
   10.7692   -0.1759   -3.0641 H   0  0  0  0  0  0  0  0  0  0  0  0
    9.4999    0.7227   -3.8991 H   0  0  0  0  0  0  0  0  0  0  0  0
    9.4988    0.6270   -2.1340 H   0  0  0  0  0  0  0  0  0  0  0  0
    6.6389   -0.5627    0.1985 H   0  0  0  0  0  0  0  0  0  0  0  0
    8.2498   -0.8751   -0.4796 H   0  0  0  0  0  0  0  0  0  0  0  0
    7.3897   -2.8712    0.7305 H   0  0  0  0  0  0  0  0  0  0  0  0
    7.5191   -3.2389   -0.9929 H   0  0  0  0  0  0  0  0  0  0  0  0
    5.9425   -2.8737   -0.2854 H   0  0  0  0  0  0  0  0  0  0  0  0
    6.8911    0.6632   -6.4152 H   0  0  0  0  0  0  0  0  0  0  0  0
    2.4495   -1.2934  -10.4458 H   0  0  0  0  0  0  0  0  0  0  0  0
    6.8514    0.6913  -11.9763 H   0  0  0  0  0  0  0  0  0  0  0  0
    4.5338    0.7921  -14.5045 H   0  0  0  0  0  0  0  0  0  0  0  0
    6.0010   -0.9673  -15.4795 H   0  0  0  0  0  0  0  0  0  0  0  0
    6.4799   -2.6820  -13.5649 H   0  0  0  0  0  0  0  0  0  0  0  0
    4.1672   -3.7420  -12.7997 H   0  0  0  0  0  0  0  0  0  0  0  0
    2.2629   -2.6817  -14.2457 H   0  0  0  0  0  0  0  0  0  0  0  0
    4.1176   -2.7106  -16.1350 H   0  0  0  0  0  0  0  0  0  0  0  0
    3.3845   -1.0874  -16.1025 H   0  0  0  0  0  0  0  0  0  0  0  0
    2.2841   -0.2380  -13.7670 H   0  0  0  0  0  0  0  0  0  0  0  0
  1  2  2  0  0  0  0
  2  3  1  0  0  0  0
  3  4  2  0  0  0  0
  3  5  1  0  0  0  0
  5  6  2  0  0  0  0
  6  7  1  0  0  0  0
  7  8  2  0  0  0  0
  8  9  1  0  0  0  0
  9 10  2  0  0  0  0
 10 11  1  0  0  0  0
 11 12  2  0  0  0  0
 12 13  1  0  0  0  0
 13 14  3  0  0  0  0
 12 15  1  0  0  0  0
 15 16  3  0  0  0  0
  8 17  1  0  0  0  0
 17 18  1  0  0  0  0
 18 19  1  0  0  0  0
 19 20  2  0  0  0  0
 20 21  1  0  0  0  0
 21 22  1  0  0  0  0
 21 23  1  0  0  0  0
  1 24  1  0  0  0  0
 24 25  2  0  0  0  0
 25 26  1  0  0  0  0
 26 27  1  0  0  0  0
 27 28  2  0  0  0  0
 28 29  1  0  0  0  0
 29 30  2  0  0  0  0
 30 31  1  0  0  0  0
 31 32  1  0  0  0  0
 30 33  1  0  0  0  0
 33 34  2  0  0  0  0
 26 35  1  0  0  0  0
 35 36  2  0  0  0  0
 36 37  1  0  0  0  0
 37 38  2  0  0  0  0
 38 39  1  0  0  0  0
 39 40  1  0  0  0  0
 38 41  1  0  0  0  0
 41 42  2  0  0  0  0
 25 43  1  0  0  0  0
 43 44  1  0  0  0  0
 44 45  1  0  0  0  0
 45 46  2  0  0  0  0
 46 47  1  0  0  0  0
 47 48  1  0  0  0  0
 48 49  2  0  0  0  0
 49 50  1  0  0  0  0
 50 51  2  0  0  0  0
 51 52  1  0  0  0  0
 52 53  1  0  0  0  0
 51 54  1  0  0  0  0
 54 55  2  0  0  0  0
 47 56  1  0  0  0  0
 56 57  2  0  0  0  0
 57 58  1  0  0  0  0
 58 59  2  0  0  0  0
 59 60  1  0  0  0  0
 60 61  1  0  0  0  0
 59 62  1  0  0  0  0
 62 63  2  0  0  0  0
 46 64  1  0  0  0  0
 64 65  1  0  0  0  0
 45 66  1  0  0  0  0
 66 67  2  0  0  0  0
 67 68  1  0  0  0  0
 68 69  2  0  0  0  0
 69 70  1  0  0  0  0
 70 71  1  0  0  0  0
 69 72  1  0  0  0  0
 72 73  1  0  0  0  0
 73 74  2  0  0  0  0
 74 75  1  0  0  0  0
 75 76  2  0  0  0  0
 76 77  1  0  0  0  0
 77 78  1  0  0  0  0
 78 79  1  0  0  0  0
 79 80  1  0  0  0  0
 78 81  2  0  0  0  0
 74 82  1  0  0  0  0
 82 83  2  0  0  0  0
 83 84  1  0  0  0  0
 83 85  1  0  0  0  0
 85 86  1  0  0  0  0
 85 87  2  0  0  0  0
 87 88  1  0  0  0  0
 88 89  2  0  0  0  0
 89 90  1  0  0  0  0
 90 91  1  0  0  0  0
 91 92  1  0  0  0  0
 90 93  2  0  0  0  0
 93 94  1  0  0  0  0
 94 95  2  0  0  0  0
 93 96  1  0  0  0  0
 96 97  1  0  0  0  0
 87 98  1  0  0  0  0
 98 99  2  0  0  0  0
 99100  1  0  0  0  0
100101  2  0  0  0  0
100102  1  0  0  0  0
102103  2  0  0  0  0
103104  1  0  0  0  0
104105  2  0  0  0  0
105106  1  0  0  0  0
106107  2  0  0  0  0
107108  1  0  0  0  0
108109  2  0  0  0  0
109110  1  0  0  0  0
110111  3  0  0  0  0
109112  1  0  0  0  0
112113  3  0  0  0  0
105114  1  0  0  0  0
114115  1  0  0  0  0
115116  1  0  0  0  0
116117  2  0  0  0  0
117118  1  0  0  0  0
118119  1  0  0  0  0
118120  1  0  0  0  0
 11  2  1  0  0  0  0
 23 17  1  0  0  0  0
 65 24  1  0  0  0  0
 76 66  1  0  0  0  0
 95 82  1  0  0  0  0
108 99  1  0  0  0  0
120114  1  0  0  0  0
 10  5  1  0  0  0  0
 22 18  1  0  0  0  0
 34 27  1  0  0  0  0
 42 35  1  0  0  0  0
 64 43  2  0  0  0  0
 73 67  1  0  0  0  0
 81 75  1  0  0  0  0
 95 88  1  0  0  0  0
107102  1  0  0  0  0
119115  1  0  0  0  0
 23  7  1  0  0  0  0
 55 48  1  0  0  0  0
 63 56  1  0  0  0  0
120104  1  0  0  0  0
  1121  1  0  0  0  0
  6122  1  0  0  0  0
  9123  1  0  0  0  0
 17124  1  0  0  0  0
 18125  1  0  0  0  0
 19126  1  0  0  0  0
 20127  1  0  0  0  0
 21128  1  0  0  0  0
 22129  1  0  0  0  0
 22130  1  0  0  0  0
 23131  1  0  0  0  0
 28132  1  0  0  0  0
 29133  1  0  0  0  0
 32134  1  0  0  0  0
 32135  1  0  0  0  0
 32136  1  0  0  0  0
 33137  1  0  0  0  0
 34138  1  0  0  0  0
 36139  1  0  0  0  0
 37140  1  0  0  0  0
 40141  1  0  0  0  0
 40142  1  0  0  0  0
 40143  1  0  0  0  0
 41144  1  0  0  0  0
 42145  1  0  0  0  0
 49146  1  0  0  0  0
 50147  1  0  0  0  0
 53148  1  0  0  0  0
 53149  1  0  0  0  0
 53150  1  0  0  0  0
 54151  1  0  0  0  0
 55152  1  0  0  0  0
 57153  1  0  0  0  0
 58154  1  0  0  0  0
 61155  1  0  0  0  0
 61156  1  0  0  0  0
 61157  1  0  0  0  0
 62158  1  0  0  0  0
 63159  1  0  0  0  0
 68160  1  0  0  0  0
 70161  1  0  0  0  0
 70162  1  0  0  0  0
 71163  1  0  0  0  0
 71164  1  0  0  0  0
 71165  1  0  0  0  0
 79166  1  0  0  0  0
 79167  1  0  0  0  0
 80168  1  0  0  0  0
 80169  1  0  0  0  0
 80170  1  0  0  0  0
 81171  1  0  0  0  0
 91172  1  0  0  0  0
 91173  1  0  0  0  0
 92174  1  0  0  0  0
 92175  1  0  0  0  0
 92176  1  0  0  0  0
 96177  1  0  0  0  0
 96178  1  0  0  0  0
 97179  1  0  0  0  0
 97180  1  0  0  0  0
 97181  1  0  0  0  0
 98182  1  0  0  0  0
103183  1  0  0  0  0
106184  1  0  0  0  0
114185  1  0  0  0  0
115186  1  0  0  0  0
116187  1  0  0  0  0
117188  1  0  0  0  0
118189  1  0  0  0  0
119190  1  0  0  0  0
119191  1  0  0  0  0
120192  1  0  0  0  0
M  END
