210

C         -0.01660        2.16330        5.78990
C          0.73760        1.48800        6.72210
C          1.25790        0.12570        6.59540
O          1.23470       -0.59400        5.61000
C          1.81260       -0.23010        7.91340
C          2.39480       -1.44120        8.28000
C          2.81170       -1.48640        9.58890
C          2.66110       -0.40630       10.46770
C          2.09530        0.79700       10.11570
C          1.66390        0.86460        8.78810
C          1.04240        1.96550        8.05090
C          0.84270        3.23450        8.53950
C          1.11410        3.63200        9.86380
N          1.29640        4.02140       10.92900
C          0.38910        4.33340        7.78580
N          0.05980        5.28660        7.23350
C          3.28580       -1.15270       11.62040
C          2.31870       -1.71270       12.68480
C          3.13400       -2.76990       13.39380
C          3.27950       -3.79290       12.56140
C          2.56460       -3.44450       11.27580
C          1.40680       -2.60840       11.83620
C          3.45600       -2.35700       10.63950
C         -0.37300        1.81410        4.48740
C         -1.19540        2.62630        3.66310
N         -1.88400        3.73770        4.08350
C         -2.01630        4.83010        3.21080
C         -0.96710        5.18360        2.36730
C         -1.08690        6.24860        1.49690
C         -2.25210        7.00250        1.47890
S         -2.52950        8.38010        0.41780
C         -1.00920        8.48410       -0.57080
C         -3.29040        6.67540        2.35060
C         -3.18470        5.59200        3.19100
C         -2.50180        3.78570        5.34600
C         -2.53680        4.97620        6.07390
C         -3.13710        5.00980        7.31230
C         -3.70740        3.86080        7.85760
S         -4.42330        4.02830        9.46020
C         -4.97620        2.34930        9.87660
C         -3.68880        2.67840        7.12760
C         -3.09840        2.64600        5.88010
C         -1.19830        2.15620        2.33820
S         -1.95330        2.67690        0.85690
C         -1.18780        1.35490       -0.01030
C         -0.46800        0.52120        0.83410
N          0.14140       -0.65770        0.41470
C         -0.59250       -1.57530       -0.34840
C          0.01250       -2.26380       -1.40020
C         -0.70130       -3.18490       -2.13220
C         -2.03500       -3.44840       -1.82860
S         -2.83850       -4.66210       -2.83240
C         -4.45590       -4.88700       -2.03740
C         -2.64940       -2.75250       -0.79530
C         -1.93430       -1.81880       -0.06870
C          1.45650       -0.91950        0.79870
C          2.33660        0.13700        1.02440
C          3.63130       -0.10100        1.43630
C          4.06750       -1.40300        1.63130
S          5.72230       -1.78060        2.14940
C          6.10960       -0.38010        3.23920
C          3.20110       -2.46380        1.38910
C          1.90840       -2.22680        0.97890
C         -0.45710        0.99450        2.16210
S          0.27020        0.41910        3.61530
C         -1.11790        1.20990       -1.43540
C         -2.07610        1.09810       -2.42720
N         -3.43990        1.25810       -2.24860
C         -4.31670        0.44170       -2.97790
C         -3.98980       -0.89530       -3.20850
C         -4.81260       -1.69680       -3.96550
C         -5.99660       -1.19250       -4.49520
S         -6.97200       -2.32180       -5.44070
C         -8.24980       -1.27180       -6.18900
C         -6.34140        0.12960       -4.25000
C         -5.50350        0.94040       -3.50820
C         -3.93590        2.37990       -1.56770
C         -5.07370        2.25990       -0.77470
C         -5.62850        3.36800       -0.16860
C         -5.04850        4.61840       -0.34210
S         -5.74820        6.10900        0.28670
C         -6.84250        5.53080        1.61760
C         -3.88810        4.73710       -1.10200
C         -3.33490        3.63090       -1.70940
C         -1.48360        0.70350       -3.65720
S         -2.09990        0.21830       -5.19490
C         -0.49770       -0.21150       -5.73530
C          0.48090        0.08960       -4.80100
N          1.84970       -0.15780       -4.93770
C          2.39200       -1.16730       -4.11070
C          3.35630       -0.86900       -3.15220
C          3.87720       -1.86330       -2.34670
C          3.44930       -3.17640       -2.50410
S          4.04690       -4.51560       -1.52280
C          5.66820       -3.92710       -0.95510
C          2.48290       -3.47590       -3.46160
C          1.94860       -2.48050       -4.25190
C          2.66860        0.73910       -5.61180
C          2.21560        2.01790       -5.94210
C          3.02230        2.87990       -6.64920
C          4.30260        2.49410       -7.03620
S          5.25830        3.68460       -7.92730
C          6.60340        2.69700       -8.64410
C          4.76430        1.22960       -6.69750
C          3.95220        0.35930       -6.00030
C         -0.10500        0.57440       -3.61110
S          0.51910        0.96870       -2.05790
C         -0.35610       -1.15690       -6.81570
C          0.65580       -1.17600       -7.75940
F          1.42770       -0.09340       -7.94470
C          0.92910       -2.30600       -8.54940
F          1.97280       -2.23780       -9.39040
C          0.24780       -3.50290       -8.41370
C         -0.88060       -3.47510       -7.55480
C         -1.18890       -2.30860       -6.78090
N         -2.25520       -2.49390       -6.00690
S         -2.82780       -3.97150       -6.25060
N         -1.75090       -4.45860       -7.34090
C          0.66470       -4.72000       -9.05940
C          0.69080       -5.92520       -8.43860
C          0.55440       -6.06490       -6.98450
O          0.71490       -5.15780       -6.19220
N          0.26590       -7.34210       -6.53680
C         -0.00060       -7.47670       -5.10790
C          1.27340       -7.78210       -4.33140
C          0.31030       -8.46020       -7.32300
S         -0.04550       -9.94360       -6.69360
N          0.68710       -8.33020       -8.63170
C          0.85520       -9.52770       -9.44900
C          2.24050      -10.13160       -9.26240
C          0.94260       -7.11860       -9.25620
O          1.30350       -7.07340      -10.41250
H         -0.40220        3.12350        6.10710
H          2.49350       -2.24630        7.56860
H          1.99160        1.61910       10.80370
H          4.17730       -0.70110       12.05130
H          1.84350       -0.96050       13.30850
H          3.55470       -2.64550       14.37430
H          3.84590       -4.69390       12.70760
H          2.31300       -4.27090       10.61640
H          0.72850       -3.20180       12.44720
H          0.83940       -2.07210       11.07770
H          4.46170       -2.70780       10.41580
H         -0.04300        4.62580        2.40030
H         -0.25610        6.48670        0.85300
H         -1.16230        9.31460       -1.25280
H         -0.15880        8.68950        0.07280
H         -0.86670        7.56650       -1.13410
H         -4.18270        7.28040        2.34690
H         -4.00330        5.33360        3.84610
H         -2.07660        5.86480        5.67350
H         -3.15200        5.92530        7.88190
H         -4.13050        1.66770        9.87310
H         -5.74880        2.02660        9.18470
H         -5.38730        2.42000       10.87870
H         -4.13720        1.77700        7.51310
H         -3.09140        1.72420        5.31670
H          1.04680       -2.07030       -1.63470
H         -0.23160       -3.71030       -2.94830
H         -5.03740       -3.97160       -2.10090
H         -4.94960       -5.67470       -2.59810
H         -4.31610       -5.19890       -1.00670
H         -3.68410       -2.92440       -0.54600
H         -2.41890       -1.28270        0.73410
H          2.00650        1.15240        0.86240
H          4.29620        0.73360        1.59570
H          6.94890       -0.69680        3.85050
H          6.39110        0.49100        2.65410
H          5.24660       -0.17080        3.86370
H          3.54380       -3.47560        1.54060
H          1.23880       -3.05650        0.81360
H         -3.07760       -1.29830       -2.79980
H         -4.53650       -2.71890       -4.17070
H         -7.78080       -0.46720       -6.74750
H         -8.80250       -1.91820       -6.86360
H         -8.91620       -0.88590       -5.42290
H         -7.25260        0.55050       -4.64360
H         -5.77080        1.97450       -3.34970
H         -5.53350        1.29030       -0.65270
H         -6.52110        3.24840        0.42420
H         -7.73030        5.06100        1.20430
H         -7.12690        6.41920        2.17270
H         -6.29640        4.84810        2.26110
H         -3.44250        5.71160       -1.22560
H         -2.44650        3.73040       -2.31510
H          3.69070        0.15140       -3.03540
H          4.60290       -1.60560       -1.59170
H          6.21530       -3.51750       -1.79850
H          5.55750       -3.19350       -0.16230
H          6.18090       -4.80260       -0.56930
H          2.15920       -4.49710       -3.58750
H          1.20820       -2.72840       -4.99720
H          1.22340        2.32810       -5.65040
H          2.66930        3.86590       -6.90980
H          6.18570        1.84130       -9.16590
H          7.29900        2.38640       -7.86960
H          7.10760        3.35210       -9.34760
H          5.75240        0.90350       -6.98020
H          4.31000       -0.63120       -5.76180
H          0.96660       -4.67780      -10.09940
H         -0.42590       -6.52750       -4.77660
H         -0.73380       -8.27260       -4.97210
H          2.01390       -7.00390       -4.50070
H          1.04990       -7.82590       -3.26960
H          1.68730       -8.73900       -4.64050
H          0.71780       -9.21860      -10.48650
H          0.08200      -10.24530       -9.17090
H          3.00530       -9.40670       -9.53070
H          2.38650      -10.43950       -8.22970
H          2.34460      -11.00270       -9.90240
