186

C          6.84480        2.95740        1.14150
C          7.18930        4.10770        0.51790
C          6.32710        4.84500       -0.45390
O          5.14990        4.67850       -0.67300
C          7.18710        5.90270       -1.01730
C          6.85370        6.79050       -2.03860
C          7.85550        7.67230       -2.36350
C          9.10010        7.67540       -1.71700
C          9.44060        6.81110       -0.70550
C          8.43270        5.90370       -0.35710
C          8.43500        4.85120        0.65280
C          9.42900        4.62230        1.56590
C         10.61230        5.38450        1.66960
N         11.59320        5.96250        1.81830
C          9.41020        3.61960        2.55880
N          9.47050        2.83600        3.39590
C          9.61820        8.82360       -2.54640
C          9.64580       10.20800       -1.86470
C          9.72870       11.17800       -3.02110
C          8.55240       11.17540       -3.63500
C          7.65420       10.20410       -2.90340
C          8.17400       10.39090       -1.47220
C          8.23210        8.81980       -3.26750
C          5.61420        2.22980        0.89330
C          5.14090        1.91660       -0.39390
O          5.88960        2.04470       -1.53130
C          7.21140        1.53190       -1.52630
C          7.25630        0.01730       -1.35550
C          3.83190        1.44730       -0.54200
O          3.27830        1.27960       -1.78680
C          3.66850        0.11760       -2.51580
C          4.28080        0.48920       -3.85840
C          3.04600        1.15610        0.58490
C          3.57480        1.37360        1.85870
C          4.83510        1.89820        2.00430
C          1.71680        0.61540        0.40760
C          1.09000       -0.36910        1.15230
N          1.70920       -1.10460        2.15860
C          3.03100       -1.52420        1.97110
C          3.94400       -1.51020        3.02640
C          5.25560       -1.87290        2.81670
C          5.68930       -2.25920        1.55120
S          7.40460       -2.65420        1.37630
C          7.45330       -3.65210       -0.14250
C          4.78280       -2.28940        0.50010
C          3.46720       -1.93000        0.71190
C          0.98770       -1.44290        3.30460
C          1.22720       -2.64410        3.97460
C          0.49650       -2.97230        5.09300
C         -0.49840       -2.11900        5.56750
S         -1.36980       -2.65430        7.00820
C         -2.64650       -1.38500        7.24270
C         -0.74050       -0.92390        4.90660
C          0.00010       -0.58910        3.78960
C         -0.22690       -0.59940        0.68360
S         -1.53100       -1.63870        1.15160
C         -2.51810       -1.03600       -0.17080
C         -1.88790       -0.03920       -0.88700
N         -2.44900        0.73240       -1.89250
C         -1.58440        1.18870       -2.89470
C         -0.65280        0.31300       -3.45160
C          0.32070        0.78460       -4.30770
C          0.37310        2.13620       -4.60980
S          1.73790        2.77320       -5.56160
C          2.51960        3.77150       -4.25170
C         -0.60670        2.99640       -4.13470
C         -1.58480        2.52730       -3.28290
C         -3.79900        1.07490       -1.88170
C         -4.48390        1.25060       -0.68100
C         -5.84290        1.48770       -0.67040
C         -6.54380        1.56090       -1.86570
S         -8.29740        1.78050       -1.94950
C         -8.85610        1.18570       -0.32670
C         -5.85210        1.46460       -3.07020
C         -4.49630        1.22630       -3.08060
C         -0.57240        0.18680       -0.40330
S          0.73320        1.19860       -0.90920
C         -3.85350       -1.56560       -0.37330
C         -4.29630       -1.86240       -1.67120
O         -3.36400       -1.69930       -2.64920
C         -3.29010       -2.56170       -3.77730
C         -3.63470       -1.81950       -5.06140
C         -5.63580       -2.24900       -1.89110
O         -5.94600       -2.50870       -3.19270
C         -7.26490       -2.71080       -3.64270
C         -8.01760       -1.40730       -3.87900
C         -6.48110       -2.44330       -0.78840
C         -5.97710       -2.23930        0.50350
C         -4.70250       -1.78580        0.71010
C         -7.88790       -2.82560       -0.85240
C         -8.37250       -3.92740       -0.23070
C         -7.51270       -5.03460        0.27440
O         -6.30340       -5.09370        0.26160
C         -8.44380       -6.08670        0.72130
C         -8.10190       -7.31960        1.27250
C         -9.17980       -8.10780        1.59460
C        -10.50490       -7.70630        1.37180
C        -10.85640       -6.49750        0.82260
C         -9.77330       -5.67260        0.49830
C         -9.76150       -4.33270       -0.07690
C        -10.86610       -3.57970       -0.37490
C        -10.83850       -2.26110       -0.87290
N        -10.90330       -1.18250       -1.26260
C        -12.20050       -4.00720       -0.20720
N        -13.30990       -4.28280       -0.10200
C        -11.07080       -8.98590        1.93480
C        -11.66730       -8.94150        3.36330
C        -10.96880       -7.81510        4.08400
C         -9.71460       -8.18870        4.29960
C         -9.54250       -9.57520        3.72980
C        -10.94580      -10.14850        3.98400
C         -9.59540       -9.42960        2.18840
H          7.47560        2.56210        1.92850
H          5.88480        6.74810       -2.51090
H         10.40350        6.82320       -0.22310
H         10.51210        8.62020       -3.13280
H         10.39100       10.31430       -1.08120
H         10.62190       11.70670       -3.29760
H          8.26670       11.70140       -4.52700
H          6.58490       10.30830       -3.06650
H          7.97210       11.38950       -1.08830
H          7.80670        9.64860       -0.76600
H          8.20050        8.61290       -4.33560
H          7.61450        1.82120       -2.50070
H          7.82120        1.99860       -0.74450
H          8.29130       -0.31420       -1.35190
H          6.79590       -0.26370       -0.40940
H          6.72990       -0.47320       -2.17100
H          4.37190       -0.47160       -1.91830
H          2.76060       -0.48250       -2.66730
H          3.54740        0.99090       -4.48250
H          4.62090       -0.40890       -4.36920
H          5.12040        1.16110       -3.70580
H          2.97070        1.16800        2.72770
H          5.21960        2.11720        2.98920
H          3.61830       -1.20880        4.01050
H          5.96410       -1.85210        3.63010
H          7.31450       -3.02310       -1.01700
H          8.44210       -4.09900       -0.16720
H          6.69640       -4.42850       -0.08990
H          5.08950       -2.59960       -0.48680
H          2.76660       -1.96220       -0.10930
H          1.98320       -3.32050        3.60550
H          0.67930       -3.90200        5.60960
H         -3.23800       -1.71860        8.08970
H         -3.27170       -1.32270        6.35680
H         -2.18580       -0.42810        7.47090
H         -1.49580       -0.23660        5.25210
H         -0.18600        0.35090        3.29110
H         -0.68970       -0.73090       -3.17900
H          1.05650        0.11590       -4.72700
H          1.87450        4.60470       -3.99060
H          2.70880        3.14460       -3.38470
H          3.45460        4.13720       -4.66300
H         -0.58500        4.04010       -4.40990
H         -2.33050        3.19820       -2.88260
H         -3.94780        1.20100        0.25450
H         -6.34460        1.61920        0.27510
H         -8.75550        1.96950        0.41900
H         -9.90100        0.91930       -0.45300
H         -8.28140        0.30690       -0.04790
H         -6.39740        1.56240       -3.99650
H         -3.97020        1.12750       -4.01730
H         -2.24530       -2.89650       -3.81720
H         -3.92560       -3.43840       -3.64600
H         -3.52660       -2.48720       -5.91180
H         -2.96410       -0.97280       -5.18850
H         -4.65770       -1.45790       -5.01810
H         -7.14610       -3.24810       -4.58980
H         -7.80820       -3.36190       -2.94450
H         -7.53980       -0.84190       -4.67470
H         -9.04380       -1.61870       -4.16610
H         -8.02450       -0.78600       -2.98770
H         -6.63620       -2.40530        1.34210
H         -4.34350       -1.59050        1.70890
H         -8.57590       -2.13390       -1.32180
H         -7.06810       -7.59010        1.42070
H        -11.87940       -6.20660        0.65230
H        -11.67240       -9.58170        1.25140
H        -12.75330       -8.93400        3.39870
H        -11.42900       -6.86990        4.30530
H         -8.91640       -7.61780        4.73660
H         -8.69390      -10.14420        4.10020
H        -11.16490      -10.27050        5.04360
H        -11.13420      -11.08410        3.45910
H         -9.23400      -10.31890        1.67570
