
  xtb     02082203363D
 energy: -297.882618394539 gnorm: 0.000649885428 xtb: 6.4.1 (unknown)
168188  0     0  0            999 V2000
   -3.1050    4.3763    8.0217 C   0  0  0  0  0  0  0  0  0  0  0  0
   -2.5577    5.6203    7.9568 C   0  0  0  0  0  0  0  0  0  0  0  0
   -1.9189    6.2079    6.7479 C   0  0  0  0  0  0  0  0  0  0  0  0
   -1.7226    5.6849    5.6714 O   0  0  0  0  0  0  0  0  0  0  0  0
   -1.6958    7.6297    7.0689 C   0  0  0  0  0  0  0  0  0  0  0  0
   -1.1364    8.5911    6.2299 C   0  0  0  0  0  0  0  0  0  0  0  0
   -1.0824    9.8498    6.7768 C   0  0  0  0  0  0  0  0  0  0  0  0
   -1.5581   10.1364    8.0639 C   0  0  0  0  0  0  0  0  0  0  0  0
   -2.1115    9.1984    8.9021 C   0  0  0  0  0  0  0  0  0  0  0  0
   -2.1717    7.9082    8.3656 C   0  0  0  0  0  0  0  0  0  0  0  0
   -2.6835    6.6722    8.9488 C   0  0  0  0  0  0  0  0  0  0  0  0
   -3.1229    6.5131   10.2364 C   0  0  0  0  0  0  0  0  0  0  0  0
   -3.5218    5.2861   10.8090 C   0  0  0  0  0  0  0  0  0  0  0  0
   -3.8361    4.3301   11.3620 N   0  0  0  0  0  0  0  0  0  0  0  0
   -3.2103    7.5531   11.1853 C   0  0  0  0  0  0  0  0  0  0  0  0
   -3.3107    8.3513   12.0047 N   0  0  0  0  0  0  0  0  0  0  0  0
   -1.2100   11.5996    7.9527 C   0  0  0  0  0  0  0  0  0  0  0  0
   -2.3624   12.5964    7.6742 C   0  0  0  0  0  0  0  0  0  0  0  0
   -3.4330   11.8232    6.9451 C   0  0  0  0  0  0  0  0  0  0  0  0
   -2.9796   11.5518    5.7287 C   0  0  0  0  0  0  0  0  0  0  0  0
   -1.5936   12.1370    5.6131 C   0  0  0  0  0  0  0  0  0  0  0  0
   -1.7500   13.3807    6.5025 C   0  0  0  0  0  0  0  0  0  0  0  0
   -0.6767   11.2798    6.5206 C   0  0  0  0  0  0  0  0  0  0  0  0
   -2.8352    3.3226    7.0986 C   0  0  0  0  0  0  0  0  0  0  0  0
   -3.8390    2.4127    6.7099 C   0  0  0  0  0  0  0  0  0  0  0  0
   -3.6398    1.4208    5.6663 C   0  0  0  0  0  0  0  0  0  0  0  0
   -4.7632    0.7400    5.4145 N   0  0  0  0  0  0  0  0  0  0  0  0
   -5.9178    1.2609    6.3876 S   0  0  0  0  0  4  0  0  0  0  0  0
   -5.0943    2.3958    7.1654 N   0  0  0  0  0  0  0  0  0  0  0  0
   -2.4172    1.2968    4.9972 C   0  0  0  0  0  0  0  0  0  0  0  0
   -1.3848    2.1152    5.4735 C   0  0  0  0  0  0  0  0  0  0  0  0
   -0.1054    2.0489    5.0836 N   0  0  0  0  0  0  0  0  0  0  0  0
    0.7504    3.0868    5.9388 S   0  0  0  0  0  0  0  0  0  0  0  0
   -0.4193    3.6819    6.8538 N   0  0  0  0  0  0  0  0  0  0  0  0
   -1.5738    3.0972    6.5183 C   0  0  0  0  0  0  0  0  0  0  0  0
   -2.1544    0.4436    3.8532 C   0  0  0  0  0  0  0  0  0  0  0  0
   -1.4529    0.9817    2.7542 C   0  0  0  0  0  0  0  0  0  0  0  0
   -1.0908    2.2432    2.4911 N   0  0  0  0  0  0  0  0  0  0  0  0
   -0.4977    2.1727    1.3375 N   0  0  0  0  0  0  0  0  0  0  0  0
    0.0562    3.3377    0.7061 C   0  0  0  0  0  0  0  0  0  0  0  0
    0.8635    4.1458    1.7125 C   0  0  0  0  0  0  0  0  0  0  0  0
   -0.4264    0.9961    0.7808 N   0  0  0  0  0  0  0  0  0  0  0  0
   -1.0306    0.1817    1.6587 C   0  0  0  0  0  0  0  0  0  0  0  0
   -1.2788   -1.2085    1.6163 C   0  0  0  0  0  0  0  0  0  0  0  0
   -2.0398   -1.6928    2.6672 C   0  0  0  0  0  0  0  0  0  0  0  0
   -2.4607   -0.8985    3.7512 C   0  0  0  0  0  0  0  0  0  0  0  0
   -3.0934   -1.5215    4.7586 F   0  0  0  0  0  0  0  0  0  0  0  0
   -2.3335   -3.0057    2.7169 F   0  0  0  0  0  0  0  0  0  0  0  0
   -0.7399   -2.0146    0.5510 C   0  0  0  0  0  0  0  0  0  0  0  0
    0.4995   -1.8462   -0.0495 C   0  0  0  0  0  0  0  0  0  0  0  0
    1.5145   -1.0057    0.3708 N   0  0  0  0  0  0  0  0  0  0  0  0
    2.3477   -0.4745   -0.6339 C   0  0  0  0  0  0  0  0  0  0  0  0
    3.7349   -0.5419   -0.5234 C   0  0  0  0  0  0  0  0  0  0  0  0
    4.5299   -0.1200   -1.5666 C   0  0  0  0  0  0  0  0  0  0  0  0
    3.9545    0.3701   -2.7351 C   0  0  0  0  0  0  0  0  0  0  0  0
    5.0311    0.8227   -4.0585 S   0  0  0  0  0  0  0  0  0  0  0  0
    3.9865    0.4927   -5.5098 C   0  0  0  0  0  0  0  0  0  0  0  0
    2.5752    0.4970   -2.8230 C   0  0  0  0  0  0  0  0  0  0  0  0
    1.7782    0.0764   -1.7778 C   0  0  0  0  0  0  0  0  0  0  0  0
    1.7451   -0.6871    1.7068 C   0  0  0  0  0  0  0  0  0  0  0  0
    1.4057   -1.5601    2.7401 C   0  0  0  0  0  0  0  0  0  0  0  0
    1.6182   -1.2114    4.0591 C   0  0  0  0  0  0  0  0  0  0  0  0
    2.1844    0.0146    4.3758 C   0  0  0  0  0  0  0  0  0  0  0  0
    2.5262    0.5173    6.0406 S   0  0  0  0  0  0  0  0  0  0  0  0
    1.2131   -0.3259    6.9703 C   0  0  0  0  0  0  0  0  0  0  0  0
    2.5561    0.8784    3.3522 C   0  0  0  0  0  0  0  0  0  0  0  0
    2.3382    0.5346    2.0365 C   0  0  0  0  0  0  0  0  0  0  0  0
    0.6399   -2.7141   -1.1624 C   0  0  0  0  0  0  0  0  0  0  0  0
    1.8313   -2.8651   -2.4011 S   0  0  0  0  0  0  0  0  0  0  0  0
    0.8854   -4.1368   -3.1761 C   0  0  0  0  0  0  0  0  0  0  0  0
   -0.3490   -4.3560   -2.5126 C   0  0  0  0  0  0  0  0  0  0  0  0
   -1.3449   -5.1967   -2.9349 N   0  0  0  0  0  0  0  0  0  0  0  0
   -1.6080   -5.4210   -4.2977 C   0  0  0  0  0  0  0  0  0  0  0  0
   -1.4823   -4.3846   -5.2254 C   0  0  0  0  0  0  0  0  0  0  0  0
   -1.6489   -4.6364   -6.5673 C   0  0  0  0  0  0  0  0  0  0  0  0
   -1.9696   -5.9195   -7.0107 C   0  0  0  0  0  0  0  0  0  0  0  0
   -2.0766   -6.1630   -8.7550 S   0  0  0  0  0  0  0  0  0  0  0  0
   -1.8556   -7.9564   -8.9314 C   0  0  0  0  0  0  0  0  0  0  0  0
   -2.1857   -6.9285   -6.0830 C   0  0  0  0  0  0  0  0  0  0  0  0
   -1.9952   -6.6835   -4.7367 C   0  0  0  0  0  0  0  0  0  0  0  0
   -2.1840   -5.7918   -1.9752 C   0  0  0  0  0  0  0  0  0  0  0  0
   -3.5573   -5.8613   -2.1838 C   0  0  0  0  0  0  0  0  0  0  0  0
   -4.3813   -6.4526   -1.2469 C   0  0  0  0  0  0  0  0  0  0  0  0
   -3.8423   -6.9828   -0.0812 C   0  0  0  0  0  0  0  0  0  0  0  0
   -4.7861   -7.7642    1.1826 S   0  0  0  0  0  0  0  0  0  0  0  0
   -6.4925   -7.6932    0.5669 C   0  0  0  0  0  0  0  0  0  0  0  0
   -2.4650   -6.9156    0.1286 C   0  0  0  0  0  0  0  0  0  0  0  0
   -1.6435   -6.3308   -0.8072 C   0  0  0  0  0  0  0  0  0  0  0  0
   -0.4528   -3.5476   -1.3654 C   0  0  0  0  0  0  0  0  0  0  0  0
   -1.6839   -3.3028   -0.1697 S   0  0  0  0  0  0  0  0  0  0  0  0
    1.3273   -4.8848   -4.2678 C   0  0  0  0  0  0  0  0  0  0  0  0
    2.4106   -4.6993   -5.0977 C   0  0  0  0  0  0  0  0  0  0  0  0
    3.3396   -3.5681   -5.0818 C   0  0  0  0  0  0  0  0  0  0  0  0
    3.3754   -2.6358   -4.2934 O   0  0  0  0  0  0  0  0  0  0  0  0
    4.2151   -3.7303   -6.2548 C   0  0  0  0  0  0  0  0  0  0  0  0
    5.2807   -2.9139   -6.6271 C   0  0  0  0  0  0  0  0  0  0  0  0
    5.9076   -3.3099   -7.7843 C   0  0  0  0  0  0  0  0  0  0  0  0
    5.5055   -4.4343   -8.5163 C   0  0  0  0  0  0  0  0  0  0  0  0
    4.4677   -5.2588   -8.1481 C   0  0  0  0  0  0  0  0  0  0  0  0
    3.8157   -4.8743   -6.9735 C   0  0  0  0  0  0  0  0  0  0  0  0
    2.7146   -5.5120   -6.2520 C   0  0  0  0  0  0  0  0  0  0  0  0
    2.1027   -6.6847   -6.6250 C   0  0  0  0  0  0  0  0  0  0  0  0
    2.3321   -7.3613   -7.8393 C   0  0  0  0  0  0  0  0  0  0  0  0
    2.4256   -7.9598   -8.8156 N   0  0  0  0  0  0  0  0  0  0  0  0
    1.1716   -7.4071   -5.8570 C   0  0  0  0  0  0  0  0  0  0  0  0
    0.4362   -8.0917   -5.2965 N   0  0  0  0  0  0  0  0  0  0  0  0
    6.5698   -4.2310   -9.5660 C   0  0  0  0  0  0  0  0  0  0  0  0
    6.1115   -3.6117  -10.9037 C   0  0  0  0  0  0  0  0  0  0  0  0
    7.3929   -3.1009  -11.5218 C   0  0  0  0  0  0  0  0  0  0  0  0
    7.7824   -2.0408  -10.8252 C   0  0  0  0  0  0  0  0  0  0  0  0
    6.7700   -1.8165   -9.7254 C   0  0  0  0  0  0  0  0  0  0  0  0
    5.4958   -2.2852  -10.4397 C   0  0  0  0  0  0  0  0  0  0  0  0
    7.0233   -2.9812   -8.7452 C   0  0  0  0  0  0  0  0  0  0  0  0
   -3.8459    4.1494    8.7781 H   0  0  0  0  0  0  0  0  0  0  0  0
   -0.7868    8.3280    5.2437 H   0  0  0  0  0  0  0  0  0  0  0  0
   -2.4774    9.4353    9.8872 H   0  0  0  0  0  0  0  0  0  0  0  0
   -0.5030   11.9790    8.6877 H   0  0  0  0  0  0  0  0  0  0  0  0
   -2.6873   13.1642    8.5418 H   0  0  0  0  0  0  0  0  0  0  0  0
   -4.3584   11.5130    7.3942 H   0  0  0  0  0  0  0  0  0  0  0  0
   -3.4501   10.9692    4.9585 H   0  0  0  0  0  0  0  0  0  0  0  0
   -1.2183   12.2871    4.6041 H   0  0  0  0  0  0  0  0  0  0  0  0
   -2.4360   14.1148    6.0828 H   0  0  0  0  0  0  0  0  0  0  0  0
   -0.8035   13.8601    6.7486 H   0  0  0  0  0  0  0  0  0  0  0  0
    0.3798   11.4486    6.3212 H   0  0  0  0  0  0  0  0  0  0  0  0
    0.6705    2.9824   -0.1237 H   0  0  0  0  0  0  0  0  0  0  0  0
   -0.7641    3.9460    0.3112 H   0  0  0  0  0  0  0  0  0  0  0  0
    1.6828    3.5502    2.1059 H   0  0  0  0  0  0  0  0  0  0  0  0
    0.2241    4.4443    2.5388 H   0  0  0  0  0  0  0  0  0  0  0  0
    1.2678    5.0333    1.2343 H   0  0  0  0  0  0  0  0  0  0  0  0
    4.1803   -0.9539    0.3699 H   0  0  0  0  0  0  0  0  0  0  0  0
    5.6041   -0.1956   -1.4998 H   0  0  0  0  0  0  0  0  0  0  0  0
    4.6564    0.4369   -6.3623 H   0  0  0  0  0  0  0  0  0  0  0  0
    3.2745    1.2992   -5.6609 H   0  0  0  0  0  0  0  0  0  0  0  0
    3.4842   -0.4578   -5.3559 H   0  0  0  0  0  0  0  0  0  0  0  0
    2.1135    0.9139   -3.7038 H   0  0  0  0  0  0  0  0  0  0  0  0
    0.7035    0.1635   -1.8390 H   0  0  0  0  0  0  0  0  0  0  0  0
    0.9883   -2.5288    2.5118 H   0  0  0  0  0  0  0  0  0  0  0  0
    1.3508   -1.9133    4.8329 H   0  0  0  0  0  0  0  0  0  0  0  0
    1.1653    0.1588    7.9407 H   0  0  0  0  0  0  0  0  0  0  0  0
    0.2736   -0.2032    6.4392 H   0  0  0  0  0  0  0  0  0  0  0  0
    1.4549   -1.3765    7.0995 H   0  0  0  0  0  0  0  0  0  0  0  0
    3.0128    1.8236    3.6035 H   0  0  0  0  0  0  0  0  0  0  0  0
    2.6172    1.2151    1.2460 H   0  0  0  0  0  0  0  0  0  0  0  0
   -1.2245   -3.3918   -4.8879 H   0  0  0  0  0  0  0  0  0  0  0  0
   -1.5274   -3.8456   -7.2916 H   0  0  0  0  0  0  0  0  0  0  0  0
   -1.6490   -8.1256   -9.9835 H   0  0  0  0  0  0  0  0  0  0  0  0
   -1.0088   -8.2765   -8.3316 H   0  0  0  0  0  0  0  0  0  0  0  0
   -2.7632   -8.4802   -8.6457 H   0  0  0  0  0  0  0  0  0  0  0  0
   -2.4704   -7.9192   -6.3954 H   0  0  0  0  0  0  0  0  0  0  0  0
   -2.1199   -7.4836   -4.0243 H   0  0  0  0  0  0  0  0  0  0  0  0
   -3.9815   -5.4441   -3.0851 H   0  0  0  0  0  0  0  0  0  0  0  0
   -5.4416   -6.4857   -1.4368 H   0  0  0  0  0  0  0  0  0  0  0  0
   -7.0960   -8.1818    1.3256 H   0  0  0  0  0  0  0  0  0  0  0  0
   -6.5727   -8.2345   -0.3713 H   0  0  0  0  0  0  0  0  0  0  0  0
   -6.8061   -6.6592    0.4575 H   0  0  0  0  0  0  0  0  0  0  0  0
   -2.0516   -7.3348    1.0325 H   0  0  0  0  0  0  0  0  0  0  0  0
   -0.5763   -6.2971   -0.6472 H   0  0  0  0  0  0  0  0  0  0  0  0
    0.7004   -5.7352   -4.5022 H   0  0  0  0  0  0  0  0  0  0  0  0
    5.5686   -2.0655   -6.0264 H   0  0  0  0  0  0  0  0  0  0  0  0
    4.1820   -6.1304   -8.7131 H   0  0  0  0  0  0  0  0  0  0  0  0
    7.2716   -5.0524   -9.6968 H   0  0  0  0  0  0  0  0  0  0  0  0
    5.4956   -4.2618  -11.5190 H   0  0  0  0  0  0  0  0  0  0  0  0
    7.8974   -3.5810  -12.3396 H   0  0  0  0  0  0  0  0  0  0  0  0
    8.6772   -1.4586  -10.9447 H   0  0  0  0  0  0  0  0  0  0  0  0
    6.7561   -0.8305   -9.2682 H   0  0  0  0  0  0  0  0  0  0  0  0
    4.6356   -2.4014   -9.7829 H   0  0  0  0  0  0  0  0  0  0  0  0
    5.2311   -1.6399  -11.2759 H   0  0  0  0  0  0  0  0  0  0  0  0
    8.0264   -2.9726   -8.3228 H   0  0  0  0  0  0  0  0  0  0  0  0
  1  2  2  0  0  0  0
  2  3  1  0  0  0  0
  3  4  2  0  0  0  0
  3  5  1  0  0  0  0
  5  6  2  0  0  0  0
  6  7  1  0  0  0  0
  7  8  2  0  0  0  0
  8  9  1  0  0  0  0
  9 10  2  0  0  0  0
 10 11  1  0  0  0  0
 11 12  2  0  0  0  0
 12 13  1  0  0  0  0
 13 14  3  0  0  0  0
 12 15  1  0  0  0  0
 15 16  3  0  0  0  0
  8 17  1  0  0  0  0
 17 18  1  0  0  0  0
 18 19  1  0  0  0  0
 19 20  2  0  0  0  0
 20 21  1  0  0  0  0
 21 22  1  0  0  0  0
 21 23  1  0  0  0  0
  1 24  1  0  0  0  0
 24 25  2  0  0  0  0
 25 26  1  0  0  0  0
 26 27  1  0  0  0  0
 27 28  2  0  0  0  0
 28 29  2  0  0  0  0
 26 30  2  0  0  0  0
 30 31  1  0  0  0  0
 31 32  2  0  0  0  0
 32 33  1  0  0  0  0
 33 34  1  0  0  0  0
 34 35  2  0  0  0  0
 30 36  1  0  0  0  0
 36 37  1  0  0  0  0
 37 38  2  0  0  0  0
 38 39  1  0  0  0  0
 39 40  1  0  0  0  0
 40 41  1  0  0  0  0
 39 42  1  0  0  0  0
 42 43  2  0  0  0  0
 43 44  1  0  0  0  0
 44 45  2  0  0  0  0
 45 46  1  0  0  0  0
 46 47  1  0  0  0  0
 45 48  1  0  0  0  0
 44 49  1  0  0  0  0
 49 50  2  0  0  0  0
 50 51  1  0  0  0  0
 51 52  1  0  0  0  0
 52 53  2  0  0  0  0
 53 54  1  0  0  0  0
 54 55  2  0  0  0  0
 55 56  1  0  0  0  0
 56 57  1  0  0  0  0
 55 58  1  0  0  0  0
 58 59  2  0  0  0  0
 51 60  1  0  0  0  0
 60 61  2  0  0  0  0
 61 62  1  0  0  0  0
 62 63  2  0  0  0  0
 63 64  1  0  0  0  0
 64 65  1  0  0  0  0
 63 66  1  0  0  0  0
 66 67  2  0  0  0  0
 50 68  1  0  0  0  0
 68 69  1  0  0  0  0
 69 70  1  0  0  0  0
 70 71  2  0  0  0  0
 71 72  1  0  0  0  0
 72 73  1  0  0  0  0
 73 74  2  0  0  0  0
 74 75  1  0  0  0  0
 75 76  2  0  0  0  0
 76 77  1  0  0  0  0
 77 78  1  0  0  0  0
 76 79  1  0  0  0  0
 79 80  2  0  0  0  0
 72 81  1  0  0  0  0
 81 82  2  0  0  0  0
 82 83  1  0  0  0  0
 83 84  2  0  0  0  0
 84 85  1  0  0  0  0
 85 86  1  0  0  0  0
 84 87  1  0  0  0  0
 87 88  2  0  0  0  0
 71 89  1  0  0  0  0
 89 90  1  0  0  0  0
 70 91  1  0  0  0  0
 91 92  2  0  0  0  0
 92 93  1  0  0  0  0
 93 94  2  0  0  0  0
 93 95  1  0  0  0  0
 95 96  2  0  0  0  0
 96 97  1  0  0  0  0
 97 98  2  0  0  0  0
 98 99  1  0  0  0  0
 99100  2  0  0  0  0
100101  1  0  0  0  0
101102  2  0  0  0  0
102103  1  0  0  0  0
103104  3  0  0  0  0
102105  1  0  0  0  0
105106  3  0  0  0  0
 98107  1  0  0  0  0
107108  1  0  0  0  0
108109  1  0  0  0  0
109110  2  0  0  0  0
110111  1  0  0  0  0
111112  1  0  0  0  0
111113  1  0  0  0  0
 11  2  1  0  0  0  0
 23 17  1  0  0  0  0
 35 24  1  0  0  0  0
 46 36  2  0  0  0  0
 90 49  1  0  0  0  0
101 92  1  0  0  0  0
113107  1  0  0  0  0
 10  5  1  0  0  0  0
 22 18  1  0  0  0  0
 29 25  1  0  0  0  0
 35 31  1  0  0  0  0
 43 37  1  0  0  0  0
 59 52  1  0  0  0  0
 67 60  1  0  0  0  0
 89 68  2  0  0  0  0
100 95  1  0  0  0  0
112108  1  0  0  0  0
 23  7  1  0  0  0  0
 80 73  1  0  0  0  0
 88 81  1  0  0  0  0
113 97  1  0  0  0  0
  1114  1  0  0  0  0
  6115  1  0  0  0  0
  9116  1  0  0  0  0
 17117  1  0  0  0  0
 18118  1  0  0  0  0
 19119  1  0  0  0  0
 20120  1  0  0  0  0
 21121  1  0  0  0  0
 22122  1  0  0  0  0
 22123  1  0  0  0  0
 23124  1  0  0  0  0
 40125  1  0  0  0  0
 40126  1  0  0  0  0
 41127  1  0  0  0  0
 41128  1  0  0  0  0
 41129  1  0  0  0  0
 53130  1  0  0  0  0
 54131  1  0  0  0  0
 57132  1  0  0  0  0
 57133  1  0  0  0  0
 57134  1  0  0  0  0
 58135  1  0  0  0  0
 59136  1  0  0  0  0
 61137  1  0  0  0  0
 62138  1  0  0  0  0
 65139  1  0  0  0  0
 65140  1  0  0  0  0
 65141  1  0  0  0  0
 66142  1  0  0  0  0
 67143  1  0  0  0  0
 74144  1  0  0  0  0
 75145  1  0  0  0  0
 78146  1  0  0  0  0
 78147  1  0  0  0  0
 78148  1  0  0  0  0
 79149  1  0  0  0  0
 80150  1  0  0  0  0
 82151  1  0  0  0  0
 83152  1  0  0  0  0
 86153  1  0  0  0  0
 86154  1  0  0  0  0
 86155  1  0  0  0  0
 87156  1  0  0  0  0
 88157  1  0  0  0  0
 91158  1  0  0  0  0
 96159  1  0  0  0  0
 99160  1  0  0  0  0
107161  1  0  0  0  0
108162  1  0  0  0  0
109163  1  0  0  0  0
110164  1  0  0  0  0
111165  1  0  0  0  0
112166  1  0  0  0  0
112167  1  0  0  0  0
113168  1  0  0  0  0
M  END
