193

C          5.84320        4.93990       -2.73280
C          6.28820        5.81050       -1.76080
C          6.31740        5.49370       -0.32420
O          5.92340        4.47570        0.21570
C          7.04810        6.60720        0.31670
C          7.33090        6.75820        1.66990
C          8.01260        7.91330        1.97410
C          8.39040        8.84800        1.00310
C          8.12130        8.70850       -0.33840
C          7.42950        7.54160       -0.66590
C          6.94650        7.06950       -1.96080
C          6.96560        7.77940       -3.13770
C          7.56040        9.04300       -3.30480
N          8.01370       10.07700       -3.52090
C          6.30670        7.36710       -4.31180
N          5.74830        7.13110       -5.28850
C          9.04690        9.75430        2.01440
C         10.59270        9.73660        2.10550
C         11.03470        8.37470        1.63080
C         10.67610        7.48920        2.55070
C          9.98520        8.23650        3.66430
C         10.76200        9.56210        3.62320
C          8.62450        8.71250        3.09800
C          4.91150        3.91570       -2.54800
C          3.87670        3.75320       -1.60300
N          3.42340        4.68220       -0.71050
C          3.60030        6.05970       -0.87960
C          3.89920        6.86030        0.22550
C          4.14930        8.20390        0.06220
C          4.09790        8.78670       -1.20360
S          4.52930       10.49010       -1.30060
C          4.38160       10.89210       -3.06310
C          3.73100        8.00720       -2.29550
C          3.48820        6.65870       -2.13250
C          2.73870        4.23870        0.44210
C          1.51750        4.80690        0.78400
C          0.82410        4.36010        1.89230
C          1.34950        3.33890        2.67370
S          0.55180        2.67360        4.09750
C         -1.08030        3.46870        4.09990
C          2.59000        2.79120        2.34770
C          3.28020        3.23420        1.24250
C          3.25270        2.49520       -1.76780
S          1.94050        1.69130       -0.97230
C          2.09390        0.31260       -2.04920
C          3.06980        0.50700       -3.02150
N          3.36830       -0.35670       -4.06530
C          2.36410       -0.98890       -4.80220
C          2.61480       -2.21680       -5.41210
C          1.63870       -2.85720       -6.14950
C          0.38190       -2.28460       -6.28500
S         -0.93950       -2.99220       -7.21930
C         -0.22310       -4.51130       -7.90940
C          0.11920       -1.06620       -5.66210
C          1.09470       -0.42410       -4.93370
C          4.71460       -0.45430       -4.45630
C          5.71150       -0.54900       -3.48450
C          7.03630       -0.60850       -3.85230
C          7.39750       -0.58340       -5.19810
S          9.12540       -0.66820       -5.54640
C          9.22290       -0.43580       -7.34420
C          6.40770       -0.50230       -6.16850
C          5.07880       -0.43300       -5.79870
C          3.72790        1.74340       -2.83350
S          4.97330        2.56760       -3.69600
C          1.29210       -0.83640       -1.81140
S         -0.19090       -0.69770       -0.89920
C         -0.43510       -2.40100       -0.99860
C         -1.44780       -3.21120       -0.42950
C         -1.36070       -4.58330       -0.64020
Ge         0.21130       -4.97430       -1.75500
C          1.53060       -6.11290       -0.75800
C          1.50100       -5.81610        0.73400
C         -0.29350       -5.54530       -3.61300
C         -1.46790       -4.72970       -4.13020
C          0.57970       -3.03840       -1.70190
C          1.54860       -2.15040       -2.15600
C         -2.32220       -5.28790        0.07150
C         -3.15300       -4.47760        0.81970
S         -2.76380       -2.78670        0.59380
C         -4.21510       -4.85800        1.68520
S         -5.68180       -3.93660        1.70880
C         -6.38980       -5.00630        2.88980
C         -5.50000       -6.03110        3.23030
C         -5.81800       -7.10270        4.18940
O         -6.95600       -7.37630        4.53670
C         -4.63790       -7.81640        4.66760
C         -4.64820       -8.73160        5.69110
C         -5.77480       -9.13470        6.57130
C         -6.05600       -8.06650        7.63330
S         -3.06750       -9.38720        5.94210
C         -2.39080       -8.45290        4.65060
C         -0.94170       -8.55700        4.33820
C         -0.15930       -7.41540        4.99400
C         -3.34500       -7.65290        4.07280
C         -3.09560       -6.76120        2.93730
O         -2.00350       -6.67180        2.39730
C         -4.25880       -5.94330        2.56530
C         -7.63930       -4.82270        3.51250
C         -8.64960       -3.95930        3.20610
C         -8.75460       -3.12220        1.99980
O         -7.86890       -2.84330        1.21290
C        -10.16490       -2.70300        1.92360
C        -10.77220       -1.98290        0.89630
C        -12.11400       -1.75800        1.08870
C        -12.80550       -2.21650        2.21850
C        -12.21990       -2.92530        3.24040
C        -10.85320       -3.16280        3.06650
C         -9.90750       -3.86920        3.92470
C        -10.13030       -4.28870        5.20880
C         -9.14020       -4.82200        6.06440
N         -8.39010       -5.20900        6.84260
C        -11.36620       -4.16920        5.87750
N        -12.34760       -4.10520        6.46980
C        -14.11710       -1.63840        1.74970
C        -14.57470       -0.32860        2.42600
C        -15.59480        0.23630        1.46400
C        -14.94250        0.67010        0.39310
C        -13.47020        0.40620        0.61330
C        -13.39130        0.60280        2.13270
C        -13.34680       -1.12720        0.49000
H          6.27180        5.01000       -3.72580
H          7.01890        6.01660        2.38910
H          8.42040        9.43330       -1.07740
H          8.63820       10.76020        2.08780
H         11.08210       10.58880        1.64150
H         11.49610        8.19330        0.67770
H         10.77760        6.42010        2.51940
H          9.92220        7.72280        4.62020
H         10.29630       10.35600        4.20560
H         11.80360        9.44970        3.92120
H          7.94170        9.03980        3.88000
H          3.95830        6.41160        1.20540
H          4.41230        8.81680        0.91040
H          4.66700       11.93630       -3.14470
H          5.06560       10.28350       -3.64700
H          3.35410       10.76210       -3.38990
H          3.64420        8.43270       -3.28200
H          3.21870        6.06430       -2.99260
H          1.10600        5.59720        0.17300
H         -0.12480        4.81280        2.12940
H         -1.59180        3.25950        3.16510
H         -0.97770        4.53700        4.26720
H         -1.62220        3.01870        4.92590
H          3.00120        2.01540        2.97490
H          4.25020        2.83270        0.99570
H          3.58790       -2.67440       -5.30790
H          1.87430       -3.80340       -6.60930
H         -1.01250       -4.96130       -8.50360
H          0.62240       -4.26800       -8.54600
H          0.06540       -5.18650       -7.10890
H         -0.85930       -0.62330       -5.76870
H          0.87960        0.52850       -4.47470
H          5.43760       -0.57090       -2.43990
H          7.80890       -0.67640       -3.10220
H          8.75110       -1.26940       -7.85650
H         10.28280       -0.41440       -7.57770
H          8.76500        0.50980       -7.61910
H          6.65550       -0.47940       -7.21730
H          4.31490       -0.35160       -6.55750
H          2.52680       -5.93710       -1.16370
H          1.28370       -7.15860       -0.93900
H          1.73040       -4.76820        0.92020
H          0.51810       -6.02830        1.15000
H          2.23570       -6.42560        1.25710
H          0.57430       -5.41710       -4.25970
H         -0.54130       -6.60630       -3.60100
H         -2.33160       -4.84930       -3.47920
H         -1.75130       -5.04510       -5.13220
H         -1.21240       -3.67210       -4.16420
H          2.43560       -2.45740       -2.67870
H         -2.42440       -6.35710        0.04500
H         -5.53200      -10.08200        7.05710
H         -6.67060       -9.26280        5.96070
H         -6.83280       -8.41690        8.30690
H         -6.40110       -7.14870        7.16560
H         -5.15960       -7.85580        8.21280
H         -0.80950       -8.49310        3.25650
H         -0.56060       -9.51620        4.69390
H         -0.30360       -7.42150        6.07220
H          0.90070       -7.52410        4.78160
H         -0.49550       -6.46140        4.59700
H         -7.81850       -5.52000        4.32340
H        -10.20500       -1.65450        0.03940
H        -12.76500       -3.28240        4.09840
H        -14.92760       -2.35140        1.61180
H        -14.88410       -0.43560        3.46190
H        -16.65550        0.21190        1.63190
H        -15.34950        1.08050       -0.51240
H        -12.77480        0.97030       -0.00250
H        -12.45080        0.27830        2.57410
H        -13.59530        1.63130        2.42570
H        -13.64260       -1.50100       -0.48860
