
  xtb     02072222563D
 energy: -333.185052249210 gnorm: 0.000482584774 xtb: 6.4.1 (unknown)
199216  0     0  0            999 V2000
   -0.9236    5.8531    2.9043 C   0  0  0  0  0  0  0  0  0  0  0  0
    0.0258    6.6113    3.5483 C   0  0  0  0  0  0  0  0  0  0  0  0
    1.4474    6.2953    3.7078 C   0  0  0  0  0  0  0  0  0  0  0  0
    2.0026    5.2250    3.5146 O   0  0  0  0  0  0  0  0  0  0  0  0
    2.0972    7.5437    4.1505 C   0  0  0  0  0  0  0  0  0  0  0  0
    3.4528    7.7526    4.3936 C   0  0  0  0  0  0  0  0  0  0  0  0
    3.7603    9.0306    4.7962 C   0  0  0  0  0  0  0  0  0  0  0  0
    2.7918   10.0299    4.9526 C   0  0  0  0  0  0  0  0  0  0  0  0
    1.4502    9.8373    4.7202 C   0  0  0  0  0  0  0  0  0  0  0  0
    1.1178    8.5463    4.3020 C   0  0  0  0  0  0  0  0  0  0  0  0
   -0.1864    7.9709    3.9840 C   0  0  0  0  0  0  0  0  0  0  0  0
   -1.3927    8.6185    4.1021 C   0  0  0  0  0  0  0  0  0  0  0  0
   -1.5478    9.9903    4.3786 C   0  0  0  0  0  0  0  0  0  0  0  0
   -1.7724   11.1037    4.5535 N   0  0  0  0  0  0  0  0  0  0  0  0
   -2.6562    8.0095    3.9884 C   0  0  0  0  0  0  0  0  0  0  0  0
   -3.7283    7.5943    3.9550 N   0  0  0  0  0  0  0  0  0  0  0  0
    3.8082   11.0620    5.3736 C   0  0  0  0  0  0  0  0  0  0  0  0
    4.2141   12.1035    4.3095 C   0  0  0  0  0  0  0  0  0  0  0  0
    5.5265   12.6513    4.8219 C   0  0  0  0  0  0  0  0  0  0  0  0
    6.4446   11.7050    4.6725 C   0  0  0  0  0  0  0  0  0  0  0  0
    5.7681   10.5016    4.0565 C   0  0  0  0  0  0  0  0  0  0  0  0
    4.7276   11.2059    3.1762 C   0  0  0  0  0  0  0  0  0  0  0  0
    4.8891    9.9474    5.1979 C   0  0  0  0  0  0  0  0  0  0  0  0
   -0.8376    4.5869    2.3250 C   0  0  0  0  0  0  0  0  0  0  0  0
   -1.8436    4.0300    1.4939 C   0  0  0  0  0  0  0  0  0  0  0  0
   -2.9477    4.7062    1.0310 N   0  0  0  0  0  0  0  0  0  0  0  0
   -4.1824    4.0477    0.9383 C   0  0  0  0  0  0  0  0  0  0  0  0
   -5.1084    4.4153   -0.0393 C   0  0  0  0  0  0  0  0  0  0  0  0
   -6.3581    3.8409   -0.0621 C   0  0  0  0  0  0  0  0  0  0  0  0
   -6.7058    2.8620    0.8684 C   0  0  0  0  0  0  0  0  0  0  0  0
   -8.3472    2.2308    0.7649 S   0  0  0  0  0  0  0  0  0  0  0  0
   -8.4645    1.0869    2.1716 C   0  0  0  0  0  0  0  0  0  0  0  0
   -5.7711    2.4592    1.8118 C   0  0  0  0  0  0  0  0  0  0  0  0
   -4.5275    3.0571    1.8531 C   0  0  0  0  0  0  0  0  0  0  0  0
   -2.8692    6.0785    0.7239 C   0  0  0  0  0  0  0  0  0  0  0  0
   -1.7348    6.5833    0.0839 C   0  0  0  0  0  0  0  0  0  0  0  0
   -1.5936    7.9381   -0.1055 C   0  0  0  0  0  0  0  0  0  0  0  0
   -2.5895    8.8193    0.3184 C   0  0  0  0  0  0  0  0  0  0  0  0
   -2.2687   10.5401    0.1062 S   0  0  0  0  0  0  0  0  0  0  0  0
   -3.5250   11.3427    1.1404 C   0  0  0  0  0  0  0  0  0  0  0  0
   -3.7559    8.3116    0.8735 C   0  0  0  0  0  0  0  0  0  0  0  0
   -3.8921    6.9523    1.0808 C   0  0  0  0  0  0  0  0  0  0  0  0
   -1.5443    2.6957    1.1710 C   0  0  0  0  0  0  0  0  0  0  0  0
   -2.3032    1.4724    0.1899 S   0  0  0  0  0  0  0  0  0  0  0  0
   -0.9712    0.3671    0.5094 C   0  0  0  0  0  0  0  0  0  0  0  0
   -0.0550    0.9092    1.4008 C   0  0  0  0  0  0  0  0  0  0  0  0
    0.9736    0.1743    1.9805 N   0  0  0  0  0  0  0  0  0  0  0  0
    0.6683   -1.0752    2.5294 C   0  0  0  0  0  0  0  0  0  0  0  0
   -0.5968   -1.3326    3.0523 C   0  0  0  0  0  0  0  0  0  0  0  0
   -0.9273   -2.5892    3.5192 C   0  0  0  0  0  0  0  0  0  0  0  0
    0.0050   -3.6174    3.4696 C   0  0  0  0  0  0  0  0  0  0  0  0
   -0.3448   -5.2816    3.9520 S   0  0  0  0  0  0  0  0  0  0  0  0
   -1.9072   -5.1475    4.8690 C   0  0  0  0  0  0  0  0  0  0  0  0
    1.2821   -3.3557    2.9781 C   0  0  0  0  0  0  0  0  0  0  0  0
    1.6124   -2.1003    2.5187 C   0  0  0  0  0  0  0  0  0  0  0  0
    2.2112    0.8000    2.1380 C   0  0  0  0  0  0  0  0  0  0  0  0
    2.9719    0.6333    3.2930 C   0  0  0  0  0  0  0  0  0  0  0  0
    4.1284    1.3633    3.4666 C   0  0  0  0  0  0  0  0  0  0  0  0
    4.5273    2.2744    2.5002 C   0  0  0  0  0  0  0  0  0  0  0  0
    5.9428    3.3173    2.7764 S   0  0  0  0  0  0  0  0  0  0  0  0
    5.3129    4.2174    4.2273 C   0  0  0  0  0  0  0  0  0  0  0  0
    3.8076    2.4029    1.3230 C   0  0  0  0  0  0  0  0  0  0  0  0
    2.6603    1.6619    1.1380 C   0  0  0  0  0  0  0  0  0  0  0  0
   -0.3579    2.2432    1.7369 C   0  0  0  0  0  0  0  0  0  0  0  0
    0.4859    3.4596    2.6193 S   0  0  0  0  0  0  0  0  0  0  0  0
   -0.7420   -0.8879   -0.1382 C   0  0  0  0  0  0  0  0  0  0  0  0
   -1.5615   -1.9592   -0.4478 C   0  0  0  0  0  0  0  0  0  0  0  0
   -2.9366   -2.0367   -0.2543 N   0  0  0  0  0  0  0  0  0  0  0  0
   -3.7723   -1.0603   -0.8138 C   0  0  0  0  0  0  0  0  0  0  0  0
   -5.0484   -0.8512   -0.2891 C   0  0  0  0  0  0  0  0  0  0  0  0
   -5.8980    0.0587   -0.8752 C   0  0  0  0  0  0  0  0  0  0  0  0
   -5.4884    0.8003   -1.9815 C   0  0  0  0  0  0  0  0  0  0  0  0
   -6.6668    1.9035   -2.6909 S   0  0  0  0  0  0  0  0  0  0  0  0
   -5.6279    3.0649   -3.6250 C   0  0  0  0  0  0  0  0  0  0  0  0
   -4.2156    0.6088   -2.4968 C   0  0  0  0  0  0  0  0  0  0  0  0
   -3.3684   -0.3176   -1.9205 C   0  0  0  0  0  0  0  0  0  0  0  0
   -3.4457   -3.3147    0.0382 C   0  0  0  0  0  0  0  0  0  0  0  0
   -2.7750   -4.1058    0.9715 C   0  0  0  0  0  0  0  0  0  0  0  0
   -3.1601   -5.4116    1.1900 C   0  0  0  0  0  0  0  0  0  0  0  0
   -4.2268   -5.9463    0.4822 C   0  0  0  0  0  0  0  0  0  0  0  0
   -4.6963   -7.6479    0.6835 S   0  0  0  0  0  0  0  0  0  0  0  0
   -3.1098   -8.4556    0.3010 C   0  0  0  0  0  0  0  0  0  0  0  0
   -4.9409   -5.1448   -0.3976 C   0  0  0  0  0  0  0  0  0  0  0  0
   -4.5535   -3.8402   -0.6244 C   0  0  0  0  0  0  0  0  0  0  0  0
   -0.8127   -3.0279   -1.0051 C   0  0  0  0  0  0  0  0  0  0  0  0
   -1.2352   -4.5998   -1.5758 S   0  0  0  0  0  0  0  0  0  0  0  0
    0.4265   -4.8974   -2.0776 C   0  0  0  0  0  0  0  0  0  0  0  0
    1.2481   -3.7889   -1.8642 C   0  0  0  0  0  0  0  0  0  0  0  0
    2.5569   -3.6184   -2.2636 N   0  0  0  0  0  0  0  0  0  0  0  0
    3.0574   -4.1158   -3.4664 C   0  0  0  0  0  0  0  0  0  0  0  0
    2.2210   -4.3523   -4.5561 C   0  0  0  0  0  0  0  0  0  0  0  0
    2.7004   -4.9747   -5.6913 C   0  0  0  0  0  0  0  0  0  0  0  0
    4.0304   -5.3648   -5.7631 C   0  0  0  0  0  0  0  0  0  0  0  0
    4.7139   -6.2526   -7.1288 S   0  0  0  0  0  0  0  0  0  0  0  0
    3.2596   -7.0526   -7.8666 C   0  0  0  0  0  0  0  0  0  0  0  0
    4.8905   -5.0506   -4.7135 C   0  0  0  0  0  0  0  0  0  0  0  0
    4.4137   -4.4352   -3.5789 C   0  0  0  0  0  0  0  0  0  0  0  0
    3.4114   -2.8886   -1.4048 C   0  0  0  0  0  0  0  0  0  0  0  0
    3.5929   -3.3132   -0.0910 C   0  0  0  0  0  0  0  0  0  0  0  0
    4.4508   -2.6282    0.7406 C   0  0  0  0  0  0  0  0  0  0  0  0
    5.1190   -1.4897    0.2893 C   0  0  0  0  0  0  0  0  0  0  0  0
    6.1642   -0.6900    1.4583 S   0  0  0  0  0  0  0  0  0  0  0  0
    6.9092    0.6744    0.5293 C   0  0  0  0  0  0  0  0  0  0  0  0
    4.9323   -1.0642   -1.0205 C   0  0  0  0  0  0  0  0  0  0  0  0
    4.0927   -1.7670   -1.8629 C   0  0  0  0  0  0  0  0  0  0  0  0
    0.5301   -2.7620   -1.1985 C   0  0  0  0  0  0  0  0  0  0  0  0
    0.9348   -1.1819   -0.6345 S   0  0  0  0  0  0  0  0  0  0  0  0
    0.6804   -6.1793   -2.6298 C   0  0  0  0  0  0  0  0  0  0  0  0
    1.8662   -6.7950   -2.9814 C   0  0  0  0  0  0  0  0  0  0  0  0
    1.6770   -8.0353   -3.5957 C   0  0  0  0  0  0  0  0  0  0  0  0
    2.8078   -8.7695   -4.1820 C   0  0  0  0  0  0  0  0  0  0  0  0
    2.7343   -9.7208   -4.9240 O   0  0  0  0  0  0  0  0  0  0  0  0
    3.9891   -8.2347   -3.8418 O   0  0  0  0  0  0  0  0  0  0  0  0
    0.3310   -8.4396   -3.6514 C   0  0  0  0  0  0  0  0  0  0  0  0
   -0.6808   -7.2173   -2.9416 S   0  0  0  0  0  0  0  0  0  0  0  0
   -0.1125   -9.6526   -4.2132 C   0  0  0  0  0  0  0  0  0  0  0  0
   -1.3562  -10.2251   -4.2473 C   0  0  0  0  0  0  0  0  0  0  0  0
   -1.4983  -11.4602   -4.9169 C   0  0  0  0  0  0  0  0  0  0  0  0
   -1.6081  -12.4597   -5.4686 N   0  0  0  0  0  0  0  0  0  0  0  0
   -2.5726   -9.7010   -3.6177 C   0  0  0  0  0  0  0  0  0  0  0  0
   -2.6406   -8.6573   -2.9958 O   0  0  0  0  0  0  0  0  0  0  0  0
   -3.6085  -10.5215   -3.7774 O   0  0  0  0  0  0  0  0  0  0  0  0
   -4.8514  -10.1258   -3.1936 C   0  0  0  0  0  0  0  0  0  0  0  0
   -5.5586   -9.0710   -4.0318 C   0  0  0  0  0  0  0  0  0  0  0  0
   -1.8900    6.3251    2.7872 H   0  0  0  0  0  0  0  0  0  0  0  0
    4.1712    6.9583    4.2684 H   0  0  0  0  0  0  0  0  0  0  0  0
    0.7137   10.6133    4.8475 H   0  0  0  0  0  0  0  0  0  0  0  0
    3.6631   11.4961    6.3610 H   0  0  0  0  0  0  0  0  0  0  0  0
    3.4426   12.8283    4.0648 H   0  0  0  0  0  0  0  0  0  0  0  0
    5.6366   13.6183    5.2764 H   0  0  0  0  0  0  0  0  0  0  0  0
    7.4746   11.7238    4.9771 H   0  0  0  0  0  0  0  0  0  0  0  0
    6.4133    9.7679    3.5805 H   0  0  0  0  0  0  0  0  0  0  0  0
    5.1882   11.7797    2.3738 H   0  0  0  0  0  0  0  0  0  0  0  0
    3.9732   10.5403    2.7610 H   0  0  0  0  0  0  0  0  0  0  0  0
    5.4656    9.6395    6.0684 H   0  0  0  0  0  0  0  0  0  0  0  0
   -4.8470    5.1717   -0.7644 H   0  0  0  0  0  0  0  0  0  0  0  0
   -7.0857    4.1428   -0.7987 H   0  0  0  0  0  0  0  0  0  0  0  0
   -8.2919    1.6231    3.1000 H   0  0  0  0  0  0  0  0  0  0  0  0
   -7.7610    0.2678    2.0510 H   0  0  0  0  0  0  0  0  0  0  0  0
   -9.4804    0.7045    2.1510 H   0  0  0  0  0  0  0  0  0  0  0  0
   -6.0036    1.6992    2.5395 H   0  0  0  0  0  0  0  0  0  0  0  0
   -3.8277    2.7721    2.6244 H   0  0  0  0  0  0  0  0  0  0  0  0
   -0.9538    5.9074   -0.2314 H   0  0  0  0  0  0  0  0  0  0  0  0
   -0.7075    8.3353   -0.5762 H   0  0  0  0  0  0  0  0  0  0  0  0
   -3.4885   10.9341    2.1461 H   0  0  0  0  0  0  0  0  0  0  0  0
   -4.5100   11.2250    0.6981 H   0  0  0  0  0  0  0  0  0  0  0  0
   -3.2548   12.3938    1.1623 H   0  0  0  0  0  0  0  0  0  0  0  0
   -4.5564    8.9634    1.1815 H   0  0  0  0  0  0  0  0  0  0  0  0
   -4.7819    6.5738    1.5585 H   0  0  0  0  0  0  0  0  0  0  0  0
   -1.3345   -0.5448    3.0912 H   0  0  0  0  0  0  0  0  0  0  0  0
   -1.9170   -2.7521    3.9154 H   0  0  0  0  0  0  0  0  0  0  0  0
   -2.7205   -4.8798    4.2000 H   0  0  0  0  0  0  0  0  0  0  0  0
   -1.7984   -4.4222    5.6699 H   0  0  0  0  0  0  0  0  0  0  0  0
   -2.0859   -6.1338    5.2862 H   0  0  0  0  0  0  0  0  0  0  0  0
    2.0080   -4.1538    2.9521 H   0  0  0  0  0  0  0  0  0  0  0  0
    2.5965   -1.9006    2.1272 H   0  0  0  0  0  0  0  0  0  0  0  0
    2.6394   -0.0486    4.0611 H   0  0  0  0  0  0  0  0  0  0  0  0
    4.7127    1.2406    4.3655 H   0  0  0  0  0  0  0  0  0  0  0  0
    5.9702    5.0693    4.3721 H   0  0  0  0  0  0  0  0  0  0  0  0
    4.2955    4.5367    4.0173 H   0  0  0  0  0  0  0  0  0  0  0  0
    5.3400    3.5759    5.1033 H   0  0  0  0  0  0  0  0  0  0  0  0
    4.1394    3.0984    0.5668 H   0  0  0  0  0  0  0  0  0  0  0  0
    2.0892    1.7585    0.2261 H   0  0  0  0  0  0  0  0  0  0  0  0
   -5.3671   -1.4213    0.5709 H   0  0  0  0  0  0  0  0  0  0  0  0
   -6.8962    0.2041   -0.4946 H   0  0  0  0  0  0  0  0  0  0  0  0
   -5.2592    2.6001   -4.5348 H   0  0  0  0  0  0  0  0  0  0  0  0
   -4.8117    3.4007   -2.9925 H   0  0  0  0  0  0  0  0  0  0  0  0
   -6.2723    3.9006   -3.8793 H   0  0  0  0  0  0  0  0  0  0  0  0
   -3.8772    1.1563   -3.3615 H   0  0  0  0  0  0  0  0  0  0  0  0
   -2.3915   -0.4828   -2.3504 H   0  0  0  0  0  0  0  0  0  0  0  0
   -1.9290   -3.6935    1.5015 H   0  0  0  0  0  0  0  0  0  0  0  0
   -2.6164   -6.0176    1.8987 H   0  0  0  0  0  0  0  0  0  0  0  0
   -2.3447   -8.1324    0.9994 H   0  0  0  0  0  0  0  0  0  0  0  0
   -3.2801   -9.5224    0.4088 H   0  0  0  0  0  0  0  0  0  0  0  0
   -2.8278   -8.2165   -0.7208 H   0  0  0  0  0  0  0  0  0  0  0  0
   -5.7812   -5.5623   -0.9300 H   0  0  0  0  0  0  0  0  0  0  0  0
   -5.0841   -3.2400   -1.3478 H   0  0  0  0  0  0  0  0  0  0  0  0
    1.1834   -4.0588   -4.5106 H   0  0  0  0  0  0  0  0  0  0  0  0
    2.0242   -5.1581   -6.5110 H   0  0  0  0  0  0  0  0  0  0  0  0
    2.6863   -7.5525   -7.0912 H   0  0  0  0  0  0  0  0  0  0  0  0
    3.6498   -7.7846   -8.5668 H   0  0  0  0  0  0  0  0  0  0  0  0
    2.6532   -6.3255   -8.3987 H   0  0  0  0  0  0  0  0  0  0  0  0
    5.9315   -5.3239   -4.7874 H   0  0  0  0  0  0  0  0  0  0  0  0
    5.0808   -4.2341   -2.7545 H   0  0  0  0  0  0  0  0  0  0  0  0
    3.0669   -4.1879    0.2622 H   0  0  0  0  0  0  0  0  0  0  0  0
    4.6309   -2.9721    1.7480 H   0  0  0  0  0  0  0  0  0  0  0  0
    7.5106    0.2831   -0.2860 H   0  0  0  0  0  0  0  0  0  0  0  0
    6.1325    1.3437    0.1729 H   0  0  0  0  0  0  0  0  0  0  0  0
    7.5380    1.2021    1.2396 H   0  0  0  0  0  0  0  0  0  0  0  0
    5.4370   -0.1897   -1.3967 H   0  0  0  0  0  0  0  0  0  0  0  0
    3.9593   -1.4456   -2.8852 H   0  0  0  0  0  0  0  0  0  0  0  0
    2.8442   -6.3921   -2.8079 H   0  0  0  0  0  0  0  0  0  0  0  0
    4.7058   -8.7173   -4.2839 H   0  0  0  0  0  0  0  0  0  0  0  0
    0.6791  -10.2167   -4.6968 H   0  0  0  0  0  0  0  0  0  0  0  0
   -5.4349  -11.0465   -3.1429 H   0  0  0  0  0  0  0  0  0  0  0  0
   -4.6680   -9.7433   -2.1841 H   0  0  0  0  0  0  0  0  0  0  0  0
   -4.9705   -8.1566   -4.0562 H   0  0  0  0  0  0  0  0  0  0  0  0
   -6.5276   -8.8532   -3.5922 H   0  0  0  0  0  0  0  0  0  0  0  0
   -5.6999   -9.4309   -5.0481 H   0  0  0  0  0  0  0  0  0  0  0  0
  1  2  2  0  0  0  0
  2  3  1  0  0  0  0
  3  4  2  0  0  0  0
  3  5  1  0  0  0  0
  5  6  2  0  0  0  0
  6  7  1  0  0  0  0
  7  8  2  0  0  0  0
  8  9  1  0  0  0  0
  9 10  2  0  0  0  0
 10 11  1  0  0  0  0
 11 12  2  0  0  0  0
 12 13  1  0  0  0  0
 13 14  3  0  0  0  0
 12 15  1  0  0  0  0
 15 16  3  0  0  0  0
  8 17  1  0  0  0  0
 17 18  1  0  0  0  0
 18 19  1  0  0  0  0
 19 20  2  0  0  0  0
 20 21  1  0  0  0  0
 21 22  1  0  0  0  0
 21 23  1  0  0  0  0
  1 24  1  0  0  0  0
 24 25  2  0  0  0  0
 25 26  1  0  0  0  0
 26 27  1  0  0  0  0
 27 28  2  0  0  0  0
 28 29  1  0  0  0  0
 29 30  2  0  0  0  0
 30 31  1  0  0  0  0
 31 32  1  0  0  0  0
 30 33  1  0  0  0  0
 33 34  2  0  0  0  0
 26 35  1  0  0  0  0
 35 36  2  0  0  0  0
 36 37  1  0  0  0  0
 37 38  2  0  0  0  0
 38 39  1  0  0  0  0
 39 40  1  0  0  0  0
 38 41  1  0  0  0  0
 41 42  2  0  0  0  0
 25 43  1  0  0  0  0
 43 44  1  0  0  0  0
 44 45  1  0  0  0  0
 45 46  2  0  0  0  0
 46 47  1  0  0  0  0
 47 48  1  0  0  0  0
 48 49  2  0  0  0  0
 49 50  1  0  0  0  0
 50 51  2  0  0  0  0
 51 52  1  0  0  0  0
 52 53  1  0  0  0  0
 51 54  1  0  0  0  0
 54 55  2  0  0  0  0
 47 56  1  0  0  0  0
 56 57  2  0  0  0  0
 57 58  1  0  0  0  0
 58 59  2  0  0  0  0
 59 60  1  0  0  0  0
 60 61  1  0  0  0  0
 59 62  1  0  0  0  0
 62 63  2  0  0  0  0
 46 64  1  0  0  0  0
 64 65  1  0  0  0  0
 45 66  1  0  0  0  0
 66 67  2  0  0  0  0
 67 68  1  0  0  0  0
 68 69  1  0  0  0  0
 69 70  2  0  0  0  0
 70 71  1  0  0  0  0
 71 72  2  0  0  0  0
 72 73  1  0  0  0  0
 73 74  1  0  0  0  0
 72 75  1  0  0  0  0
 75 76  2  0  0  0  0
 68 77  1  0  0  0  0
 77 78  2  0  0  0  0
 78 79  1  0  0  0  0
 79 80  2  0  0  0  0
 80 81  1  0  0  0  0
 81 82  1  0  0  0  0
 80 83  1  0  0  0  0
 83 84  2  0  0  0  0
 67 85  1  0  0  0  0
 85 86  1  0  0  0  0
 86 87  1  0  0  0  0
 87 88  2  0  0  0  0
 88 89  1  0  0  0  0
 89 90  1  0  0  0  0
 90 91  2  0  0  0  0
 91 92  1  0  0  0  0
 92 93  2  0  0  0  0
 93 94  1  0  0  0  0
 94 95  1  0  0  0  0
 93 96  1  0  0  0  0
 96 97  2  0  0  0  0
 89 98  1  0  0  0  0
 98 99  2  0  0  0  0
 99100  1  0  0  0  0
100101  2  0  0  0  0
101102  1  0  0  0  0
102103  1  0  0  0  0
101104  1  0  0  0  0
104105  2  0  0  0  0
 88106  1  0  0  0  0
106107  1  0  0  0  0
 87108  1  0  0  0  0
108109  2  0  0  0  0
109110  1  0  0  0  0
110111  1  0  0  0  0
111112  2  0  0  0  0
111113  1  0  0  0  0
110114  2  0  0  0  0
114115  1  0  0  0  0
114116  1  0  0  0  0
116117  2  0  0  0  0
117118  1  0  0  0  0
118119  3  0  0  0  0
117120  1  0  0  0  0
120121  2  0  0  0  0
120122  1  0  0  0  0
122123  1  0  0  0  0
123124  1  0  0  0  0
 11  2  1  0  0  0  0
 23 17  1  0  0  0  0
 65 24  1  0  0  0  0
107 66  1  0  0  0  0
115108  1  0  0  0  0
 10  5  1  0  0  0  0
 22 18  1  0  0  0  0
 34 27  1  0  0  0  0
 42 35  1  0  0  0  0
 64 43  2  0  0  0  0
 76 69  1  0  0  0  0
 84 77  1  0  0  0  0
106 85  2  0  0  0  0
 23  7  1  0  0  0  0
 55 48  1  0  0  0  0
 63 56  1  0  0  0  0
 97 90  1  0  0  0  0
105 98  1  0  0  0  0
  1125  1  0  0  0  0
  6126  1  0  0  0  0
  9127  1  0  0  0  0
 17128  1  0  0  0  0
 18129  1  0  0  0  0
 19130  1  0  0  0  0
 20131  1  0  0  0  0
 21132  1  0  0  0  0
 22133  1  0  0  0  0
 22134  1  0  0  0  0
 23135  1  0  0  0  0
 28136  1  0  0  0  0
 29137  1  0  0  0  0
 32138  1  0  0  0  0
 32139  1  0  0  0  0
 32140  1  0  0  0  0
 33141  1  0  0  0  0
 34142  1  0  0  0  0
 36143  1  0  0  0  0
 37144  1  0  0  0  0
 40145  1  0  0  0  0
 40146  1  0  0  0  0
 40147  1  0  0  0  0
 41148  1  0  0  0  0
 42149  1  0  0  0  0
 49150  1  0  0  0  0
 50151  1  0  0  0  0
 53152  1  0  0  0  0
 53153  1  0  0  0  0
 53154  1  0  0  0  0
 54155  1  0  0  0  0
 55156  1  0  0  0  0
 57157  1  0  0  0  0
 58158  1  0  0  0  0
 61159  1  0  0  0  0
 61160  1  0  0  0  0
 61161  1  0  0  0  0
 62162  1  0  0  0  0
 63163  1  0  0  0  0
 70164  1  0  0  0  0
 71165  1  0  0  0  0
 74166  1  0  0  0  0
 74167  1  0  0  0  0
 74168  1  0  0  0  0
 75169  1  0  0  0  0
 76170  1  0  0  0  0
 78171  1  0  0  0  0
 79172  1  0  0  0  0
 82173  1  0  0  0  0
 82174  1  0  0  0  0
 82175  1  0  0  0  0
 83176  1  0  0  0  0
 84177  1  0  0  0  0
 91178  1  0  0  0  0
 92179  1  0  0  0  0
 95180  1  0  0  0  0
 95181  1  0  0  0  0
 95182  1  0  0  0  0
 96183  1  0  0  0  0
 97184  1  0  0  0  0
 99185  1  0  0  0  0
100186  1  0  0  0  0
103187  1  0  0  0  0
103188  1  0  0  0  0
103189  1  0  0  0  0
104190  1  0  0  0  0
105191  1  0  0  0  0
109192  1  0  0  0  0
113193  1  0  0  0  0
116194  1  0  0  0  0
123195  1  0  0  0  0
123196  1  0  0  0  0
124197  1  0  0  0  0
124198  1  0  0  0  0
124199  1  0  0  0  0
M  END
