
  xtb     02052209033D
 energy: -377.020802971804 gnorm: 0.000617264192 xtb: 6.4.1 (unknown)
232254  0     0  0            999 V2000
   -2.2999    6.0998    7.0335 C   0  0  0  0  0  0  0  0  0  0  0  0
   -2.4805    7.1651    6.2112 C   0  0  0  0  0  0  0  0  0  0  0  0
   -2.6555    7.0579    4.7395 C   0  0  0  0  0  0  0  0  0  0  0  0
   -3.0591    6.1058    4.1059 O   0  0  0  0  0  0  0  0  0  0  0  0
   -2.1864    8.3443    4.1989 C   0  0  0  0  0  0  0  0  0  0  0  0
   -1.9958    8.6631    2.8563 C   0  0  0  0  0  0  0  0  0  0  0  0
   -1.5102    9.9315    2.6498 C   0  0  0  0  0  0  0  0  0  0  0  0
   -1.2396   10.8238    3.6977 C   0  0  0  0  0  0  0  0  0  0  0  0
   -1.4323   10.5258    5.0260 C   0  0  0  0  0  0  0  0  0  0  0  0
   -1.9167    9.2355    5.2599 C   0  0  0  0  0  0  0  0  0  0  0  0
   -2.2034    8.5585    6.5174 C   0  0  0  0  0  0  0  0  0  0  0  0
   -2.2916    9.1224    7.7604 C   0  0  0  0  0  0  0  0  0  0  0  0
   -2.7080    8.3979    8.8976 C   0  0  0  0  0  0  0  0  0  0  0  0
   -3.0771    7.8514    9.8373 N   0  0  0  0  0  0  0  0  0  0  0  0
   -2.0514   10.4836    8.0367 C   0  0  0  0  0  0  0  0  0  0  0  0
   -1.8575   11.5799    8.3159 N   0  0  0  0  0  0  0  0  0  0  0  0
   -0.7486   11.8983    2.7601 C   0  0  0  0  0  0  0  0  0  0  0  0
    0.7824   12.1044    2.6439 C   0  0  0  0  0  0  0  0  0  0  0  0
    1.4217   10.7818    2.9900 C   0  0  0  0  0  0  0  0  0  0  0  0
    1.1621    9.9354    2.0026 C   0  0  0  0  0  0  0  0  0  0  0  0
    0.3455   10.6711    0.9695 C   0  0  0  0  0  0  0  0  0  0  0  0
    0.9323   12.0841    1.1141 C   0  0  0  0  0  0  0  0  0  0  0  0
   -1.0518   10.9042    1.5949 C   0  0  0  0  0  0  0  0  0  0  0  0
   -2.4101    4.7296    6.5887 C   0  0  0  0  0  0  0  0  0  0  0  0
   -3.4984    4.2030    5.8664 C   0  0  0  0  0  0  0  0  0  0  0  0
   -4.7574    4.6917    5.9427 O   0  0  0  0  0  0  0  0  0  0  0  0
   -5.1162    5.7583    6.7896 C   0  0  0  0  0  0  0  0  0  0  0  0
   -6.6030    5.6268    7.0874 C   0  0  0  0  0  0  0  0  0  0  0  0
   -3.3130    3.0290    5.0960 C   0  0  0  0  0  0  0  0  0  0  0  0
   -4.2222    2.4184    4.3026 O   0  0  0  0  0  0  0  0  0  0  0  0
   -5.5179    2.9321    4.0347 C   0  0  0  0  0  0  0  0  0  0  0  0
   -5.5163    4.1572    3.1299 C   0  0  0  0  0  0  0  0  0  0  0  0
   -2.0686    2.3786    5.1493 C   0  0  0  0  0  0  0  0  0  0  0  0
   -1.0967    2.7867    6.0703 C   0  0  0  0  0  0  0  0  0  0  0  0
   -1.2634    3.9428    6.7806 C   0  0  0  0  0  0  0  0  0  0  0  0
   -1.7217    1.2955    4.2413 C   0  0  0  0  0  0  0  0  0  0  0  0
   -1.8228    1.2422    2.8729 C   0  0  0  0  0  0  0  0  0  0  0  0
   -2.5395    2.0967    2.0088 N   0  0  0  0  0  0  0  0  0  0  0  0
   -1.8603    3.2186    1.4901 C   0  0  0  0  0  0  0  0  0  0  0  0
   -1.6557    3.3776    0.1221 C   0  0  0  0  0  0  0  0  0  0  0  0
   -1.0283    4.5048   -0.3753 C   0  0  0  0  0  0  0  0  0  0  0  0
   -0.5526    5.4734    0.4973 C   0  0  0  0  0  0  0  0  0  0  0  0
    0.2490    6.9615   -0.0184 S   0  0  0  0  0  0  0  0  0  0  0  0
    0.4802    6.7419   -1.8039 C   0  0  0  0  0  0  0  0  0  0  0  0
   -0.6980    5.2878    1.8702 C   0  0  0  0  0  0  0  0  0  0  0  0
   -1.3469    4.1768    2.3621 C   0  0  0  0  0  0  0  0  0  0  0  0
   -3.7040    1.5775    1.4681 C   0  0  0  0  0  0  0  0  0  0  0  0
   -4.4381    2.2449    0.4816 C   0  0  0  0  0  0  0  0  0  0  0  0
   -5.6206    1.7191    0.0005 C   0  0  0  0  0  0  0  0  0  0  0  0
   -6.1148    0.5233    0.4985 C   0  0  0  0  0  0  0  0  0  0  0  0
   -7.6242   -0.1578   -0.1606 S   0  0  0  0  0  0  0  0  0  0  0  0
   -8.5961   -0.3234    1.3712 C   0  0  0  0  0  0  0  0  0  0  0  0
   -5.4111   -0.1379    1.4929 C   0  0  0  0  0  0  0  0  0  0  0  0
   -4.2293    0.3804    1.9709 C   0  0  0  0  0  0  0  0  0  0  0  0
   -1.1494    0.1096    2.3518 C   0  0  0  0  0  0  0  0  0  0  0  0
   -0.7724   -0.4027    0.7540 S   0  0  0  0  0  0  0  0  0  0  0  0
    0.0798   -1.8184    1.3830 C   0  0  0  0  0  0  0  0  0  0  0  0
    0.0609   -1.8717    2.7656 C   0  0  0  0  0  0  0  0  0  0  0  0
    0.5896   -2.8584    3.5755 N   0  0  0  0  0  0  0  0  0  0  0  0
   -0.0355   -3.0858    4.8169 C   0  0  0  0  0  0  0  0  0  0  0  0
    0.7212   -3.2861    5.9717 C   0  0  0  0  0  0  0  0  0  0  0  0
    0.0986   -3.4978    7.1806 C   0  0  0  0  0  0  0  0  0  0  0  0
   -1.2928   -3.5070    7.2715 C   0  0  0  0  0  0  0  0  0  0  0  0
   -1.9751   -3.7888    8.8739 S   0  0  0  0  0  0  0  0  0  0  0  0
   -3.7566   -3.5305    8.6391 C   0  0  0  0  0  0  0  0  0  0  0  0
   -2.0497   -3.3046    6.1266 C   0  0  0  0  0  0  0  0  0  0  0  0
   -1.4237   -3.0952    4.9134 C   0  0  0  0  0  0  0  0  0  0  0  0
    1.7557   -3.5613    3.2571 C   0  0  0  0  0  0  0  0  0  0  0  0
    1.9159   -4.8714    3.7036 C   0  0  0  0  0  0  0  0  0  0  0  0
    3.0810   -5.5689    3.4601 C   0  0  0  0  0  0  0  0  0  0  0  0
    4.1073   -4.9747    2.7371 C   0  0  0  0  0  0  0  0  0  0  0  0
    5.6196   -5.7843    2.3224 S   0  0  0  0  0  0  0  0  0  0  0  0
    5.5633   -7.3311    3.2696 C   0  0  0  0  0  0  0  0  0  0  0  0
    3.9456   -3.6711    2.2713 C   0  0  0  0  0  0  0  0  0  0  0  0
    2.7908   -2.9671    2.5351 C   0  0  0  0  0  0  0  0  0  0  0  0
   -0.6156   -0.7387    3.3001 C   0  0  0  0  0  0  0  0  0  0  0  0
   -0.8516   -0.0866    4.8877 S   0  0  0  0  0  0  0  0  0  0  0  0
    0.7677   -2.5831    0.3787 C   0  0  0  0  0  0  0  0  0  0  0  0
    0.7199   -3.9194    0.0297 C   0  0  0  0  0  0  0  0  0  0  0  0
   -0.0146   -4.8848    0.7046 N   0  0  0  0  0  0  0  0  0  0  0  0
   -1.3110   -4.5704    1.1333 C   0  0  0  0  0  0  0  0  0  0  0  0
   -1.8337   -5.1301    2.2979 C   0  0  0  0  0  0  0  0  0  0  0  0
   -3.1342   -4.8652    2.6753 C   0  0  0  0  0  0  0  0  0  0  0  0
   -3.9287   -4.0163    1.9127 C   0  0  0  0  0  0  0  0  0  0  0  0
   -5.6016   -3.7343    2.4260 S   0  0  0  0  0  0  0  0  0  0  0  0
   -6.4757   -3.7148    0.8276 C   0  0  0  0  0  0  0  0  0  0  0  0
   -3.3985   -3.4116    0.7813 C   0  0  0  0  0  0  0  0  0  0  0  0
   -2.1079   -3.6994    0.3891 C   0  0  0  0  0  0  0  0  0  0  0  0
    0.4888   -6.1887    0.7721 C   0  0  0  0  0  0  0  0  0  0  0  0
    1.8688   -6.3997    0.7777 C   0  0  0  0  0  0  0  0  0  0  0  0
    2.3829   -7.6745    0.8317 C   0  0  0  0  0  0  0  0  0  0  0  0
    1.5367   -8.7772    0.9018 C   0  0  0  0  0  0  0  0  0  0  0  0
    2.3123  -10.3590    1.0328 S   0  0  0  0  0  0  0  0  0  0  0  0
    0.9523  -11.5326    0.7760 C   0  0  0  0  0  0  0  0  0  0  0  0
    0.1634   -8.5767    0.8844 C   0  0  0  0  0  0  0  0  0  0  0  0
   -0.3528   -7.2977    0.8054 C   0  0  0  0  0  0  0  0  0  0  0  0
    1.4481   -4.1603   -1.1644 C   0  0  0  0  0  0  0  0  0  0  0  0
    1.7428   -5.5629   -2.1230 S   0  0  0  0  0  0  0  0  0  0  0  0
    2.5808   -4.5905   -3.3448 C   0  0  0  0  0  0  0  0  0  0  0  0
    2.7034   -3.2449   -2.9500 C   0  0  0  0  0  0  0  0  0  0  0  0
    3.4367   -2.2593   -3.5525 N   0  0  0  0  0  0  0  0  0  0  0  0
    4.5349   -2.4911   -4.3849 C   0  0  0  0  0  0  0  0  0  0  0  0
    4.7454   -1.6575   -5.4867 C   0  0  0  0  0  0  0  0  0  0  0  0
    5.7779   -1.9082   -6.3607 C   0  0  0  0  0  0  0  0  0  0  0  0
    6.6333   -2.9909   -6.1567 C   0  0  0  0  0  0  0  0  0  0  0  0
    7.8550   -3.2645   -7.3926 S   0  0  0  0  0  0  0  0  0  0  0  0
    8.7794   -4.7096   -6.8029 C   0  0  0  0  0  0  0  0  0  0  0  0
    6.4688   -3.7814   -5.0246 C   0  0  0  0  0  0  0  0  0  0  0  0
    5.4296   -3.5333   -4.1505 C   0  0  0  0  0  0  0  0  0  0  0  0
    3.0786   -0.9194   -3.2785 C   0  0  0  0  0  0  0  0  0  0  0  0
    4.0269   -0.0425   -2.7603 C   0  0  0  0  0  0  0  0  0  0  0  0
    3.6420    1.2227   -2.3640 C   0  0  0  0  0  0  0  0  0  0  0  0
    2.3163    1.6099   -2.4887 C   0  0  0  0  0  0  0  0  0  0  0  0
    1.7895    3.1691   -1.7999 S   0  0  0  0  0  0  0  0  0  0  0  0
    1.8190    2.6636   -0.0527 C   0  0  0  0  0  0  0  0  0  0  0  0
    1.3885    0.7736   -3.0873 C   0  0  0  0  0  0  0  0  0  0  0  0
    1.7689   -0.4939   -3.4831 C   0  0  0  0  0  0  0  0  0  0  0  0
    2.0198   -3.0301   -1.7288 C   0  0  0  0  0  0  0  0  0  0  0  0
    1.7039   -1.6315   -0.7665 S   0  0  0  0  0  0  0  0  0  0  0  0
    3.0248   -5.2607   -4.4898 C   0  0  0  0  0  0  0  0  0  0  0  0
    3.2784   -4.6775   -5.7114 C   0  0  0  0  0  0  0  0  0  0  0  0
    2.6265   -3.4465   -6.1884 C   0  0  0  0  0  0  0  0  0  0  0  0
    1.8093   -2.7661   -5.5944 O   0  0  0  0  0  0  0  0  0  0  0  0
    3.0629   -3.2776   -7.5891 C   0  0  0  0  0  0  0  0  0  0  0  0
    2.7259   -2.2411   -8.4543 C   0  0  0  0  0  0  0  0  0  0  0  0
    3.3205   -2.3288   -9.6908 C   0  0  0  0  0  0  0  0  0  0  0  0
    4.1795   -3.3757  -10.0460 C   0  0  0  0  0  0  0  0  0  0  0  0
    4.5134   -4.4104   -9.2044 C   0  0  0  0  0  0  0  0  0  0  0  0
    3.9227   -4.3361   -7.9411 C   0  0  0  0  0  0  0  0  0  0  0  0
    4.0751   -5.2108   -6.7816 C   0  0  0  0  0  0  0  0  0  0  0  0
    4.9590   -6.2567   -6.6719 C   0  0  0  0  0  0  0  0  0  0  0  0
    5.7865   -6.7212   -7.7103 C   0  0  0  0  0  0  0  0  0  0  0  0
    6.5013   -7.1518   -8.5008 N   0  0  0  0  0  0  0  0  0  0  0  0
    5.2177   -6.9450   -5.4702 C   0  0  0  0  0  0  0  0  0  0  0  0
    5.5258   -7.5122   -4.5195 N   0  0  0  0  0  0  0  0  0  0  0  0
    4.4064   -2.8274  -11.4331 C   0  0  0  0  0  0  0  0  0  0  0  0
    3.6430   -3.5180  -12.5827 C   0  0  0  0  0  0  0  0  0  0  0  0
    3.6733   -2.5007  -13.7004 C   0  0  0  0  0  0  0  0  0  0  0  0
    2.8611   -1.5070  -13.3638 C   0  0  0  0  0  0  0  0  0  0  0  0
    2.2679   -1.8362  -12.0129 C   0  0  0  0  0  0  0  0  0  0  0  0
    2.1866   -3.3640  -12.1255 C   0  0  0  0  0  0  0  0  0  0  0  0
    3.4495   -1.6576  -11.0362 C   0  0  0  0  0  0  0  0  0  0  0  0
   -1.8514    6.2588    8.0078 H   0  0  0  0  0  0  0  0  0  0  0  0
   -2.2087    7.9477    2.0778 H   0  0  0  0  0  0  0  0  0  0  0  0
   -1.2141   11.2145    5.8259 H   0  0  0  0  0  0  0  0  0  0  0  0
   -1.2942   12.8394    2.7851 H   0  0  0  0  0  0  0  0  0  0  0  0
    1.1612   12.9748    3.1731 H   0  0  0  0  0  0  0  0  0  0  0  0
    1.9325   10.5894    3.9156 H   0  0  0  0  0  0  0  0  0  0  0  0
    1.4068    8.8927    1.9284 H   0  0  0  0  0  0  0  0  0  0  0  0
    0.3266   10.2279   -0.0218 H   0  0  0  0  0  0  0  0  0  0  0  0
    0.3469   12.8522    0.6105 H   0  0  0  0  0  0  0  0  0  0  0  0
    1.9710   12.1432    0.7931 H   0  0  0  0  0  0  0  0  0  0  0  0
   -1.7950   11.1946    0.8553 H   0  0  0  0  0  0  0  0  0  0  0  0
   -4.5330    5.7294    7.7205 H   0  0  0  0  0  0  0  0  0  0  0  0
   -4.9178    6.7185    6.2919 H   0  0  0  0  0  0  0  0  0  0  0  0
   -6.8030    4.6861    7.5938 H   0  0  0  0  0  0  0  0  0  0  0  0
   -6.9202    6.4466    7.7249 H   0  0  0  0  0  0  0  0  0  0  0  0
   -7.1706    5.6533    6.1611 H   0  0  0  0  0  0  0  0  0  0  0  0
   -6.0489    3.1387    4.9672 H   0  0  0  0  0  0  0  0  0  0  0  0
   -6.0099    2.0965    3.5258 H   0  0  0  0  0  0  0  0  0  0  0  0
   -5.1403    3.8944    2.1460 H   0  0  0  0  0  0  0  0  0  0  0  0
   -6.5322    4.5307    3.0313 H   0  0  0  0  0  0  0  0  0  0  0  0
   -4.8867    4.9400    3.5396 H   0  0  0  0  0  0  0  0  0  0  0  0
   -0.1857    2.2155    6.1583 H   0  0  0  0  0  0  0  0  0  0  0  0
   -0.4776    4.3137    7.4202 H   0  0  0  0  0  0  0  0  0  0  0  0
   -1.9823    2.6094   -0.5630 H   0  0  0  0  0  0  0  0  0  0  0  0
   -0.8987    4.6021   -1.4405 H   0  0  0  0  0  0  0  0  0  0  0  0
   -0.4824    6.7445   -2.3071 H   0  0  0  0  0  0  0  0  0  0  0  0
    1.0239    5.8208   -1.9932 H   0  0  0  0  0  0  0  0  0  0  0  0
    1.0685    7.5941   -2.1299 H   0  0  0  0  0  0  0  0  0  0  0  0
   -0.3080    6.0324    2.5482 H   0  0  0  0  0  0  0  0  0  0  0  0
   -1.4719    4.0581    3.4254 H   0  0  0  0  0  0  0  0  0  0  0  0
   -4.0949    3.1927    0.0968 H   0  0  0  0  0  0  0  0  0  0  0  0
   -6.1715    2.2430   -0.7658 H   0  0  0  0  0  0  0  0  0  0  0  0
   -8.6714    0.6483    1.8505 H   0  0  0  0  0  0  0  0  0  0  0  0
   -9.5794   -0.6718    1.0728 H   0  0  0  0  0  0  0  0  0  0  0  0
   -8.1315   -1.0440    2.0372 H   0  0  0  0  0  0  0  0  0  0  0  0
   -5.7853   -1.0568    1.9163 H   0  0  0  0  0  0  0  0  0  0  0  0
   -3.7247   -0.1492    2.7623 H   0  0  0  0  0  0  0  0  0  0  0  0
    1.7991   -3.2670    5.9148 H   0  0  0  0  0  0  0  0  0  0  0  0
    0.6830   -3.6479    8.0752 H   0  0  0  0  0  0  0  0  0  0  0  0
   -4.1967   -3.6172    9.6277 H   0  0  0  0  0  0  0  0  0  0  0  0
   -3.9342   -2.5361    8.2404 H   0  0  0  0  0  0  0  0  0  0  0  0
   -4.1647   -4.2972    7.9870 H   0  0  0  0  0  0  0  0  0  0  0  0
   -3.1271   -3.3090    6.1564 H   0  0  0  0  0  0  0  0  0  0  0  0
   -2.0231   -2.9412    4.0292 H   0  0  0  0  0  0  0  0  0  0  0  0
    1.1195   -5.3465    4.2565 H   0  0  0  0  0  0  0  0  0  0  0  0
    3.1667   -6.5797    3.8232 H   0  0  0  0  0  0  0  0  0  0  0  0
    5.4462   -7.1096    4.3263 H   0  0  0  0  0  0  0  0  0  0  0  0
    4.7622   -7.9696    2.9080 H   0  0  0  0  0  0  0  0  0  0  0  0
    6.5212   -7.8119    3.0963 H   0  0  0  0  0  0  0  0  0  0  0  0
    4.7456   -3.2113    1.7109 H   0  0  0  0  0  0  0  0  0  0  0  0
    2.6996   -1.9440    2.2036 H   0  0  0  0  0  0  0  0  0  0  0  0
   -1.2191   -5.7831    2.8987 H   0  0  0  0  0  0  0  0  0  0  0  0
   -3.5425   -5.3139    3.5680 H   0  0  0  0  0  0  0  0  0  0  0  0
   -6.3526   -2.7606    0.3231 H   0  0  0  0  0  0  0  0  0  0  0  0
   -7.5247   -3.8742    1.0574 H   0  0  0  0  0  0  0  0  0  0  0  0
   -6.1011   -4.5276    0.2136 H   0  0  0  0  0  0  0  0  0  0  0  0
   -3.9904   -2.7259    0.1953 H   0  0  0  0  0  0  0  0  0  0  0  0
   -1.7194   -3.2549   -0.5148 H   0  0  0  0  0  0  0  0  0  0  0  0
    2.5400   -5.5573    0.7410 H   0  0  0  0  0  0  0  0  0  0  0  0
    3.4507   -7.8277    0.8145 H   0  0  0  0  0  0  0  0  0  0  0  0
    0.2573  -11.4925    1.6099 H   0  0  0  0  0  0  0  0  0  0  0  0
    0.4554  -11.3151   -0.1647 H   0  0  0  0  0  0  0  0  0  0  0  0
    1.4160  -12.5131    0.7319 H   0  0  0  0  0  0  0  0  0  0  0  0
   -0.5213   -9.4088    0.9211 H   0  0  0  0  0  0  0  0  0  0  0  0
   -1.4232   -7.1637    0.7642 H   0  0  0  0  0  0  0  0  0  0  0  0
    4.0743   -0.8304   -5.6618 H   0  0  0  0  0  0  0  0  0  0  0  0
    5.9224   -1.2832   -7.2283 H   0  0  0  0  0  0  0  0  0  0  0  0
    8.1288   -5.5775   -6.7510 H   0  0  0  0  0  0  0  0  0  0  0  0
    9.5512   -4.8802   -7.5469 H   0  0  0  0  0  0  0  0  0  0  0  0
    9.2341   -4.4928   -5.8409 H   0  0  0  0  0  0  0  0  0  0  0  0
    7.1334   -4.6043   -4.8161 H   0  0  0  0  0  0  0  0  0  0  0  0
    5.3108   -4.1631   -3.2817 H   0  0  0  0  0  0  0  0  0  0  0  0
    5.0500   -0.3680   -2.6432 H   0  0  0  0  0  0  0  0  0  0  0  0
    4.3627    1.9023   -1.9347 H   0  0  0  0  0  0  0  0  0  0  0  0
    1.5369    3.5301    0.5358 H   0  0  0  0  0  0  0  0  0  0  0  0
    1.0999    1.8619    0.0940 H   0  0  0  0  0  0  0  0  0  0  0  0
    2.8202    2.3350    0.2098 H   0  0  0  0  0  0  0  0  0  0  0  0
    0.3707    1.1074   -3.2156 H   0  0  0  0  0  0  0  0  0  0  0  0
    1.0658   -1.1718   -3.9411 H   0  0  0  0  0  0  0  0  0  0  0  0
    3.1427   -6.3332   -4.3890 H   0  0  0  0  0  0  0  0  0  0  0  0
    2.0647   -1.4482   -8.1404 H   0  0  0  0  0  0  0  0  0  0  0  0
    5.1753   -5.2109   -9.4903 H   0  0  0  0  0  0  0  0  0  0  0  0
    5.4386   -2.5932  -11.6860 H   0  0  0  0  0  0  0  0  0  0  0  0
    3.9900   -4.5193  -12.8226 H   0  0  0  0  0  0  0  0  0  0  0  0
    4.3044   -2.5792  -14.5662 H   0  0  0  0  0  0  0  0  0  0  0  0
    2.6782   -0.5895  -13.8920 H   0  0  0  0  0  0  0  0  0  0  0  0
    1.3614   -1.3053  -11.7340 H   0  0  0  0  0  0  0  0  0  0  0  0
    1.4791   -3.6835  -12.8891 H   0  0  0  0  0  0  0  0  0  0  0  0
    1.9610   -3.8661  -11.1865 H   0  0  0  0  0  0  0  0  0  0  0  0
    3.8445   -0.6432  -11.0263 H   0  0  0  0  0  0  0  0  0  0  0  0
  1  2  2  0  0  0  0
  2  3  1  0  0  0  0
  3  4  2  0  0  0  0
  3  5  1  0  0  0  0
  5  6  2  0  0  0  0
  6  7  1  0  0  0  0
  7  8  2  0  0  0  0
  8  9  1  0  0  0  0
  9 10  2  0  0  0  0
 10 11  1  0  0  0  0
 11 12  2  0  0  0  0
 12 13  1  0  0  0  0
 13 14  3  0  0  0  0
 12 15  1  0  0  0  0
 15 16  3  0  0  0  0
  8 17  1  0  0  0  0
 17 18  1  0  0  0  0
 18 19  1  0  0  0  0
 19 20  2  0  0  0  0
 20 21  1  0  0  0  0
 21 22  1  0  0  0  0
 21 23  1  0  0  0  0
  1 24  1  0  0  0  0
 24 25  2  0  0  0  0
 25 26  1  0  0  0  0
 26 27  1  0  0  0  0
 27 28  1  0  0  0  0
 25 29  1  0  0  0  0
 29 30  1  0  0  0  0
 30 31  1  0  0  0  0
 31 32  1  0  0  0  0
 29 33  2  0  0  0  0
 33 34  1  0  0  0  0
 34 35  2  0  0  0  0
 33 36  1  0  0  0  0
 36 37  2  0  0  0  0
 37 38  1  0  0  0  0
 38 39  1  0  0  0  0
 39 40  2  0  0  0  0
 40 41  1  0  0  0  0
 41 42  2  0  0  0  0
 42 43  1  0  0  0  0
 43 44  1  0  0  0  0
 42 45  1  0  0  0  0
 45 46  2  0  0  0  0
 38 47  1  0  0  0  0
 47 48  2  0  0  0  0
 48 49  1  0  0  0  0
 49 50  2  0  0  0  0
 50 51  1  0  0  0  0
 51 52  1  0  0  0  0
 50 53  1  0  0  0  0
 53 54  2  0  0  0  0
 37 55  1  0  0  0  0
 55 56  1  0  0  0  0
 56 57  1  0  0  0  0
 57 58  2  0  0  0  0
 58 59  1  0  0  0  0
 59 60  1  0  0  0  0
 60 61  2  0  0  0  0
 61 62  1  0  0  0  0
 62 63  2  0  0  0  0
 63 64  1  0  0  0  0
 64 65  1  0  0  0  0
 63 66  1  0  0  0  0
 66 67  2  0  0  0  0
 59 68  1  0  0  0  0
 68 69  2  0  0  0  0
 69 70  1  0  0  0  0
 70 71  2  0  0  0  0
 71 72  1  0  0  0  0
 72 73  1  0  0  0  0
 71 74  1  0  0  0  0
 74 75  2  0  0  0  0
 58 76  1  0  0  0  0
 76 77  1  0  0  0  0
 57 78  1  0  0  0  0
 78 79  2  0  0  0  0
 79 80  1  0  0  0  0
 80 81  1  0  0  0  0
 81 82  2  0  0  0  0
 82 83  1  0  0  0  0
 83 84  2  0  0  0  0
 84 85  1  0  0  0  0
 85 86  1  0  0  0  0
 84 87  1  0  0  0  0
 87 88  2  0  0  0  0
 80 89  1  0  0  0  0
 89 90  2  0  0  0  0
 90 91  1  0  0  0  0
 91 92  2  0  0  0  0
 92 93  1  0  0  0  0
 93 94  1  0  0  0  0
 92 95  1  0  0  0  0
 95 96  2  0  0  0  0
 79 97  1  0  0  0  0
 97 98  1  0  0  0  0
 98 99  1  0  0  0  0
 99100  2  0  0  0  0
100101  1  0  0  0  0
101102  1  0  0  0  0
102103  2  0  0  0  0
103104  1  0  0  0  0
104105  2  0  0  0  0
105106  1  0  0  0  0
106107  1  0  0  0  0
105108  1  0  0  0  0
108109  2  0  0  0  0
101110  1  0  0  0  0
110111  2  0  0  0  0
111112  1  0  0  0  0
112113  2  0  0  0  0
113114  1  0  0  0  0
114115  1  0  0  0  0
113116  1  0  0  0  0
116117  2  0  0  0  0
100118  1  0  0  0  0
118119  1  0  0  0  0
 99120  1  0  0  0  0
120121  2  0  0  0  0
121122  1  0  0  0  0
122123  2  0  0  0  0
122124  1  0  0  0  0
124125  2  0  0  0  0
125126  1  0  0  0  0
126127  2  0  0  0  0
127128  1  0  0  0  0
128129  2  0  0  0  0
129130  1  0  0  0  0
130131  2  0  0  0  0
131132  1  0  0  0  0
132133  3  0  0  0  0
131134  1  0  0  0  0
134135  3  0  0  0  0
127136  1  0  0  0  0
136137  1  0  0  0  0
137138  1  0  0  0  0
138139  2  0  0  0  0
139140  1  0  0  0  0
140141  1  0  0  0  0
140142  1  0  0  0  0
 11  2  1  0  0  0  0
 23 17  1  0  0  0  0
 35 24  1  0  0  0  0
 77 36  1  0  0  0  0
119 78  1  0  0  0  0
130121  1  0  0  0  0
142136  1  0  0  0  0
 10  5  1  0  0  0  0
 22 18  1  0  0  0  0
 46 39  1  0  0  0  0
 54 47  1  0  0  0  0
 76 55  2  0  0  0  0
 88 81  1  0  0  0  0
 96 89  1  0  0  0  0
118 97  2  0  0  0  0
129124  1  0  0  0  0
141137  1  0  0  0  0
 23  7  1  0  0  0  0
 67 60  1  0  0  0  0
 75 68  1  0  0  0  0
109102  1  0  0  0  0
117110  1  0  0  0  0
142126  1  0  0  0  0
  1143  1  0  0  0  0
  6144  1  0  0  0  0
  9145  1  0  0  0  0
 17146  1  0  0  0  0
 18147  1  0  0  0  0
 19148  1  0  0  0  0
 20149  1  0  0  0  0
 21150  1  0  0  0  0
 22151  1  0  0  0  0
 22152  1  0  0  0  0
 23153  1  0  0  0  0
 27154  1  0  0  0  0
 27155  1  0  0  0  0
 28156  1  0  0  0  0
 28157  1  0  0  0  0
 28158  1  0  0  0  0
 31159  1  0  0  0  0
 31160  1  0  0  0  0
 32161  1  0  0  0  0
 32162  1  0  0  0  0
 32163  1  0  0  0  0
 34164  1  0  0  0  0
 35165  1  0  0  0  0
 40166  1  0  0  0  0
 41167  1  0  0  0  0
 44168  1  0  0  0  0
 44169  1  0  0  0  0
 44170  1  0  0  0  0
 45171  1  0  0  0  0
 46172  1  0  0  0  0
 48173  1  0  0  0  0
 49174  1  0  0  0  0
 52175  1  0  0  0  0
 52176  1  0  0  0  0
 52177  1  0  0  0  0
 53178  1  0  0  0  0
 54179  1  0  0  0  0
 61180  1  0  0  0  0
 62181  1  0  0  0  0
 65182  1  0  0  0  0
 65183  1  0  0  0  0
 65184  1  0  0  0  0
 66185  1  0  0  0  0
 67186  1  0  0  0  0
 69187  1  0  0  0  0
 70188  1  0  0  0  0
 73189  1  0  0  0  0
 73190  1  0  0  0  0
 73191  1  0  0  0  0
 74192  1  0  0  0  0
 75193  1  0  0  0  0
 82194  1  0  0  0  0
 83195  1  0  0  0  0
 86196  1  0  0  0  0
 86197  1  0  0  0  0
 86198  1  0  0  0  0
 87199  1  0  0  0  0
 88200  1  0  0  0  0
 90201  1  0  0  0  0
 91202  1  0  0  0  0
 94203  1  0  0  0  0
 94204  1  0  0  0  0
 94205  1  0  0  0  0
 95206  1  0  0  0  0
 96207  1  0  0  0  0
103208  1  0  0  0  0
104209  1  0  0  0  0
107210  1  0  0  0  0
107211  1  0  0  0  0
107212  1  0  0  0  0
108213  1  0  0  0  0
109214  1  0  0  0  0
111215  1  0  0  0  0
112216  1  0  0  0  0
115217  1  0  0  0  0
115218  1  0  0  0  0
115219  1  0  0  0  0
116220  1  0  0  0  0
117221  1  0  0  0  0
120222  1  0  0  0  0
125223  1  0  0  0  0
128224  1  0  0  0  0
136225  1  0  0  0  0
137226  1  0  0  0  0
138227  1  0  0  0  0
139228  1  0  0  0  0
140229  1  0  0  0  0
141230  1  0  0  0  0
141231  1  0  0  0  0
142232  1  0  0  0  0
M  END
