196

C          1.63970       -3.41590        3.94730
C          1.98930       -2.58870        4.98590
C          3.12080       -1.65620        5.00570
O          3.86340       -1.37110        4.08170
C          3.20660       -1.14090        6.38250
C          4.13110       -0.22570        6.88060
C          3.95610        0.07760        8.20970
C          2.93680       -0.48780        8.98690
C          2.01640       -1.38990        8.50690
C          2.17640       -1.71300        7.15650
C          1.38020       -2.58700        6.29660
C          0.22750       -3.23490        6.66850
C         -0.64690       -3.90890        5.79490
N         -1.44760       -4.42580        5.15110
C         -0.28530       -3.26840        7.98080
N         -0.75630       -3.36160        9.02440
C          3.35290        0.26590       10.22560
C          4.13660       -0.53120       11.28960
C          4.80760        0.53870       12.12050
C          5.77290        1.07480       11.38460
C          5.77060        0.37640       10.04390
C          5.34030       -1.03020       10.47980
C          4.48940        0.89700        9.35860
C          2.13590       -3.48900        2.64200
C          1.63770       -4.40240        1.68410
N          0.56330       -5.25960        1.82370
C         -0.41780       -5.13280        0.81770
C         -1.03340       -6.23480        0.23660
C         -1.94730       -6.06940       -0.78900
C         -2.25400       -4.79780       -1.25730
S         -3.37360       -4.44680       -2.57250
C         -4.14110       -6.04780       -2.93850
C         -1.64540       -3.69050       -0.66750
C         -0.74920       -3.85390        0.36080
C          0.41020       -6.12410        2.90780
C          1.53840       -6.62000        3.56730
C          1.39600       -7.43200        4.66800
C          0.12690       -7.78590        5.12600
S          0.05430       -8.80250        6.56640
C         -1.66310       -8.61320        7.12430
C         -0.99400       -7.33800        4.44200
C         -0.85450       -6.50400        3.35030
C          2.21780       -4.17700        0.42630
S          2.03500       -4.92610       -1.12670
C          2.97050       -3.64520       -1.86320
C          3.44900       -2.72490       -0.93820
N          3.95470       -1.45900       -1.25290
C          5.24770       -1.26510       -1.73640
C          5.53540       -0.19360       -2.57890
C          6.81860        0.01150       -3.04600
C          7.83320       -0.86870       -2.69830
S          9.50420       -0.71850       -3.25200
C          9.52180        0.84610       -4.17670
C          7.54310       -1.95700       -1.87960
C          6.26830       -2.15160       -1.39780
C          3.08080       -0.37850       -1.05810
C          3.55430        0.84430       -0.57700
C          2.70950        1.92520       -0.46890
C          1.36620        1.82090       -0.83480
S          0.41440        3.30700       -0.76310
C         -1.21920        2.81910       -1.37400
C          0.87510        0.59010       -1.24760
C          1.72340       -0.49740       -1.34860
C          3.05150       -3.06960        0.37590
S          3.29480       -2.35860        1.93220
C          2.75390       -3.34210       -3.24190
C          3.49450       -2.65030       -4.16130
C          4.91030       -2.46540       -4.50700
O          5.89620       -3.01810       -4.09020
N          4.89720       -1.54510       -5.55350
C          6.09950       -1.08090       -6.19740
C          3.62330       -1.15550       -5.95450
O          3.39240       -0.32520       -6.79930
C          2.71080       -1.94730       -5.11980
C          1.36050       -2.14810       -4.99610
S          1.05380       -3.31210       -3.72100
C          0.23860       -1.37790       -5.41680
C          0.24810       -0.01580       -5.53770
C         -1.03020        0.56720       -5.37360
C         -1.32490        1.92320       -5.10280
C         -0.29500        2.92630       -4.95310
C         -0.41270        4.28010       -5.14680
C          0.69350        5.06270       -4.77970
C          1.74220        4.36780       -4.23990
S          3.23250        5.08540       -3.69070
C          4.17760        3.57040       -3.28580
C          5.51720        3.92110       -2.67350
Se         1.39060        2.52990       -4.18870
C         -2.66340        2.21290       -4.81770
C         -3.68420        1.22510       -4.81040
C         -3.38070       -0.13850       -5.04310
C         -4.34410       -1.20850       -4.92940
C         -4.39630       -2.33670       -5.70360
C         -5.37830       -3.28020       -5.35490
C         -6.12980       -2.95690       -4.26010
S         -7.35020       -4.00120       -3.57340
C         -8.33460       -2.81310       -2.59470
C         -9.15200       -1.88670       -3.47070
Se        -5.60760       -1.30480       -3.53470
C         -2.04500       -0.42130       -5.28710
S         -1.37700       -2.03250       -5.30880
C         -4.92320        1.77000       -4.44370
C         -4.87340        3.10270       -4.08330
S         -3.26320        3.75760       -4.27590
C         -6.01380        3.76610       -3.58110
C         -6.14540        5.00610       -3.02840
C         -5.07440        6.00780       -2.87410
O         -3.92020        5.92060       -3.24800
C         -5.67840        7.14890       -2.16940
C         -5.03580        8.32010       -1.77460
C         -5.84810        9.20550       -1.10870
C         -7.20400        8.94850       -0.86160
C         -7.85160        7.80130       -1.25340
C         -7.04110        6.88020       -1.92440
C         -7.36010        5.55430       -2.44810
C         -8.58440        4.94250       -2.36770
C         -8.89620        3.64170       -2.81700
N         -9.24170        2.59250       -3.13440
C         -9.73490        5.52800       -1.79690
N        -10.71410        5.93260       -1.35450
C         -7.39920       10.25180       -0.12910
C         -7.46200       10.20220        1.41800
C         -6.67710        8.98530        1.84130
C         -5.39450        9.22900        1.60740
C         -5.28900       10.61530        1.02130
C         -6.44870       11.30800        1.75430
C         -5.88940       10.53820       -0.40480
H          0.85440       -4.13320        4.15310
H          4.89580        0.19140        6.24410
H          1.23470       -1.81120        9.11660
H          2.59940        0.92310       10.65550
H          3.55050       -1.27240       11.82590
H          4.48540        0.82420       13.10460
H          6.41800        1.89760       11.63140
H          6.67410        0.46170        9.44620
H          6.08710       -1.51280       11.10800
H          5.07730       -1.68940        9.65470
H          4.49360        1.97540        9.21080
H         -0.78550       -7.22800        0.57980
H         -2.40020       -6.94490       -1.22570
H         -4.92870       -5.83740       -3.65560
H         -3.40930       -6.72140       -3.37480
H         -4.57340       -6.46160       -2.03260
H         -1.89490       -2.70340       -1.02530
H         -0.29740       -2.98730        0.82100
H          2.52340       -6.34710        3.21800
H          2.26520       -7.80330        5.18880
H         -2.33610       -9.15700        6.46740
H         -1.91590       -7.55790        7.16410
H         -1.69770       -9.04230        8.12080
H         -1.98650       -7.60780        4.76230
H         -1.73330       -6.12710        2.85200
H          4.74370        0.47790       -2.88180
H          7.00570        0.85120       -3.69670
H         10.55320        0.99010       -4.48280
H          9.21230        1.66300       -3.53130
H          8.88670        0.77230       -5.05490
H          8.33160       -2.64860       -1.62760
H          6.05120       -2.99700       -0.76320
H          4.59180        0.93710       -0.29450
H          3.07660        2.86950       -0.09490
H         -1.78590        3.74080       -1.46790
H         -1.12320        2.35170       -2.35030
H         -1.70130        2.15280       -0.66380
H         -0.16560        0.45930       -1.49990
H          1.31660       -1.44320       -1.67310
H          6.94560       -1.44940       -5.61980
H          6.15610       -1.46240       -7.21850
H          6.09990        0.00890       -6.22950
H          1.16640        0.52210       -5.70080
H         -1.28350        4.72260       -5.59880
H          0.71860        6.13100       -4.90460
H          4.29590        3.00750       -4.21680
H          3.56730        2.99310       -2.58370
H          5.37650        4.52010       -1.77700
H          6.12360        4.48840       -3.37600
H          6.04620        3.00950       -2.40280
H         -3.76700       -2.46800       -6.56760
H         -5.53950       -4.18620       -5.91310
H         -7.63280       -2.26180       -1.96060
H         -8.97210       -3.43400       -1.96620
H         -8.50420       -1.29840       -4.12100
H         -9.83970       -2.45700       -4.09090
H         -9.72280       -1.19950       -2.85040
H         -5.84650        1.21430       -4.42620
H         -6.90050        3.14430       -3.61080
H         -3.98950        8.47550       -1.98630
H         -8.89490        7.62250       -1.05500
H         -8.13440       10.93300       -0.55250
H         -8.46240       10.29570        1.83180
H         -7.12660        8.07920        2.20360
H         -4.55790        8.56710        1.73470
H         -4.31060       11.08550        1.07420
H         -6.70990       12.27850        1.33490
H         -6.27180       11.40510        2.82440
H         -5.63660       11.40680       -1.00940
