206

C         -4.01580        7.65870        1.06700
C         -3.12060        8.54300        1.61230
C         -3.14850        9.95750        1.18990
O         -4.00290       10.49540        0.51290
C         -1.88050       10.54000        1.66980
C         -1.43660       11.84900        1.49770
C         -0.19810       12.09710        2.03990
C          0.54610       11.11550        2.70630
C          0.11860        9.82160        2.88800
C         -1.13770        9.54590        2.34110
C         -1.92700        8.31380        2.38300
C         -1.61580        7.18810        3.10980
C         -0.35780        6.93870        3.68540
N          0.66700        6.65310        4.12170
C         -2.52930        6.17160        3.45050
N         -3.22420        5.35460        3.86190
C          1.69020       12.05830        2.98660
C          2.94040       11.91290        2.09360
C          3.66200       13.23000        2.26460
C          2.95710       14.16090        1.63440
C          1.74730       13.48850        1.02670
C          2.34760       12.11660        0.69330
C          0.85970       13.15380        2.24420
C         -3.89600        6.29770        1.05530
C         -3.75480        5.09790        0.86080
C         -3.39000        3.78650        0.74810
C         -3.93180        2.78050       -0.06410
N         -4.98230        2.96350       -0.92070
C         -5.32730        4.25360       -1.37530
C         -6.65440        4.67460       -1.32360
C         -6.99370        5.94490       -1.73120
C         -6.01660        6.82520       -2.19380
S         -6.56520        8.43420       -2.66170
C         -5.05100        9.43540       -2.69800
C         -4.69870        6.39370       -2.28180
C         -4.36030        5.11570       -1.88210
C         -5.82170        1.89330       -1.27220
C         -6.21270        0.94650       -0.33100
C         -7.06470       -0.08190       -0.68510
C         -7.53750       -0.18120       -1.98610
S         -8.62970       -1.44480       -2.55160
C         -8.85450       -2.51500       -1.10210
C         -7.15260        0.77240       -2.92830
C         -6.30700        1.79880       -2.57680
C         -3.21830        1.57300        0.11390
S         -3.25200        0.01800       -0.64670
C         -1.87360       -0.51560        0.31480
C         -1.39240        0.48300        1.14830
N         -0.27920        0.42380        1.96440
C         -0.22880        1.27290        3.08980
C         -1.33850        1.40690        3.92420
C         -1.29510        2.25290        5.00910
C         -0.14510        2.98870        5.28750
S         -0.20490        4.01720        6.71480
C          1.39490        4.87370        6.71210
C          0.96180        2.86050        4.45750
C          0.91770        2.00990        3.36990
C          0.84760       -0.34060        1.63860
C          1.58400       -0.94620        2.65300
C          2.66040       -1.76080        2.35550
C          3.00050       -2.00980        1.03230
S          4.28330       -3.12500        0.55090
C          4.35050       -4.27720        1.95730
C          2.31790       -1.34250        0.01910
C          1.26640       -0.50320        0.31660
C         -2.17780        1.65660        1.02810
S         -2.01210        3.23390        1.70510
C         -1.29240       -1.79830        0.03910
C         -0.94550       -2.82640        0.90660
N         -1.41480       -2.93810        2.19500
C         -2.59510       -2.27210        2.58690
C         -2.65910       -1.71940        3.86230
C         -3.79890       -1.06030        4.27920
C         -4.90030       -0.93160        3.43950
C         -6.10820       -0.16660        3.88600
C         -4.84040       -1.52190        2.18430
C         -3.70960       -2.19140        1.75910
C         -0.95690       -3.94090        3.07810
C          0.38910       -4.07040        3.39590
C          0.80370       -5.05100        4.27800
C         -0.10530       -5.91890        4.86710
C          0.35260       -6.99780        5.79870
C         -1.45200       -5.77340        4.55310
C         -1.87780       -4.80050        3.67230
C         -0.11580       -3.76660        0.24220
S          0.77900       -5.15290        0.74910
C          1.51560       -5.30190       -0.85510
C          0.92110       -4.42300       -1.78540
N          1.03080       -4.49030       -3.13800
C          1.50580       -5.62520       -3.81790
C          2.38390       -5.46270       -4.88700
C          2.90170       -6.56690       -5.53680
C          2.54980       -7.85440       -5.15250
C          3.15850       -9.04910       -5.81650
C          1.62880       -8.00560       -4.11930
C          1.11090       -6.91150       -3.45760
C          0.63650       -3.39520       -3.94610
C         -0.31670       -3.59120       -4.93870
C         -0.70880       -2.53170       -5.73270
C         -0.15900       -1.26600       -5.56090
C         -0.61830       -0.11590       -6.40290
C          0.81220       -1.09070       -4.58290
C          1.21260       -2.14190       -3.78080
C          0.06680       -3.51660       -1.11330
S         -0.79540       -2.11170       -1.62020
C          2.57670       -6.19560       -0.98510
C          3.56990       -6.12390       -1.94040
C          3.97370       -4.88290       -2.61800
O          3.49080       -3.77230       -2.49210
C          5.17000       -5.23140       -3.41290
C          5.90970       -4.38260       -4.22860
C          6.95160       -5.00010       -4.87990
C          7.24990       -6.35690       -4.71210
C          6.53540       -7.20260       -3.89610
C          5.45980       -6.59830       -3.24350
C          4.45850       -7.17320       -2.34660
C          4.29440       -8.51210       -2.07770
C          5.10720       -9.53350       -2.59950
N          5.72530      -10.41550       -3.00190
C          3.23900       -9.03990       -1.30980
N          2.39430       -9.54490       -0.71620
C          8.40760       -6.30490       -5.67800
C          8.18460       -6.88900       -7.09480
C          6.70660       -6.77980       -7.37490
C          6.42000       -5.49520       -7.53910
C          7.69890       -4.71320       -7.37160
C          8.70890       -5.72020       -7.94410
C          8.07110       -4.79250       -5.86980
H         -4.83620        8.09050        0.50190
H         -2.04490       12.57740        0.98460
H          0.70020        9.07780        3.40690
H          1.93270       12.21120        4.03660
H          3.52060       11.01040        2.26600
H          4.55110       13.35500        2.85440
H          3.13980       15.21880        1.59290
H          1.24150       14.02220        0.22640
H          1.61110       11.36690        0.41030
H          3.11720       12.17950       -0.07440
H          0.54890       14.03660        2.80000
H         -7.41270        4.00470       -0.94690
H         -8.01820        6.27950       -1.68070
H         -4.56740        9.41630       -1.72600
H         -4.38580        9.09290       -3.48520
H         -5.38310       10.44600       -2.91460
H         -3.92740        7.04440       -2.66140
H         -3.33490        4.78560       -1.95860
H         -5.86420        1.02670        0.68800
H         -7.36860       -0.79140        0.06740
H         -9.49790       -3.32350       -1.43490
H         -9.34230       -1.96470       -0.30270
H         -7.89620       -2.91470       -0.78360
H         -7.52680        0.69340       -3.93730
H         -6.01430        2.53750       -3.30760
H         -2.23400        0.84360        3.71210
H         -2.15540        2.36190        5.65050
H          2.20280        4.15400        6.80670
H          1.37690        5.52330        7.58180
H          1.48250        5.46810        5.80700
H          1.85900        3.42960        4.63620
H          1.77940        1.92080        2.72430
H          1.29880       -0.78800        3.68280
H          3.21880       -2.20960        3.16230
H          3.34480       -4.60750        2.20110
H          4.83360       -3.81260        2.81200
H          4.94440       -5.12020        1.61760
H          2.62890       -1.50100       -1.00110
H          0.75840        0.02730       -0.47470
H         -1.80580       -1.80470        4.51880
H         -3.83050       -0.62680        5.26840
H         -6.93310       -0.29360        3.18890
H         -6.42900       -0.49670        4.87240
H         -5.87460        0.89640        3.95380
H         -5.69260       -1.46620        1.52410
H         -3.69460       -2.65880        0.78560
H          1.09990       -3.38830        2.96080
H          1.85410       -5.13840        4.51730
H          0.56830       -7.90580        5.23470
H         -0.41660       -7.23170        6.53090
H          1.26030       -6.70270        6.32000
H         -2.17790       -6.43660        5.00080
H         -2.92770       -4.70200        3.43720
H          2.67020       -4.46700       -5.19100
H          3.60520       -6.42500       -6.34410
H          2.46920       -9.89010       -5.81160
H          3.43710       -8.82290       -6.84300
H          4.05890       -9.35440       -5.28090
H          1.31950       -8.99670       -3.82120
H          0.40310       -7.05440       -2.65490
H         -0.74770       -4.57200       -5.07830
H         -1.45700       -2.68820       -6.49610
H         -1.50090        0.33990       -5.95290
H          0.15410        0.64570       -6.47730
H         -0.88620       -0.44850       -7.40310
H          1.26640       -0.11950       -4.45010
H          1.98930       -2.01990       -3.04370
H          2.63710       -6.96890       -0.22860
H          5.65120       -3.33950       -4.32500
H          6.78380       -8.24310       -3.76690
H          9.38410       -6.56190       -5.27210
H          8.63190       -7.86620       -7.25630
H          6.03470       -7.61830       -7.36560
H          5.45940       -5.04000       -7.69830
H          7.70430       -3.70830       -7.78620
H          8.58140       -5.88460       -9.01330
H          9.74570       -5.46190       -7.73300
H          8.82900       -4.06220       -5.59210
