
  xtb     02132201433D
 energy: -338.527438696171 gnorm: 0.000537959262 xtb: 6.4.1 (unknown)
203221  0     0  0            999 V2000
    0.9145    5.7119    3.3887 C   0  0  0  0  0  0  0  0  0  0  0  0
    1.4037    6.9030    2.8979 C   0  0  0  0  0  0  0  0  0  0  0  0
    1.9775    7.1364    1.5739 C   0  0  0  0  0  0  0  0  0  0  0  0
    2.0437    6.3578    0.6327 O   0  0  0  0  0  0  0  0  0  0  0  0
    2.4750    8.5242    1.5743 C   0  0  0  0  0  0  0  0  0  0  0  0
    3.1278    9.1869    0.5379 C   0  0  0  0  0  0  0  0  0  0  0  0
    3.4615   10.4884    0.8262 C   0  0  0  0  0  0  0  0  0  0  0  0
    3.1701   11.0875    2.0575 C   0  0  0  0  0  0  0  0  0  0  0  0
    2.5329   10.4424    3.0915 C   0  0  0  0  0  0  0  0  0  0  0  0
    2.1856    9.1172    2.8192 C   0  0  0  0  0  0  0  0  0  0  0  0
    1.4960    8.1312    3.6529 C   0  0  0  0  0  0  0  0  0  0  0  0
    1.0056    8.3706    4.9144 C   0  0  0  0  0  0  0  0  0  0  0  0
    1.1719    9.5795    5.6199 C   0  0  0  0  0  0  0  0  0  0  0  0
    1.2740   10.5271    6.2613 N   0  0  0  0  0  0  0  0  0  0  0  0
    0.2370    7.4774    5.6849 C   0  0  0  0  0  0  0  0  0  0  0  0
   -0.4256    6.8317    6.3681 N   0  0  0  0  0  0  0  0  0  0  0  0
    3.7955   12.4004    1.6574 C   0  0  0  0  0  0  0  0  0  0  0  0
    5.1998   12.7322    2.2193 C   0  0  0  0  0  0  0  0  0  0  0  0
    5.8726   11.4113    2.4985 C   0  0  0  0  0  0  0  0  0  0  0  0
    6.1498   10.8435    1.3324 C   0  0  0  0  0  0  0  0  0  0  0  0
    5.6689   11.7702    0.2434 C   0  0  0  0  0  0  0  0  0  0  0  0
    5.9133   13.1298    0.9172 C   0  0  0  0  0  0  0  0  0  0  0  0
    4.1211   11.7320    0.2844 C   0  0  0  0  0  0  0  0  0  0  0  0
    0.7340    4.4777    2.7702 C   0  0  0  0  0  0  0  0  0  0  0  0
    0.1648    3.3590    3.4308 C   0  0  0  0  0  0  0  0  0  0  0  0
   -0.0616    3.2621    4.7793 N   0  0  0  0  0  0  0  0  0  0  0  0
    0.8734    3.7356    5.7181 C   0  0  0  0  0  0  0  0  0  0  0  0
    2.2364    3.7007    5.4386 C   0  0  0  0  0  0  0  0  0  0  0  0
    3.1569    4.1349    6.3700 C   0  0  0  0  0  0  0  0  0  0  0  0
    2.7275    4.5995    7.6067 C   0  0  0  0  0  0  0  0  0  0  0  0
    3.8077    5.1579    8.8838 S   0  0  0  0  0  0  0  0  0  0  0  0
    5.4690    4.9380    8.1844 C   0  0  0  0  0  0  0  0  0  0  0  0
    1.3638    4.6298    7.8914 C   0  0  0  0  0  0  0  0  0  0  0  0
    0.4436    4.2084    6.9579 C   0  0  0  0  0  0  0  0  0  0  0  0
   -1.1356    2.4740    5.2227 C   0  0  0  0  0  0  0  0  0  0  0  0
   -0.9898    1.6121    6.3045 C   0  0  0  0  0  0  0  0  0  0  0  0
   -2.0438    0.8286    6.7290 C   0  0  0  0  0  0  0  0  0  0  0  0
   -3.2679    0.8962    6.0763 C   0  0  0  0  0  0  0  0  0  0  0  0
   -4.6794   -0.0652    6.5136 S   0  0  0  0  0  0  0  0  0  0  0  0
   -4.1935   -0.8834    8.0604 C   0  0  0  0  0  0  0  0  0  0  0  0
   -3.4213    1.7679    4.9995 C   0  0  0  0  0  0  0  0  0  0  0  0
   -2.3710    2.5506    4.5781 C   0  0  0  0  0  0  0  0  0  0  0  0
   -0.1166    2.3280    2.5196 C   0  0  0  0  0  0  0  0  0  0  0  0
   -0.8095    0.7481    2.6710 S   0  0  0  0  0  0  0  0  0  0  0  0
   -0.4441    0.4116    0.9838 C   0  0  0  0  0  0  0  0  0  0  0  0
    0.1597    1.4855    0.3439 C   0  0  0  0  0  0  0  0  0  0  0  0
    0.5800    1.5712   -0.9797 N   0  0  0  0  0  0  0  0  0  0  0  0
    0.3893    2.8448   -1.5659 C   0  0  0  0  0  0  0  0  0  0  0  0
    1.4596    3.5380   -2.1197 C   0  0  0  0  0  0  0  0  0  0  0  0
    1.2805    4.8236   -2.5867 C   0  0  0  0  0  0  0  0  0  0  0  0
    0.0327    5.4268   -2.4950 C   0  0  0  0  0  0  0  0  0  0  0  0
   -0.2180    7.1035   -3.0017 S   0  0  0  0  0  0  0  0  0  0  0  0
    1.3177    7.8598   -2.3859 C   0  0  0  0  0  0  0  0  0  0  0  0
   -1.0511    4.7166   -1.9929 C   0  0  0  0  0  0  0  0  0  0  0  0
   -0.8735    3.4298   -1.5313 C   0  0  0  0  0  0  0  0  0  0  0  0
    1.0633    0.5194   -1.7445 C   0  0  0  0  0  0  0  0  0  0  0  0
    1.6042   -0.6265   -1.1638 C   0  0  0  0  0  0  0  0  0  0  0  0
    1.8869   -1.7509   -1.9134 C   0  0  0  0  0  0  0  0  0  0  0  0
    1.7001   -1.7282   -3.2869 C   0  0  0  0  0  0  0  0  0  0  0  0
    1.8364   -3.1445   -4.3400 S   0  0  0  0  0  0  0  0  0  0  0  0
    2.4622   -4.4515   -3.2523 C   0  0  0  0  0  0  0  0  0  0  0  0
    1.3377   -0.5288   -3.8951 C   0  0  0  0  0  0  0  0  0  0  0  0
    1.0054    0.5720   -3.1397 C   0  0  0  0  0  0  0  0  0  0  0  0
    0.3234    2.5801    1.2285 C   0  0  0  0  0  0  0  0  0  0  0  0
    1.0331    4.1478    1.0620 S   0  0  0  0  0  0  0  0  0  0  0  0
   -0.8184   -0.8188    0.3543 C   0  0  0  0  0  0  0  0  0  0  0  0
   -0.5133   -2.1399    0.6526 C   0  0  0  0  0  0  0  0  0  0  0  0
    0.0469   -2.6559    1.7990 N   0  0  0  0  0  0  0  0  0  0  0  0
   -0.1026   -4.0375    2.0643 C   0  0  0  0  0  0  0  0  0  0  0  0
    1.0124   -4.7777    2.4532 C   0  0  0  0  0  0  0  0  0  0  0  0
    0.9133   -6.1403    2.6205 C   0  0  0  0  0  0  0  0  0  0  0  0
   -0.2997   -6.7924    2.4025 C   0  0  0  0  0  0  0  0  0  0  0  0
   -0.3089   -8.5506    2.5197 S   0  0  0  0  0  0  0  0  0  0  0  0
   -1.7098   -9.0128    1.4618 C   0  0  0  0  0  0  0  0  0  0  0  0
   -1.4316   -6.0442    2.1036 C   0  0  0  0  0  0  0  0  0  0  0  0
   -1.3330   -4.6759    1.9405 C   0  0  0  0  0  0  0  0  0  0  0  0
    0.6347   -1.9079    2.8393 C   0  0  0  0  0  0  0  0  0  0  0  0
    1.7414   -1.0874    2.6398 C   0  0  0  0  0  0  0  0  0  0  0  0
    2.2896   -0.3857    3.6914 C   0  0  0  0  0  0  0  0  0  0  0  0
    1.7642   -0.5112    4.9739 C   0  0  0  0  0  0  0  0  0  0  0  0
    2.5363    0.4378    6.2491 S   0  0  0  0  0  0  0  0  0  0  0  0
    2.0531   -0.4302    7.7707 C   0  0  0  0  0  0  0  0  0  0  0  0
    0.6815   -1.3533    5.1873 C   0  0  0  0  0  0  0  0  0  0  0  0
    0.1277   -2.0452    4.1294 C   0  0  0  0  0  0  0  0  0  0  0  0
   -0.8488   -2.9699   -0.4538 C   0  0  0  0  0  0  0  0  0  0  0  0
   -0.5210   -4.6236   -0.8318 S   0  0  0  0  0  0  0  0  0  0  0  0
   -1.2657   -4.4355   -2.4165 C   0  0  0  0  0  0  0  0  0  0  0  0
   -1.8162   -3.1701   -2.6006 C   0  0  0  0  0  0  0  0  0  0  0  0
   -2.6147   -2.7706   -3.6451 N   0  0  0  0  0  0  0  0  0  0  0  0
   -2.7444   -1.3732   -3.8888 C   0  0  0  0  0  0  0  0  0  0  0  0
   -3.8648   -0.6807   -3.4380 C   0  0  0  0  0  0  0  0  0  0  0  0
   -3.9512    0.6801   -3.6321 C   0  0  0  0  0  0  0  0  0  0  0  0
   -2.9326    1.3665   -4.2943 C   0  0  0  0  0  0  0  0  0  0  0  0
   -3.1284    3.1119   -4.4340 S   0  0  0  0  0  0  0  0  0  0  0  0
   -1.5953    3.6753   -5.2216 C   0  0  0  0  0  0  0  0  0  0  0  0
   -1.8479    0.6616   -4.7981 C   0  0  0  0  0  0  0  0  0  0  0  0
   -1.7545   -0.7015   -4.5875 C   0  0  0  0  0  0  0  0  0  0  0  0
   -3.4538   -3.6304   -4.3587 C   0  0  0  0  0  0  0  0  0  0  0  0
   -3.7570   -3.3382   -5.6869 C   0  0  0  0  0  0  0  0  0  0  0  0
   -4.5394   -4.1915   -6.4414 C   0  0  0  0  0  0  0  0  0  0  0  0
   -5.0406   -5.3572   -5.8783 C   0  0  0  0  0  0  0  0  0  0  0  0
   -5.9956   -6.5558   -6.7520 S   0  0  0  0  0  0  0  0  0  0  0  0
   -6.2693   -5.7969   -8.3786 C   0  0  0  0  0  0  0  0  0  0  0  0
   -4.7798   -5.6297   -4.5362 C   0  0  0  0  0  0  0  0  0  0  0  0
   -4.0045   -4.7778   -3.7841 C   0  0  0  0  0  0  0  0  0  0  0  0
   -1.4910   -2.3328   -1.5018 C   0  0  0  0  0  0  0  0  0  0  0  0
   -1.6668   -0.6480   -1.1885 S   0  0  0  0  0  0  0  0  0  0  0  0
   -1.2236   -5.5511   -3.2903 C   0  0  0  0  0  0  0  0  0  0  0  0
   -1.2408   -5.5698   -4.6682 C   0  0  0  0  0  0  0  0  0  0  0  0
   -1.2015   -6.8611   -5.2112 C   0  0  0  0  0  0  0  0  0  0  0  0
   -1.2374   -7.1985   -6.5143 O   0  0  0  0  0  0  0  0  0  0  0  0
   -1.3099   -6.1609   -7.4797 C   0  0  0  0  0  0  0  0  0  0  0  0
    0.0393   -5.4942   -7.7258 C   0  0  0  0  0  0  0  0  0  0  0  0
   -1.1413   -7.8597   -4.2332 C   0  0  0  0  0  0  0  0  0  0  0  0
   -1.1275   -7.1573   -2.6392 S   0  0  0  0  0  0  0  0  0  0  0  0
   -1.1137   -9.2601   -4.3951 C   0  0  0  0  0  0  0  0  0  0  0  0
   -1.0742   -9.9976   -5.5733 C   0  0  0  0  0  0  0  0  0  0  0  0
   -1.0578  -11.3634   -5.3597 C   0  0  0  0  0  0  0  0  0  0  0  0
   -1.0932  -11.7203   -4.0145 C   0  0  0  0  0  0  0  0  0  0  0  0
   -1.0922  -13.0406   -3.5076 C   0  0  0  0  0  0  0  0  0  0  0  0
   -1.1784  -13.4283   -2.1822 C   0  0  0  0  0  0  0  0  0  0  0  0
   -1.3088  -12.5426   -1.1020 C   0  0  0  0  0  0  0  0  0  0  0  0
   -1.4314  -11.8633   -0.1829 N   0  0  0  0  0  0  0  0  0  0  0  0
   -1.1574  -14.7919   -1.8273 C   0  0  0  0  0  0  0  0  0  0  0  0
   -1.1413  -15.8974   -1.5205 N   0  0  0  0  0  0  0  0  0  0  0  0
   -0.9959  -14.0785   -4.4718 C   0  0  0  0  0  0  0  0  0  0  0  0
   -0.9155  -14.9122   -5.2531 N   0  0  0  0  0  0  0  0  0  0  0  0
   -1.1419  -10.2967   -3.0030 S   0  0  0  0  0  0  0  0  0  0  0  0
    0.5986    5.7271    4.4240 H   0  0  0  0  0  0  0  0  0  0  0  0
    3.3400    8.6917   -0.3967 H   0  0  0  0  0  0  0  0  0  0  0  0
    2.3193   10.9181    4.0337 H   0  0  0  0  0  0  0  0  0  0  0  0
    3.1335   13.2641    1.6594 H   0  0  0  0  0  0  0  0  0  0  0  0
    5.2017   13.4529    3.0324 H   0  0  0  0  0  0  0  0  0  0  0  0
    6.0201   11.0116    3.4847 H   0  0  0  0  0  0  0  0  0  0  0  0
    6.5754    9.8741    1.1494 H   0  0  0  0  0  0  0  0  0  0  0  0
    6.0988   11.6162   -0.7431 H   0  0  0  0  0  0  0  0  0  0  0  0
    5.4387   13.9621    0.3993 H   0  0  0  0  0  0  0  0  0  0  0  0
    6.9711   13.3431    1.0644 H   0  0  0  0  0  0  0  0  0  0  0  0
    3.6718   12.1606   -0.6097 H   0  0  0  0  0  0  0  0  0  0  0  0
    2.5798    3.3197    4.4886 H   0  0  0  0  0  0  0  0  0  0  0  0
    4.2046    4.0878    6.1227 H   0  0  0  0  0  0  0  0  0  0  0  0
    6.1562    5.2583    8.9613 H   0  0  0  0  0  0  0  0  0  0  0  0
    5.6381    3.8909    7.9506 H   0  0  0  0  0  0  0  0  0  0  0  0
    5.5896    5.5649    7.3057 H   0  0  0  0  0  0  0  0  0  0  0  0
    1.0343    4.9998    8.8494 H   0  0  0  0  0  0  0  0  0  0  0  0
   -0.6103    4.2470    7.1816 H   0  0  0  0  0  0  0  0  0  0  0  0
   -0.0379    1.5604    6.8093 H   0  0  0  0  0  0  0  0  0  0  0  0
   -1.8989    0.1657    7.5674 H   0  0  0  0  0  0  0  0  0  0  0  0
   -5.0800   -1.4080    8.4031 H   0  0  0  0  0  0  0  0  0  0  0  0
   -3.3956   -1.5967    7.8745 H   0  0  0  0  0  0  0  0  0  0  0  0
   -3.8989   -0.1394    8.7944 H   0  0  0  0  0  0  0  0  0  0  0  0
   -4.3784    1.8271    4.5048 H   0  0  0  0  0  0  0  0  0  0  0  0
   -2.5024    3.2355    3.7540 H   0  0  0  0  0  0  0  0  0  0  0  0
    2.4326    3.0718   -2.1623 H   0  0  0  0  0  0  0  0  0  0  0  0
    2.1186    5.3598   -3.0022 H   0  0  0  0  0  0  0  0  0  0  0  0
    2.1046    7.7808   -3.1312 H   0  0  0  0  0  0  0  0  0  0  0  0
    1.0929    8.9053   -2.1976 H   0  0  0  0  0  0  0  0  0  0  0  0
    1.5945    7.3566   -1.4638 H   0  0  0  0  0  0  0  0  0  0  0  0
   -2.0229    5.1835   -1.9572 H   0  0  0  0  0  0  0  0  0  0  0  0
   -1.7049    2.8739   -1.1231 H   0  0  0  0  0  0  0  0  0  0  0  0
    1.7804   -0.6401   -0.1034 H   0  0  0  0  0  0  0  0  0  0  0  0
    2.2458   -2.6348   -1.4102 H   0  0  0  0  0  0  0  0  0  0  0  0
    1.7460   -4.6575   -2.4616 H   0  0  0  0  0  0  0  0  0  0  0  0
    3.4267   -4.1607   -2.8465 H   0  0  0  0  0  0  0  0  0  0  0  0
    2.5759   -5.3290   -3.8816 H   0  0  0  0  0  0  0  0  0  0  0  0
    1.2945   -0.4798   -4.9726 H   0  0  0  0  0  0  0  0  0  0  0  0
    0.6748    1.4758   -3.6254 H   0  0  0  0  0  0  0  0  0  0  0  0
    1.9593   -4.2769    2.5920 H   0  0  0  0  0  0  0  0  0  0  0  0
    1.7797   -6.7234    2.8911 H   0  0  0  0  0  0  0  0  0  0  0  0
   -2.6467   -8.8862    1.9967 H   0  0  0  0  0  0  0  0  0  0  0  0
   -1.6839   -8.4104    0.5585 H   0  0  0  0  0  0  0  0  0  0  0  0
   -1.5651  -10.0588    1.2093 H   0  0  0  0  0  0  0  0  0  0  0  0
   -2.3922   -6.5203    1.9894 H   0  0  0  0  0  0  0  0  0  0  0  0
   -2.2134   -4.0972    1.6992 H   0  0  0  0  0  0  0  0  0  0  0  0
    2.1880   -1.0070    1.6623 H   0  0  0  0  0  0  0  0  0  0  0  0
    3.1432    0.2555    3.5318 H   0  0  0  0  0  0  0  0  0  0  0  0
    2.2619   -1.4903    7.6644 H   0  0  0  0  0  0  0  0  0  0  0  0
    1.0047   -0.2574    7.9957 H   0  0  0  0  0  0  0  0  0  0  0  0
    2.6687   -0.0052    8.5574 H   0  0  0  0  0  0  0  0  0  0  0  0
    0.2550   -1.4700    6.1701 H   0  0  0  0  0  0  0  0  0  0  0  0
   -0.7186   -2.6943    4.2974 H   0  0  0  0  0  0  0  0  0  0  0  0
   -4.6494   -1.2121   -2.9206 H   0  0  0  0  0  0  0  0  0  0  0  0
   -4.8019    1.2330   -3.2654 H   0  0  0  0  0  0  0  0  0  0  0  0
   -1.5312    3.2911   -6.2355 H   0  0  0  0  0  0  0  0  0  0  0  0
   -0.7407    3.3748   -4.6230 H   0  0  0  0  0  0  0  0  0  0  0  0
   -1.6598    4.7591   -5.2398 H   0  0  0  0  0  0  0  0  0  0  0  0
   -1.0720    1.1589   -5.3562 H   0  0  0  0  0  0  0  0  0  0  0  0
   -0.9082   -1.2558   -4.9621 H   0  0  0  0  0  0  0  0  0  0  0  0
   -3.3641   -2.4388   -6.1375 H   0  0  0  0  0  0  0  0  0  0  0  0
   -4.7403   -3.9371   -7.4698 H   0  0  0  0  0  0  0  0  0  0  0  0
   -5.3259   -5.6853   -8.9054 H   0  0  0  0  0  0  0  0  0  0  0  0
   -6.9102   -6.4880   -8.9171 H   0  0  0  0  0  0  0  0  0  0  0  0
   -6.7733   -4.8422   -8.2612 H   0  0  0  0  0  0  0  0  0  0  0  0
   -5.1961   -6.5208   -4.0923 H   0  0  0  0  0  0  0  0  0  0  0  0
   -3.8303   -4.9958   -2.7420 H   0  0  0  0  0  0  0  0  0  0  0  0
   -1.2505   -4.6647   -5.2438 H   0  0  0  0  0  0  0  0  0  0  0  0
   -1.6467   -6.6666   -8.3890 H   0  0  0  0  0  0  0  0  0  0  0  0
   -2.0679   -5.4249   -7.1855 H   0  0  0  0  0  0  0  0  0  0  0  0
    0.7716   -6.2416   -8.0210 H   0  0  0  0  0  0  0  0  0  0  0  0
    0.4017   -4.9914   -6.8324 H   0  0  0  0  0  0  0  0  0  0  0  0
   -0.0576   -4.7631   -8.5234 H   0  0  0  0  0  0  0  0  0  0  0  0
   -1.0566   -9.5299   -6.5390 H   0  0  0  0  0  0  0  0  0  0  0  0
   -1.0240  -12.0971   -6.1464 H   0  0  0  0  0  0  0  0  0  0  0  0
  1  2  2  0  0  0  0
  2  3  1  0  0  0  0
  3  4  2  0  0  0  0
  3  5  1  0  0  0  0
  5  6  2  0  0  0  0
  6  7  1  0  0  0  0
  7  8  2  0  0  0  0
  8  9  1  0  0  0  0
  9 10  2  0  0  0  0
 10 11  1  0  0  0  0
 11 12  2  0  0  0  0
 12 13  1  0  0  0  0
 13 14  3  0  0  0  0
 12 15  1  0  0  0  0
 15 16  3  0  0  0  0
  8 17  1  0  0  0  0
 17 18  1  0  0  0  0
 18 19  1  0  0  0  0
 19 20  2  0  0  0  0
 20 21  1  0  0  0  0
 21 22  1  0  0  0  0
 21 23  1  0  0  0  0
  1 24  1  0  0  0  0
 24 25  2  0  0  0  0
 25 26  1  0  0  0  0
 26 27  1  0  0  0  0
 27 28  2  0  0  0  0
 28 29  1  0  0  0  0
 29 30  2  0  0  0  0
 30 31  1  0  0  0  0
 31 32  1  0  0  0  0
 30 33  1  0  0  0  0
 33 34  2  0  0  0  0
 26 35  1  0  0  0  0
 35 36  2  0  0  0  0
 36 37  1  0  0  0  0
 37 38  2  0  0  0  0
 38 39  1  0  0  0  0
 39 40  1  0  0  0  0
 38 41  1  0  0  0  0
 41 42  2  0  0  0  0
 25 43  1  0  0  0  0
 43 44  1  0  0  0  0
 44 45  1  0  0  0  0
 45 46  2  0  0  0  0
 46 47  1  0  0  0  0
 47 48  1  0  0  0  0
 48 49  2  0  0  0  0
 49 50  1  0  0  0  0
 50 51  2  0  0  0  0
 51 52  1  0  0  0  0
 52 53  1  0  0  0  0
 51 54  1  0  0  0  0
 54 55  2  0  0  0  0
 47 56  1  0  0  0  0
 56 57  2  0  0  0  0
 57 58  1  0  0  0  0
 58 59  2  0  0  0  0
 59 60  1  0  0  0  0
 60 61  1  0  0  0  0
 59 62  1  0  0  0  0
 62 63  2  0  0  0  0
 46 64  1  0  0  0  0
 64 65  1  0  0  0  0
 45 66  1  0  0  0  0
 66 67  2  0  0  0  0
 67 68  1  0  0  0  0
 68 69  1  0  0  0  0
 69 70  2  0  0  0  0
 70 71  1  0  0  0  0
 71 72  2  0  0  0  0
 72 73  1  0  0  0  0
 73 74  1  0  0  0  0
 72 75  1  0  0  0  0
 75 76  2  0  0  0  0
 68 77  1  0  0  0  0
 77 78  2  0  0  0  0
 78 79  1  0  0  0  0
 79 80  2  0  0  0  0
 80 81  1  0  0  0  0
 81 82  1  0  0  0  0
 80 83  1  0  0  0  0
 83 84  2  0  0  0  0
 67 85  1  0  0  0  0
 85 86  1  0  0  0  0
 86 87  1  0  0  0  0
 87 88  2  0  0  0  0
 88 89  1  0  0  0  0
 89 90  1  0  0  0  0
 90 91  2  0  0  0  0
 91 92  1  0  0  0  0
 92 93  2  0  0  0  0
 93 94  1  0  0  0  0
 94 95  1  0  0  0  0
 93 96  1  0  0  0  0
 96 97  2  0  0  0  0
 89 98  1  0  0  0  0
 98 99  2  0  0  0  0
 99100  1  0  0  0  0
100101  2  0  0  0  0
101102  1  0  0  0  0
102103  1  0  0  0  0
101104  1  0  0  0  0
104105  2  0  0  0  0
 88106  1  0  0  0  0
106107  1  0  0  0  0
 87108  1  0  0  0  0
108109  2  0  0  0  0
109110  1  0  0  0  0
110111  1  0  0  0  0
111112  1  0  0  0  0
112113  1  0  0  0  0
110114  2  0  0  0  0
114115  1  0  0  0  0
114116  1  0  0  0  0
116117  2  0  0  0  0
117118  1  0  0  0  0
118119  2  0  0  0  0
119120  1  0  0  0  0
120121  2  0  0  0  0
121122  1  0  0  0  0
122123  3  0  0  0  0
121124  1  0  0  0  0
124125  3  0  0  0  0
120126  1  0  0  0  0
126127  3  0  0  0  0
119128  1  0  0  0  0
 11  2  1  0  0  0  0
 23 17  1  0  0  0  0
 65 24  1  0  0  0  0
107 66  1  0  0  0  0
115108  1  0  0  0  0
128116  1  0  0  0  0
 10  5  1  0  0  0  0
 22 18  1  0  0  0  0
 34 27  1  0  0  0  0
 42 35  1  0  0  0  0
 64 43  2  0  0  0  0
 76 69  1  0  0  0  0
 84 77  1  0  0  0  0
106 85  2  0  0  0  0
 23  7  1  0  0  0  0
 55 48  1  0  0  0  0
 63 56  1  0  0  0  0
 97 90  1  0  0  0  0
105 98  1  0  0  0  0
  1129  1  0  0  0  0
  6130  1  0  0  0  0
  9131  1  0  0  0  0
 17132  1  0  0  0  0
 18133  1  0  0  0  0
 19134  1  0  0  0  0
 20135  1  0  0  0  0
 21136  1  0  0  0  0
 22137  1  0  0  0  0
 22138  1  0  0  0  0
 23139  1  0  0  0  0
 28140  1  0  0  0  0
 29141  1  0  0  0  0
 32142  1  0  0  0  0
 32143  1  0  0  0  0
 32144  1  0  0  0  0
 33145  1  0  0  0  0
 34146  1  0  0  0  0
 36147  1  0  0  0  0
 37148  1  0  0  0  0
 40149  1  0  0  0  0
 40150  1  0  0  0  0
 40151  1  0  0  0  0
 41152  1  0  0  0  0
 42153  1  0  0  0  0
 49154  1  0  0  0  0
 50155  1  0  0  0  0
 53156  1  0  0  0  0
 53157  1  0  0  0  0
 53158  1  0  0  0  0
 54159  1  0  0  0  0
 55160  1  0  0  0  0
 57161  1  0  0  0  0
 58162  1  0  0  0  0
 61163  1  0  0  0  0
 61164  1  0  0  0  0
 61165  1  0  0  0  0
 62166  1  0  0  0  0
 63167  1  0  0  0  0
 70168  1  0  0  0  0
 71169  1  0  0  0  0
 74170  1  0  0  0  0
 74171  1  0  0  0  0
 74172  1  0  0  0  0
 75173  1  0  0  0  0
 76174  1  0  0  0  0
 78175  1  0  0  0  0
 79176  1  0  0  0  0
 82177  1  0  0  0  0
 82178  1  0  0  0  0
 82179  1  0  0  0  0
 83180  1  0  0  0  0
 84181  1  0  0  0  0
 91182  1  0  0  0  0
 92183  1  0  0  0  0
 95184  1  0  0  0  0
 95185  1  0  0  0  0
 95186  1  0  0  0  0
 96187  1  0  0  0  0
 97188  1  0  0  0  0
 99189  1  0  0  0  0
100190  1  0  0  0  0
103191  1  0  0  0  0
103192  1  0  0  0  0
103193  1  0  0  0  0
104194  1  0  0  0  0
105195  1  0  0  0  0
109196  1  0  0  0  0
112197  1  0  0  0  0
112198  1  0  0  0  0
113199  1  0  0  0  0
113200  1  0  0  0  0
113201  1  0  0  0  0
117202  1  0  0  0  0
118203  1  0  0  0  0
M  END
