
  xtb     02062204203D
 energy: -364.444651773797 gnorm: 0.000416494896 xtb: 6.4.1 (unknown)
216236  0     0  0            999 V2000
    5.3856   -5.8524   -0.5403 C   0  0  0  0  0  0  0  0  0  0  0  0
    5.9976   -6.7219    0.3281 C   0  0  0  0  0  0  0  0  0  0  0  0
    5.7583   -6.8344    1.7708 C   0  0  0  0  0  0  0  0  0  0  0  0
    4.8516   -6.3365    2.4179 O   0  0  0  0  0  0  0  0  0  0  0  0
    6.8675   -7.6506    2.3042 C   0  0  0  0  0  0  0  0  0  0  0  0
    7.0977   -8.0063    3.6305 C   0  0  0  0  0  0  0  0  0  0  0  0
    8.2300   -8.7613    3.8236 C   0  0  0  0  0  0  0  0  0  0  0  0
    9.0763   -9.1401    2.7746 C   0  0  0  0  0  0  0  0  0  0  0  0
    8.8602   -8.8008    1.4599 C   0  0  0  0  0  0  0  0  0  0  0  0
    7.7143   -8.0323    1.2433 C   0  0  0  0  0  0  0  0  0  0  0  0
    7.1659   -7.5034   -0.0025 C   0  0  0  0  0  0  0  0  0  0  0  0
    7.6900   -7.7160   -1.2543 C   0  0  0  0  0  0  0  0  0  0  0  0
    7.0981   -7.3261   -2.4705 C   0  0  0  0  0  0  0  0  0  0  0  0
    6.6924   -7.0734   -3.5168 N   0  0  0  0  0  0  0  0  0  0  0  0
    8.9077   -8.3723   -1.5195 C   0  0  0  0  0  0  0  0  0  0  0  0
    9.8994   -8.8573   -1.8387 N   0  0  0  0  0  0  0  0  0  0  0  0
   10.0093   -9.8907    3.6915 C   0  0  0  0  0  0  0  0  0  0  0  0
    9.9113  -11.4360    3.7127 C   0  0  0  0  0  0  0  0  0  0  0  0
    8.4984  -11.7817    3.3124 C   0  0  0  0  0  0  0  0  0  0  0  0
    7.6966  -11.4231    4.3061 C   0  0  0  0  0  0  0  0  0  0  0  0
    8.5531  -10.8283    5.3966 C   0  0  0  0  0  0  0  0  0  0  0  0
    9.8280  -11.6704    5.2295 C   0  0  0  0  0  0  0  0  0  0  0  0
    9.0653   -9.4683    4.8614 C   0  0  0  0  0  0  0  0  0  0  0  0
    4.3536   -4.9323   -0.3410 C   0  0  0  0  0  0  0  0  0  0  0  0
    4.0673   -3.8831   -1.2450 C   0  0  0  0  0  0  0  0  0  0  0  0
    4.8588   -3.5087   -2.3015 N   0  0  0  0  0  0  0  0  0  0  0  0
    4.2762   -2.8655   -3.4060 C   0  0  0  0  0  0  0  0  0  0  0  0
    4.8947   -1.7582   -3.9775 C   0  0  0  0  0  0  0  0  0  0  0  0
    4.3214   -1.1099   -5.0532 C   0  0  0  0  0  0  0  0  0  0  0  0
    3.1198   -1.5660   -5.5783 C   0  0  0  0  0  0  0  0  0  0  0  0
    2.2815   -0.7970   -6.9287 S   0  0  0  0  0  0  0  0  0  0  0  0
    3.4852    0.4013   -7.5702 C   0  0  0  0  0  0  0  0  0  0  0  0
    2.5090   -2.6882   -5.0231 C   0  0  0  0  0  0  0  0  0  0  0  0
    3.0793   -3.3331   -3.9490 C   0  0  0  0  0  0  0  0  0  0  0  0
    6.2561   -3.6822   -2.2841 C   0  0  0  0  0  0  0  0  0  0  0  0
    6.9205   -4.0961   -3.4340 C   0  0  0  0  0  0  0  0  0  0  0  0
    8.2736   -4.3748   -3.3995 C   0  0  0  0  0  0  0  0  0  0  0  0
    8.9777   -4.2573   -2.2093 C   0  0  0  0  0  0  0  0  0  0  0  0
   10.6751   -4.6993   -2.0253 S   0  0  0  0  0  0  0  0  0  0  0  0
   11.0044   -5.7306   -3.4814 C   0  0  0  0  0  0  0  0  0  0  0  0
    8.3297   -3.7634   -1.0760 C   0  0  0  0  0  0  0  0  0  0  0  0
    6.9875   -3.4660   -1.1140 C   0  0  0  0  0  0  0  0  0  0  0  0
    2.8898   -3.2112   -0.8735 C   0  0  0  0  0  0  0  0  0  0  0  0
    2.0169   -1.8779   -1.5471 S   0  0  0  0  0  0  0  0  0  0  0  0
    0.8722   -1.9428   -0.2172 C   0  0  0  0  0  0  0  0  0  0  0  0
    1.1029   -3.0121    0.6455 C   0  0  0  0  0  0  0  0  0  0  0  0
    0.2749   -3.4346    1.6623 N   0  0  0  0  0  0  0  0  0  0  0  0
    0.8435   -4.1516    2.7326 C   0  0  0  0  0  0  0  0  0  0  0  0
    1.9991   -3.6876    3.3520 C   0  0  0  0  0  0  0  0  0  0  0  0
    2.5860   -4.4136    4.3686 C   0  0  0  0  0  0  0  0  0  0  0  0
    2.0223   -5.6145    4.7756 C   0  0  0  0  0  0  0  0  0  0  0  0
    2.7349   -6.6163    6.0399 S   0  0  0  0  0  0  0  0  0  0  0  0
    4.4967   -6.1992    5.8830 C   0  0  0  0  0  0  0  0  0  0  0  0
    0.8415   -6.0596    4.1876 C   0  0  0  0  0  0  0  0  0  0  0  0
    0.2567   -5.3367    3.1725 C   0  0  0  0  0  0  0  0  0  0  0  0
   -1.1105   -3.2386    1.6537 C   0  0  0  0  0  0  0  0  0  0  0  0
   -1.7760   -3.0438    2.8642 C   0  0  0  0  0  0  0  0  0  0  0  0
   -3.1307   -2.7963    2.8915 C   0  0  0  0  0  0  0  0  0  0  0  0
   -3.8488   -2.7295    1.7050 C   0  0  0  0  0  0  0  0  0  0  0  0
   -5.5838   -2.3759    1.6865 S   0  0  0  0  0  0  0  0  0  0  0  0
   -5.7895   -1.3225    3.1512 C   0  0  0  0  0  0  0  0  0  0  0  0
   -3.2026   -2.9637    0.4965 C   0  0  0  0  0  0  0  0  0  0  0  0
   -1.8476   -3.2213    0.4705 C   0  0  0  0  0  0  0  0  0  0  0  0
    2.2891   -3.7058    0.2793 C   0  0  0  0  0  0  0  0  0  0  0  0
    3.2109   -4.9820    0.9988 S   0  0  0  0  0  0  0  0  0  0  0  0
   -0.1288   -0.9169   -0.1922 C   0  0  0  0  0  0  0  0  0  0  0  0
   -0.5487   -0.2978   -1.3926 C   0  0  0  0  0  0  0  0  0  0  0  0
   -0.1132   -0.5044   -2.6399 N   0  0  0  0  0  0  0  0  0  0  0  0
   -0.7513    0.3761   -3.3563 N   0  0  0  0  0  0  0  0  0  0  0  0
   -0.5509    0.4728   -4.7739 C   0  0  0  0  0  0  0  0  0  0  0  0
   -0.9748   -0.8208   -5.4566 C   0  0  0  0  0  0  0  0  0  0  0  0
   -1.5794    1.1542   -2.7195 N   0  0  0  0  0  0  0  0  0  0  0  0
   -1.5031    0.7583   -1.4409 C   0  0  0  0  0  0  0  0  0  0  0  0
   -2.1256    1.2590   -0.2692 C   0  0  0  0  0  0  0  0  0  0  0  0
   -1.6671    0.6524    0.8978 C   0  0  0  0  0  0  0  0  0  0  0  0
   -0.6981   -0.3556    0.9418 C   0  0  0  0  0  0  0  0  0  0  0  0
   -0.2566   -0.7153    2.1651 F   0  0  0  0  0  0  0  0  0  0  0  0
   -2.1465    1.0619    2.0944 F   0  0  0  0  0  0  0  0  0  0  0  0
   -2.9960    2.3970   -0.2700 C   0  0  0  0  0  0  0  0  0  0  0  0
   -3.7082    2.9554   -1.3302 C   0  0  0  0  0  0  0  0  0  0  0  0
   -4.0074    2.3517   -2.5355 N   0  0  0  0  0  0  0  0  0  0  0  0
   -4.0071    3.1547   -3.6846 C   0  0  0  0  0  0  0  0  0  0  0  0
   -2.9953    4.0922   -3.8710 C   0  0  0  0  0  0  0  0  0  0  0  0
   -2.9934    4.9198   -4.9768 C   0  0  0  0  0  0  0  0  0  0  0  0
   -4.0079    4.8195   -5.9189 C   0  0  0  0  0  0  0  0  0  0  0  0
   -4.1091    5.8168   -7.3720 S   0  0  0  0  0  0  0  0  0  0  0  0
   -2.8987    7.1371   -7.0726 C   0  0  0  0  0  0  0  0  0  0  0  0
   -5.0156    3.8721   -5.7432 C   0  0  0  0  0  0  0  0  0  0  0  0
   -5.0198    3.0511   -4.6388 C   0  0  0  0  0  0  0  0  0  0  0  0
   -4.3847    1.0093   -2.6037 C   0  0  0  0  0  0  0  0  0  0  0  0
   -4.1615    0.2718   -3.7682 C   0  0  0  0  0  0  0  0  0  0  0  0
   -4.5470   -1.0474   -3.8448 C   0  0  0  0  0  0  0  0  0  0  0  0
   -5.1709   -1.6665   -2.7642 C   0  0  0  0  0  0  0  0  0  0  0  0
   -5.5971   -3.3712   -2.9514 S   0  0  0  0  0  0  0  0  0  0  0  0
   -6.8210   -3.6522   -1.6406 C   0  0  0  0  0  0  0  0  0  0  0  0
   -5.4061   -0.9367   -1.6073 C   0  0  0  0  0  0  0  0  0  0  0  0
   -5.0143    0.3845   -1.5299 C   0  0  0  0  0  0  0  0  0  0  0  0
   -4.1926    4.2413   -0.9886 C   0  0  0  0  0  0  0  0  0  0  0  0
   -5.0959    5.4329   -1.8492 S   0  0  0  0  0  0  0  0  0  0  0  0
   -5.0564    6.5109   -0.4429 C   0  0  0  0  0  0  0  0  0  0  0  0
   -4.4681    5.8888    0.6802 C   0  0  0  0  0  0  0  0  0  0  0  0
   -4.5003    6.3390    1.9675 N   0  0  0  0  0  0  0  0  0  0  0  0
   -3.5667    5.8421    2.9003 C   0  0  0  0  0  0  0  0  0  0  0  0
   -2.2124    5.7895    2.5865 C   0  0  0  0  0  0  0  0  0  0  0  0
   -1.3135    5.2407    3.4792 C   0  0  0  0  0  0  0  0  0  0  0  0
   -1.7602    4.7402    4.6957 C   0  0  0  0  0  0  0  0  0  0  0  0
   -0.6890    3.9736    5.8695 S   0  0  0  0  0  0  0  0  0  0  0  0
    0.6231    3.2933    4.8118 C   0  0  0  0  0  0  0  0  0  0  0  0
   -3.1063    4.8520    5.0359 C   0  0  0  0  0  0  0  0  0  0  0  0
   -4.0047    5.3978    4.1462 C   0  0  0  0  0  0  0  0  0  0  0  0
   -5.4565    7.2520    2.4330 C   0  0  0  0  0  0  0  0  0  0  0  0
   -5.0703    8.2652    3.3132 C   0  0  0  0  0  0  0  0  0  0  0  0
   -5.9815    9.2119    3.7242 C   0  0  0  0  0  0  0  0  0  0  0  0
   -7.3019    9.1659    3.2782 C   0  0  0  0  0  0  0  0  0  0  0  0
   -8.3497   10.4823    3.7913 S   0  0  0  0  0  0  0  0  0  0  0  0
   -9.9453   10.1184    3.0094 C   0  0  0  0  0  0  0  0  0  0  0  0
   -7.7068    8.1152    2.4607 C   0  0  0  0  0  0  0  0  0  0  0  0
   -6.7911    7.1720    2.0422 C   0  0  0  0  0  0  0  0  0  0  0  0
   -3.9346    4.6283    0.3184 C   0  0  0  0  0  0  0  0  0  0  0  0
   -3.0818    3.3951    1.1769 S   0  0  0  0  0  0  0  0  0  0  0  0
   -5.6006    7.7859   -0.6065 C   0  0  0  0  0  0  0  0  0  0  0  0
   -5.2834    8.8982    0.1466 C   0  0  0  0  0  0  0  0  0  0  0  0
   -3.9940    9.0849    0.8347 C   0  0  0  0  0  0  0  0  0  0  0  0
   -3.0613    8.3026    0.8816 O   0  0  0  0  0  0  0  0  0  0  0  0
   -4.0202   10.4671    1.3525 C   0  0  0  0  0  0  0  0  0  0  0  0
   -3.0696   11.1457    2.0845 C   0  0  0  0  0  0  0  0  0  0  0  0
   -3.3535   12.4415    2.4951 C   0  0  0  0  0  0  0  0  0  0  0  0
   -4.5592   13.0540    2.1738 C   0  0  0  0  0  0  0  0  0  0  0  0
   -4.8623   14.4469    2.6273 C   0  0  0  0  0  0  0  0  0  0  0  0
   -5.5115   12.3637    1.4202 C   0  0  0  0  0  0  0  0  0  0  0  0
   -5.2426   11.0727    1.0124 C   0  0  0  0  0  0  0  0  0  0  0  0
   -6.0493   10.1043    0.2726 C   0  0  0  0  0  0  0  0  0  0  0  0
   -7.3675   10.2610   -0.0821 C   0  0  0  0  0  0  0  0  0  0  0  0
   -8.1668    9.2300   -0.6117 C   0  0  0  0  0  0  0  0  0  0  0  0
   -8.8977    8.4273   -0.9894 N   0  0  0  0  0  0  0  0  0  0  0  0
   -8.1123   11.4373    0.1197 C   0  0  0  0  0  0  0  0  0  0  0  0
   -8.7887   12.3560    0.2580 N   0  0  0  0  0  0  0  0  0  0  0  0
    5.7976   -5.8307   -1.5408 H   0  0  0  0  0  0  0  0  0  0  0  0
    6.4251   -7.7022    4.4158 H   0  0  0  0  0  0  0  0  0  0  0  0
    9.5191   -9.0975    0.6609 H   0  0  0  0  0  0  0  0  0  0  0  0
   11.0391   -9.5397    3.7148 H   0  0  0  0  0  0  0  0  0  0  0  0
   10.7025  -11.9457    3.1695 H   0  0  0  0  0  0  0  0  0  0  0  0
    8.2296  -12.1856    2.3539 H   0  0  0  0  0  0  0  0  0  0  0  0
    6.6238  -11.4669    4.3439 H   0  0  0  0  0  0  0  0  0  0  0  0
    8.1079  -10.7854    6.3873 H   0  0  0  0  0  0  0  0  0  0  0  0
   10.6832  -11.2763    5.7770 H   0  0  0  0  0  0  0  0  0  0  0  0
    9.6776  -12.7178    5.4864 H   0  0  0  0  0  0  0  0  0  0  0  0
    9.4800   -8.8417    5.6490 H   0  0  0  0  0  0  0  0  0  0  0  0
    5.8262   -1.3971   -3.5674 H   0  0  0  0  0  0  0  0  0  0  0  0
    4.8185   -0.2461   -5.4641 H   0  0  0  0  0  0  0  0  0  0  0  0
    3.6500    1.1955   -6.8477 H   0  0  0  0  0  0  0  0  0  0  0  0
    3.0375    0.8116   -8.4700 H   0  0  0  0  0  0  0  0  0  0  0  0
    4.4125   -0.1065   -7.8177 H   0  0  0  0  0  0  0  0  0  0  0  0
    1.5892   -3.0535   -5.4523 H   0  0  0  0  0  0  0  0  0  0  0  0
    2.6100   -4.2108   -3.5315 H   0  0  0  0  0  0  0  0  0  0  0  0
    6.3683   -4.2359   -4.3502 H   0  0  0  0  0  0  0  0  0  0  0  0
    8.7566   -4.7149   -4.3004 H   0  0  0  0  0  0  0  0  0  0  0  0
   10.2393   -6.4964   -3.5664 H   0  0  0  0  0  0  0  0  0  0  0  0
   11.9680   -6.1951   -3.2977 H   0  0  0  0  0  0  0  0  0  0  0  0
   11.0548   -5.1167   -4.3761 H   0  0  0  0  0  0  0  0  0  0  0  0
    8.8949   -3.6269   -0.1669 H   0  0  0  0  0  0  0  0  0  0  0  0
    6.4885   -3.0975   -0.2304 H   0  0  0  0  0  0  0  0  0  0  0  0
    2.4312   -2.7495    3.0367 H   0  0  0  0  0  0  0  0  0  0  0  0
    3.4794   -4.0341    4.8368 H   0  0  0  0  0  0  0  0  0  0  0  0
    5.0395   -7.0086    6.3625 H   0  0  0  0  0  0  0  0  0  0  0  0
    4.7366   -6.1392    4.8247 H   0  0  0  0  0  0  0  0  0  0  0  0
    4.7151   -5.2647    6.3926 H   0  0  0  0  0  0  0  0  0  0  0  0
    0.4033   -6.9873    4.5218 H   0  0  0  0  0  0  0  0  0  0  0  0
   -0.6468   -5.6923    2.6997 H   0  0  0  0  0  0  0  0  0  0  0  0
   -1.2167   -3.0614    3.7867 H   0  0  0  0  0  0  0  0  0  0  0  0
   -3.6165   -2.6434    3.8419 H   0  0  0  0  0  0  0  0  0  0  0  0
   -6.7384   -0.8114    3.0211 H   0  0  0  0  0  0  0  0  0  0  0  0
   -5.8214   -1.9281    4.0524 H   0  0  0  0  0  0  0  0  0  0  0  0
   -4.9771   -0.6030    3.1890 H   0  0  0  0  0  0  0  0  0  0  0  0
   -3.7592   -2.9366   -0.4266 H   0  0  0  0  0  0  0  0  0  0  0  0
   -1.3610   -3.4050   -0.4754 H   0  0  0  0  0  0  0  0  0  0  0  0
   -1.1350    1.3273   -5.1192 H   0  0  0  0  0  0  0  0  0  0  0  0
    0.5121    0.6491   -4.9605 H   0  0  0  0  0  0  0  0  0  0  0  0
   -2.0387   -0.9950   -5.3254 H   0  0  0  0  0  0  0  0  0  0  0  0
   -0.7467   -0.7678   -6.5166 H   0  0  0  0  0  0  0  0  0  0  0  0
   -0.4261   -1.6507   -5.0208 H   0  0  0  0  0  0  0  0  0  0  0  0
   -2.2007    4.1622   -3.1433 H   0  0  0  0  0  0  0  0  0  0  0  0
   -2.1930    5.6327   -5.0934 H   0  0  0  0  0  0  0  0  0  0  0  0
   -3.0990    7.6046   -6.1133 H   0  0  0  0  0  0  0  0  0  0  0  0
   -1.8882    6.7409   -7.1168 H   0  0  0  0  0  0  0  0  0  0  0  0
   -3.0453    7.8557   -7.8729 H   0  0  0  0  0  0  0  0  0  0  0  0
   -5.8020    3.8017   -6.4787 H   0  0  0  0  0  0  0  0  0  0  0  0
   -5.8151    2.3347   -4.4994 H   0  0  0  0  0  0  0  0  0  0  0  0
   -3.6869    0.7476   -4.6121 H   0  0  0  0  0  0  0  0  0  0  0  0
   -4.3767   -1.6181   -4.7455 H   0  0  0  0  0  0  0  0  0  0  0  0
   -7.2430   -4.6321   -1.8412 H   0  0  0  0  0  0  0  0  0  0  0  0
   -6.3470   -3.6484   -0.6630 H   0  0  0  0  0  0  0  0  0  0  0  0
   -7.5951   -2.8937   -1.7020 H   0  0  0  0  0  0  0  0  0  0  0  0
   -5.8955   -1.3845   -0.7585 H   0  0  0  0  0  0  0  0  0  0  0  0
   -5.2148    0.9381   -0.6250 H   0  0  0  0  0  0  0  0  0  0  0  0
   -1.8754    6.2026    1.6486 H   0  0  0  0  0  0  0  0  0  0  0  0
   -0.2673    5.2100    3.2205 H   0  0  0  0  0  0  0  0  0  0  0  0
    0.1685    2.8019    3.9571 H   0  0  0  0  0  0  0  0  0  0  0  0
    1.1504    2.5668    5.4219 H   0  0  0  0  0  0  0  0  0  0  0  0
    1.3085    4.0764    4.5006 H   0  0  0  0  0  0  0  0  0  0  0  0
   -3.4389    4.4857    5.9946 H   0  0  0  0  0  0  0  0  0  0  0  0
   -5.0526    5.4627    4.3994 H   0  0  0  0  0  0  0  0  0  0  0  0
   -4.0464    8.3136    3.6511 H   0  0  0  0  0  0  0  0  0  0  0  0
   -5.6771   10.0136    4.3791 H   0  0  0  0  0  0  0  0  0  0  0  0
   -9.8384   10.0935    1.9290 H   0  0  0  0  0  0  0  0  0  0  0  0
  -10.3427    9.1830    3.3921 H   0  0  0  0  0  0  0  0  0  0  0  0
  -10.5967   10.9402    3.2898 H   0  0  0  0  0  0  0  0  0  0  0  0
   -8.7290    8.0257    2.1314 H   0  0  0  0  0  0  0  0  0  0  0  0
   -7.1175    6.3707    1.3964 H   0  0  0  0  0  0  0  0  0  0  0  0
   -6.2979    7.8984   -1.4286 H   0  0  0  0  0  0  0  0  0  0  0  0
   -2.1351   10.6686    2.3385 H   0  0  0  0  0  0  0  0  0  0  0  0
   -2.6256   12.9842    3.0807 H   0  0  0  0  0  0  0  0  0  0  0  0
   -5.0567   15.0892    1.7695 H   0  0  0  0  0  0  0  0  0  0  0  0
   -4.0370   14.8646    3.1978 H   0  0  0  0  0  0  0  0  0  0  0  0
   -5.7566   14.4500    3.2490 H   0  0  0  0  0  0  0  0  0  0  0  0
   -6.4412   12.8508    1.1719 H   0  0  0  0  0  0  0  0  0  0  0  0
  1  2  2  0  0  0  0
  2  3  1  0  0  0  0
  3  4  2  0  0  0  0
  3  5  1  0  0  0  0
  5  6  2  0  0  0  0
  6  7  1  0  0  0  0
  7  8  2  0  0  0  0
  8  9  1  0  0  0  0
  9 10  2  0  0  0  0
 10 11  1  0  0  0  0
 11 12  2  0  0  0  0
 12 13  1  0  0  0  0
 13 14  3  0  0  0  0
 12 15  1  0  0  0  0
 15 16  3  0  0  0  0
  8 17  1  0  0  0  0
 17 18  1  0  0  0  0
 18 19  1  0  0  0  0
 19 20  2  0  0  0  0
 20 21  1  0  0  0  0
 21 22  1  0  0  0  0
 21 23  1  0  0  0  0
  1 24  1  0  0  0  0
 24 25  2  0  0  0  0
 25 26  1  0  0  0  0
 26 27  1  0  0  0  0
 27 28  2  0  0  0  0
 28 29  1  0  0  0  0
 29 30  2  0  0  0  0
 30 31  1  0  0  0  0
 31 32  1  0  0  0  0
 30 33  1  0  0  0  0
 33 34  2  0  0  0  0
 26 35  1  0  0  0  0
 35 36  2  0  0  0  0
 36 37  1  0  0  0  0
 37 38  2  0  0  0  0
 38 39  1  0  0  0  0
 39 40  1  0  0  0  0
 38 41  1  0  0  0  0
 41 42  2  0  0  0  0
 25 43  1  0  0  0  0
 43 44  1  0  0  0  0
 44 45  1  0  0  0  0
 45 46  2  0  0  0  0
 46 47  1  0  0  0  0
 47 48  1  0  0  0  0
 48 49  2  0  0  0  0
 49 50  1  0  0  0  0
 50 51  2  0  0  0  0
 51 52  1  0  0  0  0
 52 53  1  0  0  0  0
 51 54  1  0  0  0  0
 54 55  2  0  0  0  0
 47 56  1  0  0  0  0
 56 57  2  0  0  0  0
 57 58  1  0  0  0  0
 58 59  2  0  0  0  0
 59 60  1  0  0  0  0
 60 61  1  0  0  0  0
 59 62  1  0  0  0  0
 62 63  2  0  0  0  0
 46 64  1  0  0  0  0
 64 65  1  0  0  0  0
 45 66  1  0  0  0  0
 66 67  1  0  0  0  0
 67 68  2  0  0  0  0
 68 69  1  0  0  0  0
 69 70  1  0  0  0  0
 70 71  1  0  0  0  0
 69 72  1  0  0  0  0
 72 73  2  0  0  0  0
 73 74  1  0  0  0  0
 74 75  2  0  0  0  0
 75 76  1  0  0  0  0
 76 77  1  0  0  0  0
 75 78  1  0  0  0  0
 74 79  1  0  0  0  0
 79 80  2  0  0  0  0
 80 81  1  0  0  0  0
 81 82  1  0  0  0  0
 82 83  2  0  0  0  0
 83 84  1  0  0  0  0
 84 85  2  0  0  0  0
 85 86  1  0  0  0  0
 86 87  1  0  0  0  0
 85 88  1  0  0  0  0
 88 89  2  0  0  0  0
 81 90  1  0  0  0  0
 90 91  2  0  0  0  0
 91 92  1  0  0  0  0
 92 93  2  0  0  0  0
 93 94  1  0  0  0  0
 94 95  1  0  0  0  0
 93 96  1  0  0  0  0
 96 97  2  0  0  0  0
 80 98  1  0  0  0  0
 98 99  1  0  0  0  0
 99100  1  0  0  0  0
100101  2  0  0  0  0
101102  1  0  0  0  0
102103  1  0  0  0  0
103104  2  0  0  0  0
104105  1  0  0  0  0
105106  2  0  0  0  0
106107  1  0  0  0  0
107108  1  0  0  0  0
106109  1  0  0  0  0
109110  2  0  0  0  0
102111  1  0  0  0  0
111112  2  0  0  0  0
112113  1  0  0  0  0
113114  2  0  0  0  0
114115  1  0  0  0  0
115116  1  0  0  0  0
114117  1  0  0  0  0
117118  2  0  0  0  0
101119  1  0  0  0  0
119120  1  0  0  0  0
100121  1  0  0  0  0
121122  2  0  0  0  0
122123  1  0  0  0  0
123124  2  0  0  0  0
123125  1  0  0  0  0
125126  2  0  0  0  0
126127  1  0  0  0  0
127128  2  0  0  0  0
128129  1  0  0  0  0
128130  1  0  0  0  0
130131  2  0  0  0  0
131132  1  0  0  0  0
132133  2  0  0  0  0
133134  1  0  0  0  0
134135  3  0  0  0  0
133136  1  0  0  0  0
136137  3  0  0  0  0
 11  2  1  0  0  0  0
 23 17  1  0  0  0  0
 65 24  1  0  0  0  0
 76 66  2  0  0  0  0
120 79  1  0  0  0  0
132122  1  0  0  0  0
 10  5  1  0  0  0  0
 22 18  1  0  0  0  0
 34 27  1  0  0  0  0
 42 35  1  0  0  0  0
 64 43  2  0  0  0  0
 73 67  1  0  0  0  0
 89 82  1  0  0  0  0
 97 90  1  0  0  0  0
119 98  2  0  0  0  0
131125  1  0  0  0  0
 23  7  1  0  0  0  0
 55 48  1  0  0  0  0
 63 56  1  0  0  0  0
110103  1  0  0  0  0
118111  1  0  0  0  0
  1138  1  0  0  0  0
  6139  1  0  0  0  0
  9140  1  0  0  0  0
 17141  1  0  0  0  0
 18142  1  0  0  0  0
 19143  1  0  0  0  0
 20144  1  0  0  0  0
 21145  1  0  0  0  0
 22146  1  0  0  0  0
 22147  1  0  0  0  0
 23148  1  0  0  0  0
 28149  1  0  0  0  0
 29150  1  0  0  0  0
 32151  1  0  0  0  0
 32152  1  0  0  0  0
 32153  1  0  0  0  0
 33154  1  0  0  0  0
 34155  1  0  0  0  0
 36156  1  0  0  0  0
 37157  1  0  0  0  0
 40158  1  0  0  0  0
 40159  1  0  0  0  0
 40160  1  0  0  0  0
 41161  1  0  0  0  0
 42162  1  0  0  0  0
 49163  1  0  0  0  0
 50164  1  0  0  0  0
 53165  1  0  0  0  0
 53166  1  0  0  0  0
 53167  1  0  0  0  0
 54168  1  0  0  0  0
 55169  1  0  0  0  0
 57170  1  0  0  0  0
 58171  1  0  0  0  0
 61172  1  0  0  0  0
 61173  1  0  0  0  0
 61174  1  0  0  0  0
 62175  1  0  0  0  0
 63176  1  0  0  0  0
 70177  1  0  0  0  0
 70178  1  0  0  0  0
 71179  1  0  0  0  0
 71180  1  0  0  0  0
 71181  1  0  0  0  0
 83182  1  0  0  0  0
 84183  1  0  0  0  0
 87184  1  0  0  0  0
 87185  1  0  0  0  0
 87186  1  0  0  0  0
 88187  1  0  0  0  0
 89188  1  0  0  0  0
 91189  1  0  0  0  0
 92190  1  0  0  0  0
 95191  1  0  0  0  0
 95192  1  0  0  0  0
 95193  1  0  0  0  0
 96194  1  0  0  0  0
 97195  1  0  0  0  0
104196  1  0  0  0  0
105197  1  0  0  0  0
108198  1  0  0  0  0
108199  1  0  0  0  0
108200  1  0  0  0  0
109201  1  0  0  0  0
110202  1  0  0  0  0
112203  1  0  0  0  0
113204  1  0  0  0  0
116205  1  0  0  0  0
116206  1  0  0  0  0
116207  1  0  0  0  0
117208  1  0  0  0  0
118209  1  0  0  0  0
121210  1  0  0  0  0
126211  1  0  0  0  0
127212  1  0  0  0  0
129213  1  0  0  0  0
129214  1  0  0  0  0
129215  1  0  0  0  0
130216  1  0  0  0  0
M  END
