219

C          0.75210        4.60290        5.29870
C         -0.25660        5.02770        6.12510
C         -1.67590        4.67400        6.01400
O         -2.23460        4.14400        5.06960
C         -2.29830        5.07850        7.28760
C         -3.62460        4.90060        7.67160
C         -3.90840        5.36350        8.93460
C         -2.94330        5.95770        9.75810
C         -1.63150        6.14290        9.39000
C         -1.32280        5.68150        8.10830
C         -0.05690        5.71460        7.38000
C          1.10510        6.29500        7.82560
C          1.29590        6.83520        9.11240
N          1.55830        7.27100       10.14260
C          2.27900        6.45710        7.06590
N          3.27110        6.66040        6.52060
C         -3.92410        6.18360       10.88110
C         -4.47350        7.61730       11.08230
C         -4.40370        8.29510        9.73620
C         -5.31740        7.73650        8.95390
C         -6.02220        6.67130        9.75710
C         -5.97810        7.31150       11.15390
C         -5.00080        5.52500        9.96200
C          0.71540        3.78360        4.16600
C          1.87680        3.20380        3.60320
N          3.12460        3.21310        4.17510
C          4.25850        3.25880        3.34740
C          5.37320        2.47440        3.63680
C          6.50580        2.57090        2.85750
C          6.54290        3.45610        1.78560
S          8.04070        3.56820        0.84490
C          8.16790        5.36560        0.58530
C          5.42340        4.21600        1.47450
C          4.28760        4.11630        2.25030
C          3.29560        3.16400        5.57040
C          4.29880        3.90740        6.18440
C          4.39800        3.94620        7.56220
C          3.48500        3.25470        8.34590
S          3.44860        3.32840       10.10760
C          4.43390        4.80340       10.49000
C          2.52840        2.44610        7.73040
C          2.44100        2.39010        6.35930
C          1.57340        2.52640        2.40890
S          2.48660        1.53310        1.31430
C          1.01700        1.11740        0.45620
C         -0.10080        1.71630        0.99160
N         -1.40480        1.47190        0.52620
C         -2.09250        2.50980       -0.09420
C         -3.47560        2.49770       -0.26500
C         -4.11060        3.49840       -0.97430
C         -3.38180        4.55180       -1.50550
S         -4.07510        5.85940       -2.46860
C         -5.77860        5.31650       -2.77690
C         -2.01390        4.61800       -1.26050
C         -1.37970        3.61540       -0.56560
C         -1.95360        0.21410        0.80810
C         -1.62970       -0.42660        2.00360
C         -2.17950       -1.64970        2.33300
C         -3.07020       -2.26780        1.46600
S         -3.87370       -3.81040        1.79010
C         -3.49620       -4.14270        3.53480
C         -3.35980       -1.65960        0.24740
C         -2.81060       -0.43990       -0.07940
C          0.21970        2.53980        2.09550
S         -0.74050        3.38050        3.25630
C          0.98840        0.19130       -0.65180
C          0.70670        0.49060       -1.96460
N          0.67100        1.79100       -2.47430
C         -0.41970        2.18100       -3.25340
C         -1.64330        1.53250       -3.08060
C         -2.75900        1.92970       -3.77880
C         -2.68490        2.98960       -4.67650
S         -4.18090        3.44890       -5.49710
C         -3.81400        5.10510       -6.14300
C         -1.46040        3.60070       -4.90110
C         -0.33850        3.19410       -4.20530
C          1.81040        2.58610       -2.29290
C          1.72780        3.97600       -2.19050
C          2.87030        4.73900       -2.08630
C          4.12390        4.13590       -2.06750
S          5.53680        5.19870       -2.03010
C          6.87470        4.12860       -2.63540
C          4.21380        2.75250       -2.09440
C          3.06960        1.99060       -2.21560
C          0.55850       -0.69020       -2.73630
S          0.18150       -0.99650       -4.38850
C          0.30210       -2.72120       -4.10810
C          0.67160       -3.03760       -2.81490
N          0.98300       -4.30590       -2.35960
C          1.47430       -5.28860       -3.22930
C          1.07540       -6.61660       -3.08430
C          1.49620       -7.57280       -3.98160
C          2.30290       -7.21750       -5.05990
S          2.64120       -8.48310       -6.24560
C          3.36980       -7.58840       -7.64750
C          2.77450       -5.91670       -5.16160
C          2.37590       -4.96730       -4.24220
C          0.84760       -4.60420       -0.99710
C         -0.23670       -4.12140       -0.26460
C         -0.34300       -4.41150        1.07600
C          0.61630       -5.18650        1.71910
S          0.35600       -5.47070        3.44360
C          1.77980       -6.47340        3.94740
C          1.69170       -5.67910        0.99280
C          1.80370       -5.38540       -0.35210
C          0.78220       -1.85850       -2.02730
S          1.16950       -1.53150       -0.37200
C          0.05340       -3.63790       -5.21260
C          0.81270       -3.54160       -6.38080
F          1.75380       -2.58540       -6.48430
C          0.69450       -4.49240       -7.36650
F          1.56550       -4.50710       -8.39770
C         -0.25560       -5.51650       -7.26790
C         -1.19650       -5.46520       -6.21910
O         -2.35210       -6.17650       -6.24900
C         -3.08130       -6.30220       -7.46620
C         -3.68040       -7.69660       -7.55920
C         -0.95880       -4.61090       -5.12280
O         -1.65330       -4.60970       -3.96950
C         -2.47920       -5.72110       -3.62170
C         -2.72460       -5.66930       -2.12240
C         -0.18070       -6.58800       -8.23490
C         -0.28660       -7.91090       -7.95070
C         -0.36180       -8.50950       -6.58830
O         -0.56360       -7.95300       -5.53100
C         -0.13630       -9.95690       -6.79240
C         -0.06270      -10.95000       -5.83630
C          0.17800      -12.25200       -6.25380
Cl         0.28210      -13.53390       -5.11300
C          0.33680      -12.51830       -7.61680
F          0.57750      -13.77550       -8.00890
C          0.25220      -11.53100       -8.58380
C          0.00830      -10.23130       -8.16410
C         -0.15960       -8.99530       -8.91300
C         -0.28910       -8.88630      -10.27230
C         -0.62390       -7.69450      -10.94960
N         -0.94270       -6.77090      -11.55260
C         -0.16650       -9.97200      -11.16460
N         -0.06580      -10.81530      -11.93630
H          1.75220        4.89440        5.59220
H         -4.33630        4.43440        7.00820
H         -0.89920        6.60000       10.03470
H         -3.68940        5.69270       11.82360
H         -4.03150        8.15730       11.91530
H         -3.68030        9.04740        9.48150
H         -5.50980        7.92860        7.91460
H         -6.99140        6.35100        9.38380
H         -6.24320        6.62310       11.95540
H         -6.58800        8.21090       11.22470
H         -5.47240        4.60650       10.30660
H          5.34690        1.80130        4.48050
H          7.37430        1.97000        3.07820
H          7.44670        5.70120       -0.15330
H          8.01280        5.86850        1.53440
H          9.17650        5.54440        0.22690
H          5.43340        4.89410        0.63670
H          3.42330        4.72100        2.01870
H          4.98220        4.48650        5.58350
H          5.17200        4.54760        8.00910
H          4.26560        5.00130       11.54400
H          5.48830        4.60990       10.31480
H          4.07960        5.64230        9.89830
H          1.85270        1.87190        8.34540
H          1.69060        1.77230        5.88930
H         -4.06800        1.70580        0.16570
H         -5.18010        3.44370       -1.09890
H         -6.33750        5.29380       -1.84590
H         -5.76740        4.34500       -3.26280
H         -6.20720        6.05860       -3.44330
H         -1.45600        5.46460       -1.63220
H         -0.31730        3.67700       -0.38930
H         -0.95400        0.04850        2.69860
H         -1.91080       -2.10250        3.27420
H         -3.78750       -3.28920        4.13960
H         -2.44260       -4.37950        3.66240
H         -4.09720       -5.00670        3.80050
H         -4.03040       -2.15360       -0.43950
H         -3.06050        0.01050       -1.02640
H         -1.70900        0.71620       -2.38090
H         -3.70400        1.43020       -3.62800
H         -3.42360        5.72360       -5.34010
H         -3.11640        5.03970       -6.97300
H         -4.76170        5.50220       -6.49340
H         -1.36130        4.39410       -5.62430
H          0.60860        3.66560       -4.41720
H          0.76560        4.46130       -2.21540
H          2.80110        5.81480       -2.03050
H          7.70250        4.79140       -2.86840
H          7.17550        3.42330       -1.86530
H          6.54340        3.61760       -3.53400
H          5.16870        2.25540       -2.03780
H          3.16060        0.91630       -2.27120
H          0.41900       -6.89350       -2.27400
H          1.19350       -8.60020       -3.86370
H          2.72020       -6.77120       -7.94500
H          3.44590       -8.31440       -8.45130
H          4.36050       -7.22770       -7.38780
H          3.45450       -5.62890       -5.94730
H          2.76130       -3.96150       -4.31710
H         -0.99780       -3.52890       -0.74800
H         -1.17950       -4.03970        1.63860
H          1.64920       -6.65740        5.00940
H          2.69910       -5.92000        3.77890
H          1.77910       -7.41570        3.40730
H          2.45410       -6.28290        1.45810
H          2.64740       -5.76260       -0.91110
H         -3.88770       -5.55530       -7.43870
H         -2.45110       -6.09500       -8.33660
H         -4.27150       -7.90240       -6.67140
H         -4.31700       -7.76130       -8.43710
H         -2.89890       -8.44870       -7.63120
H         -3.43210       -5.65190       -4.15660
H         -1.97880       -6.65060       -3.90680
H         -1.79510       -5.78730       -1.57320
H         -3.16900       -4.71740       -1.84510
H         -3.40420       -6.46790       -1.83990
H          0.11870       -6.29330       -9.23440
H         -0.19080      -10.71900       -4.79130
H          0.38350      -11.79970       -9.61930
