222

C         -6.87590        3.69200        0.09840
C         -6.90950        4.91840       -0.50760
C         -8.21500        5.54040       -0.81440
O         -9.30640        5.16950       -0.42760
C         -7.91040        6.65640       -1.73190
C         -8.81690        7.47950       -2.39580
C         -8.23010        8.41480       -3.21500
C         -6.84250        8.52190       -3.37280
C         -5.93440        7.72080       -2.72100
C         -6.51100        6.76960       -1.87700
C         -5.87280        5.78210       -1.00800
C         -4.57780        5.84070       -0.54940
C         -3.60840        6.74730       -1.01700
N         -2.77020        7.45380       -1.36090
C         -4.09670        5.06180        0.51950
N         -3.67450        4.49530        1.42700
C         -6.96060        9.66620       -4.34850
C         -6.65610       11.07520       -3.79760
C         -7.30550       12.00300       -4.79880
C         -8.61990       11.90500       -4.64620
C         -8.88100       10.90910       -3.53920
C         -7.66410       11.18240       -2.64600
C         -8.50830        9.55030       -4.16910
C         -5.83460        2.75150        0.10310
C         -5.55850        1.75460        1.05550
N         -6.22470        1.52770        2.23300
C         -5.45690        1.22660        3.37850
C         -5.86130        0.22550        4.25780
C         -5.09070       -0.07190        5.36090
C         -3.89870        0.61120        5.59630
S         -2.94970        0.11630        7.00190
C         -1.84180        1.52760        7.27700
C         -3.50000        1.61580        4.72470
C         -4.28200        1.93020        3.63170
C         -7.60390        1.72310        2.35160
C         -8.45320        1.36350        1.30500
C         -9.79600        1.67620        1.35420
C        -10.31250        2.34400        2.45790
S        -11.99160        2.88320        2.52260
C        -12.27420        3.36410        0.79040
C         -9.48720        2.61490        3.54590
C         -8.14430        2.31160        3.49510
C         -4.36020        1.07910        0.73400
S         -3.43520       -0.14920        1.52650
C         -2.18270       -0.02290        0.31070
C         -2.47450        0.94460       -0.64980
N         -1.56530        1.41260       -1.60670
C         -0.44760        2.12640       -1.16050
C         -0.44950        2.75270        0.08340
C          0.68270        3.38690        0.55970
C          1.84090        3.41000       -0.20280
S          3.34800        4.18300        0.30110
C          3.03530        4.67630        2.02090
C          1.84540        2.79710       -1.45450
C          0.72140        2.16020       -1.92680
C         -1.91290        1.33510       -2.95930
C         -1.65700        2.38730       -3.83800
C         -1.98900        2.27150       -5.16940
C         -2.58760        1.11000       -5.65230
S         -2.96320        1.06310       -7.37860
C         -3.18790       -0.70770       -7.71000
C         -2.87460        0.07440       -4.77470
C         -2.53770        0.18820       -3.44080
C         -3.73540        1.52170       -0.42250
S         -4.64440        2.75690       -1.20890
C         -0.97380       -0.75540        0.40780
C         -0.44470       -1.43810        1.49950
N         -1.11230       -1.69690        2.69500
C         -2.24960       -2.50760        2.69170
C         -2.49410       -3.37960        1.63310
C         -3.64030       -4.15030        1.59720
C         -4.56370       -4.07150        2.62880
S         -6.06790       -4.99410        2.69410
C         -6.00780       -6.03810        1.21000
C         -4.31940       -3.20830        3.69610
C         -3.18370       -2.43500        3.72870
C         -0.46900       -1.30530        3.87520
C         -0.47320       -2.10230        5.01550
C          0.15600       -1.68310        6.17050
C          0.81740       -0.46350        6.20060
S          1.62750        0.18740        7.62890
C          1.12660       -0.94320        8.95760
C          0.85560        0.32240        5.05010
C          0.21620       -0.08890        3.90270
C          0.89620       -1.81790        1.25510
S          2.16600       -2.48770        2.22550
C          3.29240       -2.30250        0.89140
C          2.71090       -1.74520       -0.23220
N          3.45500       -1.29290       -1.31230
C          2.82220       -1.17850       -2.54960
C          3.06490       -0.10480       -3.40050
C          2.35150        0.03570       -4.57550
C          1.38240       -0.89640       -4.91910
S          0.35850       -0.77870       -6.35190
C          0.72310        0.86680       -7.02080
C          1.18590       -2.00920       -4.10530
C          1.90240       -2.15500       -2.94000
C          4.54560       -0.44860       -0.96080
C          4.34350        0.56500       -0.03090
C          5.39800        1.33860        0.40780
C          6.67140        1.11340       -0.09470
S          8.08620        2.01290        0.45150
C          7.37810        3.40290        1.38230
C          6.87020        0.12210       -1.05350
C          5.81450       -0.65240       -1.48960
C          1.33870       -1.49530       -0.01790
S          0.12240       -0.73420       -0.96310
C          4.67980       -2.66500        0.94070
S          5.26560       -3.90460       -0.12410
C          6.94350       -3.61730        0.28630
C          6.99550       -2.58970        1.21940
S          8.31040       -1.74150        1.95080
C          7.18340       -0.66930        2.75720
C          7.73140        0.46020        3.50990
O          7.08600        1.40500        3.89800
O          9.04440        0.30050        3.67980
C          9.78700        1.36980        4.26430
C         10.78450        1.91120        3.25210
C          5.87310       -0.96890        2.50620
C          5.73340       -2.06950        1.61100
Cl         4.55310       -0.14920        3.19780
C          8.05040       -4.38450       -0.12430
C          8.14980       -5.51330       -0.88040
C          9.35960       -6.36810       -0.69450
O         10.41130       -6.03650       -0.19450
C          8.96110       -7.69530       -1.18350
C          9.66740       -8.88160       -1.14600
C          9.09420      -10.04700       -1.64560
O          9.73810      -11.24900       -1.63530
C         11.03960      -11.31870       -1.10030
C          7.78470       -9.99750       -2.19000
O          7.07830      -11.02840       -2.69980
C          7.61670      -12.32440       -2.85450
C          7.09100       -8.78390       -2.22850
C          7.66920       -7.63390       -1.73110
C          7.22050       -6.24600       -1.71160
C          6.26910       -5.71790       -2.54600
C          6.17690       -4.34600       -2.84270
N          6.13190       -3.25900       -3.21100
C          5.39160       -6.49370       -3.32990
N          4.62880       -7.07360       -3.96200
H         -7.80780        3.40750        0.57280
H         -9.88010        7.36200       -2.25500
H         -4.86830        7.80190       -2.85630
H         -6.53660        9.49380       -5.33600
H         -5.61010       11.25720       -3.56680
H         -6.76170       12.57380       -5.52860
H         -9.39340       12.37740       -5.22310
H         -9.86240       10.94190       -3.07330
H         -7.68820       12.18040       -2.21160
H         -7.51710       10.44580       -1.85830
H         -9.11610        9.30300       -5.03770
H         -6.77720       -0.31450        4.07070
H         -5.39760       -0.84440        6.04880
H         -1.37840        1.35970        8.24410
H         -2.42420        2.44340        7.30060
H         -1.07600        1.56080        6.50780
H         -2.58410        2.16060        4.88540
H         -3.98120        2.72830        2.96900
H         -8.04650        0.85840        0.44080
H        -10.43260        1.41040        0.52560
H        -11.39980        3.89230        0.42080
H        -12.49490        2.49060        0.18370
H        -13.13440        4.02610        0.80240
H         -9.90410        3.10230        4.41320
H         -7.49710        2.56720        4.32030
H         -1.34560        2.75950        0.68640
H          0.63730        3.86600        1.52450
H          2.77130        3.80460        2.61290
H          3.96900        5.09730        2.38140
H          2.25500        5.43090        2.05700
H          2.74920        2.81520       -2.04400
H          0.74680        1.65970       -2.88260
H         -1.19960        3.29340       -3.46970
H         -1.79440        3.08470       -5.85240
H         -4.12820       -1.05380       -7.29040
H         -3.21260       -0.80430       -8.79090
H         -2.34260       -1.25600       -7.30470
H         -3.35040       -0.82920       -5.11930
H         -2.74890       -0.62460       -2.76100
H         -1.78070       -3.45860        0.82600
H         -3.79300       -4.80990        0.75810
H         -5.13520       -6.68370        1.24620
H         -6.91170       -6.63840        1.23880
H         -6.00540       -5.41870        0.31780
H         -5.04080       -3.14590        4.49570
H         -3.02210       -1.75410        4.54830
H         -0.96780       -3.06120        4.99820
H          0.12910       -2.32400        7.03620
H          1.49220       -0.49520        9.87650
H          0.04360       -1.02080        8.98580
H          1.58810       -1.91620        8.81560
H          1.38590        1.26300        5.07510
H          0.23270        0.53360        3.01940
H          3.80300        0.63490       -3.13060
H          2.55400        0.88680       -5.20610
H          0.55760        1.61530       -6.25130
H          1.74050        0.89870       -7.39970
H          0.01960        1.01730       -7.83400
H          0.46190       -2.75400       -4.39820
H          1.75280       -3.02570       -2.31900
H          3.35230        0.74220        0.36120
H          5.21620        2.10280        1.14360
H          8.20240        4.08670        1.56240
H          6.61640        3.88990        0.78060
H          6.97690        3.04940        2.32930
H          7.86220       -0.04190       -1.44540
H          5.96820       -1.42550       -2.22670
H         10.30080        0.95620        5.13700
H          9.08690        2.14740        4.58740
H         11.34440        2.73060        3.69360
H         10.26450        2.26770        2.36620
H         11.47420        1.12690        2.95240
H          8.97720       -4.09360        0.36540
H         10.66060       -8.87660       -0.72810
H         11.05480      -11.04150       -0.04220
H         11.33740      -12.36090       -1.20470
H         11.73710      -10.68520       -1.65600
H          6.82570      -12.89790       -3.33700
H          7.86200      -12.77890       -1.89300
H          8.50280      -12.31990       -3.49160
H          6.09950       -8.79800       -2.65020
