
  xtb     02062218503D
 energy: -442.502406411335 gnorm: 0.000242156179 xtb: 6.4.1 (unknown)
268292  0     0  0            999 V2000
    7.3110   -5.4155   -0.9176 C   0  0  0  0  0  0  0  0  0  0  0  0
    7.7760   -6.0694   -2.0380 C   0  0  0  0  0  0  0  0  0  0  0  0
    6.9499   -6.9154   -2.9129 C   0  0  0  0  0  0  0  0  0  0  0  0
    5.7688   -7.1830   -2.7695 O   0  0  0  0  0  0  0  0  0  0  0  0
    7.8794   -7.4872   -3.9104 C   0  0  0  0  0  0  0  0  0  0  0  0
    7.5664   -8.3215   -4.9797 C   0  0  0  0  0  0  0  0  0  0  0  0
    8.6449   -8.6598   -5.7634 C   0  0  0  0  0  0  0  0  0  0  0  0
    9.9480   -8.2284   -5.4877 C   0  0  0  0  0  0  0  0  0  0  0  0
   10.2740   -7.4144   -4.4295 C   0  0  0  0  0  0  0  0  0  0  0  0
    9.1868   -7.0379   -3.6381 C   0  0  0  0  0  0  0  0  0  0  0  0
    9.1387   -6.1444   -2.4849 C   0  0  0  0  0  0  0  0  0  0  0  0
   10.1694   -5.3555   -2.0332 C   0  0  0  0  0  0  0  0  0  0  0  0
   10.0278   -4.3614   -1.0448 C   0  0  0  0  0  0  0  0  0  0  0  0
    9.9778   -3.4974   -0.2888 N   0  0  0  0  0  0  0  0  0  0  0  0
   11.4696   -5.3505   -2.5688 C   0  0  0  0  0  0  0  0  0  0  0  0
   12.5422   -5.2642   -2.9733 N   0  0  0  0  0  0  0  0  0  0  0  0
   10.5291   -8.9560   -6.6746 C   0  0  0  0  0  0  0  0  0  0  0  0
   10.8932   -8.0941   -7.9013 C   0  0  0  0  0  0  0  0  0  0  0  0
   10.9608   -9.0882   -9.0375 C   0  0  0  0  0  0  0  0  0  0  0  0
    9.7212   -9.4767   -9.3075 C   0  0  0  0  0  0  0  0  0  0  0  0
    8.7950   -8.7531   -8.3563 C   0  0  0  0  0  0  0  0  0  0  0  0
    9.5496   -7.4251   -8.2141 C   0  0  0  0  0  0  0  0  0  0  0  0
    9.0725   -9.4231   -6.9932 C   0  0  0  0  0  0  0  0  0  0  0  0
    6.0103   -4.9504   -0.7118 C   0  0  0  0  0  0  0  0  0  0  0  0
    4.9749   -4.6187   -1.6076 C   0  0  0  0  0  0  0  0  0  0  0  0
    4.9993   -4.6215   -2.9768 N   0  0  0  0  0  0  0  0  0  0  0  0
    3.7608   -4.7867   -3.6382 C   0  0  0  0  0  0  0  0  0  0  0  0
    2.9352   -5.8587   -3.3036 C   0  0  0  0  0  0  0  0  0  0  0  0
    1.7050   -5.9929   -3.9045 C   0  0  0  0  0  0  0  0  0  0  0  0
    1.2776   -5.0632   -4.8531 C   0  0  0  0  0  0  0  0  0  0  0  0
   -0.3297   -5.3214   -5.5272 S   0  0  0  0  0  0  0  0  0  0  0  0
   -0.5879   -3.8950   -6.6191 C   0  0  0  0  0  0  0  0  0  0  0  0
    2.1163   -4.0162   -5.2134 C   0  0  0  0  0  0  0  0  0  0  0  0
    3.3510   -3.8801   -4.6081 C   0  0  0  0  0  0  0  0  0  0  0  0
    6.1404   -4.4204   -3.7516 C   0  0  0  0  0  0  0  0  0  0  0  0
    6.2375   -5.0377   -5.0030 C   0  0  0  0  0  0  0  0  0  0  0  0
    7.3699   -4.8898   -5.7672 C   0  0  0  0  0  0  0  0  0  0  0  0
    8.4464   -4.1307   -5.3060 C   0  0  0  0  0  0  0  0  0  0  0  0
    9.8767   -4.0984   -6.3300 S   0  0  0  0  0  0  0  0  0  0  0  0
   11.0210   -2.9781   -5.4795 C   0  0  0  0  0  0  0  0  0  0  0  0
    8.3340   -3.4710   -4.0882 C   0  0  0  0  0  0  0  0  0  0  0  0
    7.1927   -3.6130   -3.3229 C   0  0  0  0  0  0  0  0  0  0  0  0
    3.8445   -4.1462   -0.8985 C   0  0  0  0  0  0  0  0  0  0  0  0
    2.3466   -3.4511   -1.4101 S   0  0  0  0  0  0  0  0  0  0  0  0
    1.9148   -3.0950    0.2545 C   0  0  0  0  0  0  0  0  0  0  0  0
    2.9043   -3.4683    1.1554 C   0  0  0  0  0  0  0  0  0  0  0  0
    2.8517   -3.2076    2.5126 N   0  0  0  0  0  0  0  0  0  0  0  0
    3.5009   -4.0005    3.4621 C   0  0  0  0  0  0  0  0  0  0  0  0
    3.7827   -5.3410    3.2178 C   0  0  0  0  0  0  0  0  0  0  0  0
    4.4036   -6.1285    4.1677 C   0  0  0  0  0  0  0  0  0  0  0  0
    4.7582   -5.5889    5.3938 C   0  0  0  0  0  0  0  0  0  0  0  0
    5.5308   -6.5008    6.6940 S   0  0  0  0  0  0  0  0  0  0  0  0
    5.8846   -8.1125    5.9373 C   0  0  0  0  0  0  0  0  0  0  0  0
    4.4885   -4.2448    5.6447 C   0  0  0  0  0  0  0  0  0  0  0  0
    3.8751   -3.4599    4.6951 C   0  0  0  0  0  0  0  0  0  0  0  0
    2.2547   -1.9918    2.9135 C   0  0  0  0  0  0  0  0  0  0  0  0
    1.2438   -1.9686    3.8663 C   0  0  0  0  0  0  0  0  0  0  0  0
    0.6349   -0.7786    4.2156 C   0  0  0  0  0  0  0  0  0  0  0  0
    1.0499    0.4108    3.6313 C   0  0  0  0  0  0  0  0  0  0  0  0
    0.3146    1.9843    3.9485 S   0  0  0  0  0  0  0  0  0  0  0  0
   -0.7262    1.6888    5.4010 C   0  0  0  0  0  0  0  0  0  0  0  0
    2.0977    0.3950    2.7138 C   0  0  0  0  0  0  0  0  0  0  0  0
    2.6847   -0.7944    2.3464 C   0  0  0  0  0  0  0  0  0  0  0  0
    3.9942   -4.0711    0.4780 C   0  0  0  0  0  0  0  0  0  0  0  0
    5.5703   -4.5810    0.9657 S   0  0  0  0  0  0  0  0  0  0  0  0
    0.7380   -2.2952    0.4760 C   0  0  0  0  0  0  0  0  0  0  0  0
   -0.3861   -2.4951    1.2516 C   0  0  0  0  0  0  0  0  0  0  0  0
   -0.8509   -3.6884    1.7874 N   0  0  0  0  0  0  0  0  0  0  0  0
   -0.0165   -4.8501    1.7080 C   0  0  0  0  0  0  0  0  0  0  0  0
    0.3083   -5.3958    0.4721 C   0  0  0  0  0  0  0  0  0  0  0  0
    1.1020   -6.5232    0.3882 C   0  0  0  0  0  0  0  0  0  0  0  0
    1.5396   -7.1437    1.5503 C   0  0  0  0  0  0  0  0  0  0  0  0
    2.6119   -8.5472    1.5554 S   0  0  0  0  0  0  0  0  0  0  0  0
    3.3624   -8.5073   -0.0978 C   0  0  0  0  0  0  0  0  0  0  0  0
    1.1437   -6.6449    2.7904 C   0  0  0  0  0  0  0  0  0  0  0  0
    0.3865   -5.4949    2.8683 C   0  0  0  0  0  0  0  0  0  0  0  0
   -2.1917   -4.0462    1.4595 C   0  0  0  0  0  0  0  0  0  0  0  0
   -2.8373   -5.0013    2.2364 C   0  0  0  0  0  0  0  0  0  0  0  0
   -4.0684   -5.5063    1.8638 C   0  0  0  0  0  0  0  0  0  0  0  0
   -4.6816   -5.0574    0.7027 C   0  0  0  0  0  0  0  0  0  0  0  0
   -6.2116   -5.6720    0.0770 S   0  0  0  0  0  0  0  0  0  0  0  0
   -6.6990   -6.9512    1.2629 C   0  0  0  0  0  0  0  0  0  0  0  0
   -4.0594   -4.0673   -0.0533 C   0  0  0  0  0  0  0  0  0  0  0  0
   -2.8288   -3.5722    0.3144 C   0  0  0  0  0  0  0  0  0  0  0  0
   -1.1430   -1.2931    1.3577 C   0  0  0  0  0  0  0  0  0  0  0  0
   -2.4761   -0.7854    2.3423 S   0  0  0  0  0  0  0  0  0  0  0  0
   -2.4396    0.8079    1.6057 C   0  0  0  0  0  0  0  0  0  0  0  0
   -1.4683    0.9118    0.6388 C   0  0  0  0  0  0  0  0  0  0  0  0
   -1.4186    2.0059   -0.2479 N   0  0  0  0  0  0  0  0  0  0  0  0
   -2.1997    1.9225   -1.3958 C   0  0  0  0  0  0  0  0  0  0  0  0
   -3.1351    0.8967   -1.5540 C   0  0  0  0  0  0  0  0  0  0  0  0
   -3.9404    0.8262   -2.6737 C   0  0  0  0  0  0  0  0  0  0  0  0
   -3.8365    1.7824   -3.6698 C   0  0  0  0  0  0  0  0  0  0  0  0
   -4.8640    1.8249   -5.1098 S   0  0  0  0  0  0  0  0  0  0  0  0
   -6.1779    0.6295   -4.7406 C   0  0  0  0  0  0  0  0  0  0  0  0
   -2.8656    2.7728   -3.5532 C   0  0  0  0  0  0  0  0  0  0  0  0
   -2.0517    2.8360   -2.4446 C   0  0  0  0  0  0  0  0  0  0  0  0
   -0.5845    3.0958    0.0504 C   0  0  0  0  0  0  0  0  0  0  0  0
   -1.0342    4.4094   -0.0519 C   0  0  0  0  0  0  0  0  0  0  0  0
   -0.1838    5.4691    0.2049 C   0  0  0  0  0  0  0  0  0  0  0  0
    1.1294    5.2284    0.5878 C   0  0  0  0  0  0  0  0  0  0  0  0
    2.3079    6.4985    0.9397 S   0  0  0  0  0  0  0  0  0  0  0  0
    1.5876    7.9870    0.1989 C   0  0  0  0  0  0  0  0  0  0  0  0
    1.5683    3.9146    0.7358 C   0  0  0  0  0  0  0  0  0  0  0  0
    0.7231    2.8621    0.4701 C   0  0  0  0  0  0  0  0  0  0  0  0
   -0.6978   -0.2686    0.5430 C   0  0  0  0  0  0  0  0  0  0  0  0
    0.7400   -0.7019   -0.2976 S   0  0  0  0  0  0  0  0  0  0  0  0
   -3.2670    1.9378    1.9768 C   0  0  0  0  0  0  0  0  0  0  0  0
   -4.5249    2.2778    1.5292 C   0  0  0  0  0  0  0  0  0  0  0  0
   -5.3778    1.4281    0.8343 N   0  0  0  0  0  0  0  0  0  0  0  0
   -6.1175    1.9560   -0.2322 C   0  0  0  0  0  0  0  0  0  0  0  0
   -5.5537    2.9428   -1.0381 C   0  0  0  0  0  0  0  0  0  0  0  0
   -6.2486    3.4752   -2.1055 C   0  0  0  0  0  0  0  0  0  0  0  0
   -7.5267    3.0207   -2.3975 C   0  0  0  0  0  0  0  0  0  0  0  0
   -8.4953    3.5885   -3.7595 S   0  0  0  0  0  0  0  0  0  0  0  0
   -7.3490    4.6337   -4.7007 C   0  0  0  0  0  0  0  0  0  0  0  0
   -8.1076    2.0544   -1.5769 C   0  0  0  0  0  0  0  0  0  0  0  0
   -7.4197    1.5350   -0.5032 C   0  0  0  0  0  0  0  0  0  0  0  0
   -5.6508    0.1744    1.3941 C   0  0  0  0  0  0  0  0  0  0  0  0
   -5.5679   -0.0047    2.7747 C   0  0  0  0  0  0  0  0  0  0  0  0
   -5.8403   -1.2281    3.3484 C   0  0  0  0  0  0  0  0  0  0  0  0
   -6.2193   -2.2978    2.5519 C   0  0  0  0  0  0  0  0  0  0  0  0
   -6.6315   -3.8730    3.2387 S   0  0  0  0  0  0  0  0  0  0  0  0
   -5.5627   -3.9464    4.7076 C   0  0  0  0  0  0  0  0  0  0  0  0
   -6.3207   -2.1271    1.1756 C   0  0  0  0  0  0  0  0  0  0  0  0
   -6.0206   -0.9106    0.6001 C   0  0  0  0  0  0  0  0  0  0  0  0
   -4.8610    3.6015    1.9081 C   0  0  0  0  0  0  0  0  0  0  0  0
   -6.2302    4.6019    1.6016 S   0  0  0  0  0  0  0  0  0  0  0  0
   -5.4587    5.9318    2.4724 C   0  0  0  0  0  0  0  0  0  0  0  0
   -4.2622    5.5445    3.0981 C   0  0  0  0  0  0  0  0  0  0  0  0
   -3.6083    6.2376    4.0815 N   0  0  0  0  0  0  0  0  0  0  0  0
   -2.2872    5.8811    4.4387 C   0  0  0  0  0  0  0  0  0  0  0  0
   -1.2812    5.8053    3.4836 C   0  0  0  0  0  0  0  0  0  0  0  0
    0.0106    5.4842    3.8527 C   0  0  0  0  0  0  0  0  0  0  0  0
    0.3147    5.2393    5.1853 C   0  0  0  0  0  0  0  0  0  0  0  0
    1.9216    4.8297    5.7662 S   0  0  0  0  0  0  0  0  0  0  0  0
    2.8919    4.6161    4.2512 C   0  0  0  0  0  0  0  0  0  0  0  0
   -0.6945    5.3267    6.1465 C   0  0  0  0  0  0  0  0  0  0  0  0
   -1.9818    5.6444    5.7786 C   0  0  0  0  0  0  0  0  0  0  0  0
   -4.2090    7.2532    4.8494 C   0  0  0  0  0  0  0  0  0  0  0  0
   -3.4405    8.3532    5.2367 C   0  0  0  0  0  0  0  0  0  0  0  0
   -4.0271    9.4227    5.8749 C   0  0  0  0  0  0  0  0  0  0  0  0
   -5.3969    9.4272    6.1299 C   0  0  0  0  0  0  0  0  0  0  0  0
   -6.1081   10.8967    6.7966 S   0  0  0  0  0  0  0  0  0  0  0  0
   -7.7981   10.8410    6.1357 C   0  0  0  0  0  0  0  0  0  0  0  0
   -6.1418    8.2894    5.8455 C   0  0  0  0  0  0  0  0  0  0  0  0
   -5.5495    7.2093    5.2224 C   0  0  0  0  0  0  0  0  0  0  0  0
   -3.9062    4.2308    2.6911 C   0  0  0  0  0  0  0  0  0  0  0  0
   -2.5358    3.2071    2.9463 S   0  0  0  0  0  0  0  0  0  0  0  0
   -6.0767    7.1964    2.4347 C   0  0  0  0  0  0  0  0  0  0  0  0
   -5.4189    8.3890    2.4452 C   0  0  0  0  0  0  0  0  0  0  0  0
   -3.7041    8.5910    2.1400 S   0  0  0  0  0  0  0  0  0  0  0  0
   -3.8488   10.3220    2.3125 C   0  0  0  0  0  0  0  0  0  0  0  0
   -2.7725   11.1438    2.0829 C   0  0  0  0  0  0  0  0  0  0  0  0
   -1.5355   10.5545    1.7709 C   0  0  0  0  0  0  0  0  0  0  0  0
   -0.5360   10.0471    1.5218 N   0  0  0  0  0  0  0  0  0  0  0  0
   -2.8121   12.5483    2.0767 C   0  0  0  0  0  0  0  0  0  0  0  0
   -2.7839   13.6950    2.0261 N   0  0  0  0  0  0  0  0  0  0  0  0
   -5.1126   10.6911    2.6394 N   0  0  0  0  0  0  0  0  0  0  0  0
   -5.4802   12.0140    3.0197 C   0  0  0  0  0  0  0  0  0  0  0  0
   -4.8764   12.6046    4.1204 C   0  0  0  0  0  0  0  0  0  0  0  0
   -5.2760   13.8674    4.5144 C   0  0  0  0  0  0  0  0  0  0  0  0
   -6.2743   14.5287    3.8195 C   0  0  0  0  0  0  0  0  0  0  0  0
   -6.8788   13.9275    2.7287 C   0  0  0  0  0  0  0  0  0  0  0  0
   -6.4859   12.6649    2.3229 C   0  0  0  0  0  0  0  0  0  0  0  0
   -6.0534    9.6639    2.7068 C   0  0  0  0  0  0  0  0  0  0  0  0
   -7.2137    9.8412    3.0137 O   0  0  0  0  0  0  0  0  0  0  0  0
    8.0015   -5.2313   -0.1032 H   0  0  0  0  0  0  0  0  0  0  0  0
    6.5516   -8.6441   -5.1542 H   0  0  0  0  0  0  0  0  0  0  0  0
   11.2816   -7.0945   -4.2219 H   0  0  0  0  0  0  0  0  0  0  0  0
   11.2778   -9.7123   -6.4462 H   0  0  0  0  0  0  0  0  0  0  0  0
   11.7529   -7.4448   -7.7629 H   0  0  0  0  0  0  0  0  0  0  0  0
   11.8769   -9.4367   -9.4774 H   0  0  0  0  0  0  0  0  0  0  0  0
    9.3954  -10.2152  -10.0167 H   0  0  0  0  0  0  0  0  0  0  0  0
    7.7457   -8.7073   -8.6364 H   0  0  0  0  0  0  0  0  0  0  0  0
    9.1875   -6.7841   -7.4137 H   0  0  0  0  0  0  0  0  0  0  0  0
    9.5763   -6.8623   -9.1455 H   0  0  0  0  0  0  0  0  0  0  0  0
    8.8543  -10.4897   -6.9925 H   0  0  0  0  0  0  0  0  0  0  0  0
    3.2905   -6.5845   -2.5892 H   0  0  0  0  0  0  0  0  0  0  0  0
    1.0556   -6.8180   -3.6540 H   0  0  0  0  0  0  0  0  0  0  0  0
   -0.5152   -2.9742   -6.0479 H   0  0  0  0  0  0  0  0  0  0  0  0
    0.1280   -3.9142   -7.4356 H   0  0  0  0  0  0  0  0  0  0  0  0
   -1.5941   -4.0074   -7.0110 H   0  0  0  0  0  0  0  0  0  0  0  0
    1.8190   -3.2929   -5.9549 H   0  0  0  0  0  0  0  0  0  0  0  0
    3.9974   -3.0586   -4.8797 H   0  0  0  0  0  0  0  0  0  0  0  0
    5.4241   -5.6532   -5.3551 H   0  0  0  0  0  0  0  0  0  0  0  0
    7.4432   -5.3772   -6.7269 H   0  0  0  0  0  0  0  0  0  0  0  0
   11.3318   -3.4055   -4.5307 H   0  0  0  0  0  0  0  0  0  0  0  0
   10.5578   -2.0047   -5.3486 H   0  0  0  0  0  0  0  0  0  0  0  0
   11.8806   -2.8918   -6.1368 H   0  0  0  0  0  0  0  0  0  0  0  0
    9.1324   -2.8500   -3.7140 H   0  0  0  0  0  0  0  0  0  0  0  0
    7.1233   -3.0885   -2.3818 H   0  0  0  0  0  0  0  0  0  0  0  0
    3.5009   -5.7876    2.2814 H   0  0  0  0  0  0  0  0  0  0  0  0
    4.5892   -7.1632    3.9305 H   0  0  0  0  0  0  0  0  0  0  0  0
    6.4282   -8.6756    6.6896 H   0  0  0  0  0  0  0  0  0  0  0  0
    6.5049   -7.9763    5.0565 H   0  0  0  0  0  0  0  0  0  0  0  0
    4.9582   -8.6242    5.6925 H   0  0  0  0  0  0  0  0  0  0  0  0
    4.7746   -3.8209    6.5951 H   0  0  0  0  0  0  0  0  0  0  0  0
    3.6904   -2.4175    4.9050 H   0  0  0  0  0  0  0  0  0  0  0  0
    0.9277   -2.8920    4.3256 H   0  0  0  0  0  0  0  0  0  0  0  0
   -0.1677   -0.7940    4.9348 H   0  0  0  0  0  0  0  0  0  0  0  0
   -1.0948    2.6671    5.6956 H   0  0  0  0  0  0  0  0  0  0  0  0
   -1.5594    1.0425    5.1387 H   0  0  0  0  0  0  0  0  0  0  0  0
   -0.1242    1.2621    6.1973 H   0  0  0  0  0  0  0  0  0  0  0  0
    2.4460    1.3265    2.2970 H   0  0  0  0  0  0  0  0  0  0  0  0
    3.4865   -0.8049    1.6229 H   0  0  0  0  0  0  0  0  0  0  0  0
   -0.0655   -4.9390   -0.4326 H   0  0  0  0  0  0  0  0  0  0  0  0
    1.3600   -6.9102   -0.5843 H   0  0  0  0  0  0  0  0  0  0  0  0
    3.7662   -7.5186   -0.2954 H   0  0  0  0  0  0  0  0  0  0  0  0
    2.6381   -8.7984   -0.8528 H   0  0  0  0  0  0  0  0  0  0  0  0
    4.1709   -9.2311   -0.0732 H   0  0  0  0  0  0  0  0  0  0  0  0
    1.4606   -7.1530    3.6876 H   0  0  0  0  0  0  0  0  0  0  0  0
    0.1081   -5.0952    3.8312 H   0  0  0  0  0  0  0  0  0  0  0  0
   -2.3546   -5.3783    3.1252 H   0  0  0  0  0  0  0  0  0  0  0  0
   -4.5326   -6.2575    2.4816 H   0  0  0  0  0  0  0  0  0  0  0  0
   -7.6265   -7.3649    0.8795 H   0  0  0  0  0  0  0  0  0  0  0  0
   -5.9383   -7.7253    1.3054 H   0  0  0  0  0  0  0  0  0  0  0  0
   -6.8705   -6.4983    2.2349 H   0  0  0  0  0  0  0  0  0  0  0  0
   -4.5354   -3.7166   -0.9560 H   0  0  0  0  0  0  0  0  0  0  0  0
   -2.3469   -2.8397   -0.3163 H   0  0  0  0  0  0  0  0  0  0  0  0
   -3.2549    0.1404   -0.7939 H   0  0  0  0  0  0  0  0  0  0  0  0
   -4.6508    0.0185   -2.7482 H   0  0  0  0  0  0  0  0  0  0  0  0
   -6.9170    0.7530   -5.5261 H   0  0  0  0  0  0  0  0  0  0  0  0
   -5.7813   -0.3817   -4.7640 H   0  0  0  0  0  0  0  0  0  0  0  0
   -6.6216    0.8600   -3.7761 H   0  0  0  0  0  0  0  0  0  0  0  0
   -2.7522    3.4949   -4.3478 H   0  0  0  0  0  0  0  0  0  0  0  0
   -1.2901    3.5980   -2.3915 H   0  0  0  0  0  0  0  0  0  0  0  0
   -2.0585    4.6065   -0.3358 H   0  0  0  0  0  0  0  0  0  0  0  0
   -0.5533    6.4787    0.1085 H   0  0  0  0  0  0  0  0  0  0  0  0
    1.2880    7.7695   -0.8221 H   0  0  0  0  0  0  0  0  0  0  0  0
    2.3830    8.7259    0.2007 H   0  0  0  0  0  0  0  0  0  0  0  0
    0.7557    8.3524    0.7933 H   0  0  0  0  0  0  0  0  0  0  0  0
    2.5902    3.7367    1.0360 H   0  0  0  0  0  0  0  0  0  0  0  0
    1.0772    1.8478    0.5549 H   0  0  0  0  0  0  0  0  0  0  0  0
   -4.5518    3.2907   -0.8376 H   0  0  0  0  0  0  0  0  0  0  0  0
   -5.7726    4.2315   -2.7076 H   0  0  0  0  0  0  0  0  0  0  0  0
   -7.0962    5.5208   -4.1272 H   0  0  0  0  0  0  0  0  0  0  0  0
   -6.4634    4.0618   -4.9644 H   0  0  0  0  0  0  0  0  0  0  0  0
   -7.8869    4.9185   -5.5995 H   0  0  0  0  0  0  0  0  0  0  0  0
   -9.1114    1.7203   -1.7911 H   0  0  0  0  0  0  0  0  0  0  0  0
   -7.8937    0.8026    0.1322 H   0  0  0  0  0  0  0  0  0  0  0  0
   -5.3047    0.8269    3.4113 H   0  0  0  0  0  0  0  0  0  0  0  0
   -5.7771   -1.3292    4.4202 H   0  0  0  0  0  0  0  0  0  0  0  0
   -5.9771   -3.3457    5.5120 H   0  0  0  0  0  0  0  0  0  0  0  0
   -5.5359   -4.9882    5.0114 H   0  0  0  0  0  0  0  0  0  0  0  0
   -4.5671   -3.6098    4.4339 H   0  0  0  0  0  0  0  0  0  0  0  0
   -6.6376   -2.9549    0.5617 H   0  0  0  0  0  0  0  0  0  0  0  0
   -6.0768   -0.7938   -0.4713 H   0  0  0  0  0  0  0  0  0  0  0  0
   -1.5075    6.0146    2.4492 H   0  0  0  0  0  0  0  0  0  0  0  0
    0.7712    5.4366    3.0944 H   0  0  0  0  0  0  0  0  0  0  0  0
    2.4235    3.8529    3.6370 H   0  0  0  0  0  0  0  0  0  0  0  0
    2.9770    5.5585    3.7181 H   0  0  0  0  0  0  0  0  0  0  0  0
    3.8732    4.2857    4.5774 H   0  0  0  0  0  0  0  0  0  0  0  0
   -0.4515    5.1414    7.1818 H   0  0  0  0  0  0  0  0  0  0  0  0
   -2.7614    5.7124    6.5233 H   0  0  0  0  0  0  0  0  0  0  0  0
   -2.3882    8.3790    4.9945 H   0  0  0  0  0  0  0  0  0  0  0  0
   -3.4333   10.2783    6.1585 H   0  0  0  0  0  0  0  0  0  0  0  0
   -7.7678   10.5337    5.0934 H   0  0  0  0  0  0  0  0  0  0  0  0
   -8.4148   10.1706    6.7273 H   0  0  0  0  0  0  0  0  0  0  0  0
   -8.1780   11.8549    6.2135 H   0  0  0  0  0  0  0  0  0  0  0  0
   -7.1885    8.2418    6.0974 H   0  0  0  0  0  0  0  0  0  0  0  0
   -6.1408    6.3319    5.0098 H   0  0  0  0  0  0  0  0  0  0  0  0
   -7.1568    7.2401    2.3621 H   0  0  0  0  0  0  0  0  0  0  0  0
   -4.1069   12.0783    4.6637 H   0  0  0  0  0  0  0  0  0  0  0  0
   -4.8086   14.3289    5.3699 H   0  0  0  0  0  0  0  0  0  0  0  0
   -6.5832   15.5150    4.1302 H   0  0  0  0  0  0  0  0  0  0  0  0
   -7.6588   14.4412    2.1878 H   0  0  0  0  0  0  0  0  0  0  0  0
   -6.9538   12.1836    1.4781 H   0  0  0  0  0  0  0  0  0  0  0  0
  1  2  2  0  0  0  0
  2  3  1  0  0  0  0
  3  4  2  0  0  0  0
  3  5  1  0  0  0  0
  5  6  2  0  0  0  0
  6  7  1  0  0  0  0
  7  8  2  0  0  0  0
  8  9  1  0  0  0  0
  9 10  2  0  0  0  0
 10 11  1  0  0  0  0
 11 12  2  0  0  0  0
 12 13  1  0  0  0  0
 13 14  3  0  0  0  0
 12 15  1  0  0  0  0
 15 16  3  0  0  0  0
  8 17  1  0  0  0  0
 17 18  1  0  0  0  0
 18 19  1  0  0  0  0
 19 20  2  0  0  0  0
 20 21  1  0  0  0  0
 21 22  1  0  0  0  0
 21 23  1  0  0  0  0
  1 24  1  0  0  0  0
 24 25  2  0  0  0  0
 25 26  1  0  0  0  0
 26 27  1  0  0  0  0
 27 28  2  0  0  0  0
 28 29  1  0  0  0  0
 29 30  2  0  0  0  0
 30 31  1  0  0  0  0
 31 32  1  0  0  0  0
 30 33  1  0  0  0  0
 33 34  2  0  0  0  0
 26 35  1  0  0  0  0
 35 36  2  0  0  0  0
 36 37  1  0  0  0  0
 37 38  2  0  0  0  0
 38 39  1  0  0  0  0
 39 40  1  0  0  0  0
 38 41  1  0  0  0  0
 41 42  2  0  0  0  0
 25 43  1  0  0  0  0
 43 44  1  0  0  0  0
 44 45  1  0  0  0  0
 45 46  2  0  0  0  0
 46 47  1  0  0  0  0
 47 48  1  0  0  0  0
 48 49  2  0  0  0  0
 49 50  1  0  0  0  0
 50 51  2  0  0  0  0
 51 52  1  0  0  0  0
 52 53  1  0  0  0  0
 51 54  1  0  0  0  0
 54 55  2  0  0  0  0
 47 56  1  0  0  0  0
 56 57  2  0  0  0  0
 57 58  1  0  0  0  0
 58 59  2  0  0  0  0
 59 60  1  0  0  0  0
 60 61  1  0  0  0  0
 59 62  1  0  0  0  0
 62 63  2  0  0  0  0
 46 64  1  0  0  0  0
 64 65  1  0  0  0  0
 45 66  1  0  0  0  0
 66 67  2  0  0  0  0
 67 68  1  0  0  0  0
 68 69  1  0  0  0  0
 69 70  2  0  0  0  0
 70 71  1  0  0  0  0
 71 72  2  0  0  0  0
 72 73  1  0  0  0  0
 73 74  1  0  0  0  0
 72 75  1  0  0  0  0
 75 76  2  0  0  0  0
 68 77  1  0  0  0  0
 77 78  2  0  0  0  0
 78 79  1  0  0  0  0
 79 80  2  0  0  0  0
 80 81  1  0  0  0  0
 81 82  1  0  0  0  0
 80 83  1  0  0  0  0
 83 84  2  0  0  0  0
 67 85  1  0  0  0  0
 85 86  1  0  0  0  0
 86 87  1  0  0  0  0
 87 88  2  0  0  0  0
 88 89  1  0  0  0  0
 89 90  1  0  0  0  0
 90 91  2  0  0  0  0
 91 92  1  0  0  0  0
 92 93  2  0  0  0  0
 93 94  1  0  0  0  0
 94 95  1  0  0  0  0
 93 96  1  0  0  0  0
 96 97  2  0  0  0  0
 89 98  1  0  0  0  0
 98 99  2  0  0  0  0
 99100  1  0  0  0  0
100101  2  0  0  0  0
101102  1  0  0  0  0
102103  1  0  0  0  0
101104  1  0  0  0  0
104105  2  0  0  0  0
 88106  1  0  0  0  0
106107  1  0  0  0  0
 87108  1  0  0  0  0
108109  2  0  0  0  0
109110  1  0  0  0  0
110111  1  0  0  0  0
111112  2  0  0  0  0
112113  1  0  0  0  0
113114  2  0  0  0  0
114115  1  0  0  0  0
115116  1  0  0  0  0
114117  1  0  0  0  0
117118  2  0  0  0  0
110119  1  0  0  0  0
119120  2  0  0  0  0
120121  1  0  0  0  0
121122  2  0  0  0  0
122123  1  0  0  0  0
123124  1  0  0  0  0
122125  1  0  0  0  0
125126  2  0  0  0  0
109127  1  0  0  0  0
127128  1  0  0  0  0
128129  1  0  0  0  0
129130  2  0  0  0  0
130131  1  0  0  0  0
131132  1  0  0  0  0
132133  2  0  0  0  0
133134  1  0  0  0  0
134135  2  0  0  0  0
135136  1  0  0  0  0
136137  1  0  0  0  0
135138  1  0  0  0  0
138139  2  0  0  0  0
131140  1  0  0  0  0
140141  2  0  0  0  0
141142  1  0  0  0  0
142143  2  0  0  0  0
143144  1  0  0  0  0
144145  1  0  0  0  0
143146  1  0  0  0  0
146147  2  0  0  0  0
130148  1  0  0  0  0
148149  1  0  0  0  0
129150  1  0  0  0  0
150151  2  0  0  0  0
151152  1  0  0  0  0
152153  1  0  0  0  0
153154  2  0  0  0  0
154155  1  0  0  0  0
155156  3  0  0  0  0
154157  1  0  0  0  0
157158  3  0  0  0  0
153159  1  0  0  0  0
159160  1  0  0  0  0
160161  2  0  0  0  0
161162  1  0  0  0  0
162163  2  0  0  0  0
163164  1  0  0  0  0
164165  2  0  0  0  0
159166  1  0  0  0  0
166167  2  0  0  0  0
 11  2  1  0  0  0  0
 23 17  1  0  0  0  0
 65 24  1  0  0  0  0
107 66  1  0  0  0  0
149108  1  0  0  0  0
166151  1  0  0  0  0
 10  5  1  0  0  0  0
 22 18  1  0  0  0  0
 34 27  1  0  0  0  0
 42 35  1  0  0  0  0
 64 43  2  0  0  0  0
 76 69  1  0  0  0  0
 84 77  1  0  0  0  0
106 85  2  0  0  0  0
118111  1  0  0  0  0
126119  1  0  0  0  0
148127  2  0  0  0  0
165160  1  0  0  0  0
 23  7  1  0  0  0  0
 55 48  1  0  0  0  0
 63 56  1  0  0  0  0
 97 90  1  0  0  0  0
105 98  1  0  0  0  0
139132  1  0  0  0  0
147140  1  0  0  0  0
  1168  1  0  0  0  0
  6169  1  0  0  0  0
  9170  1  0  0  0  0
 17171  1  0  0  0  0
 18172  1  0  0  0  0
 19173  1  0  0  0  0
 20174  1  0  0  0  0
 21175  1  0  0  0  0
 22176  1  0  0  0  0
 22177  1  0  0  0  0
 23178  1  0  0  0  0
 28179  1  0  0  0  0
 29180  1  0  0  0  0
 32181  1  0  0  0  0
 32182  1  0  0  0  0
 32183  1  0  0  0  0
 33184  1  0  0  0  0
 34185  1  0  0  0  0
 36186  1  0  0  0  0
 37187  1  0  0  0  0
 40188  1  0  0  0  0
 40189  1  0  0  0  0
 40190  1  0  0  0  0
 41191  1  0  0  0  0
 42192  1  0  0  0  0
 49193  1  0  0  0  0
 50194  1  0  0  0  0
 53195  1  0  0  0  0
 53196  1  0  0  0  0
 53197  1  0  0  0  0
 54198  1  0  0  0  0
 55199  1  0  0  0  0
 57200  1  0  0  0  0
 58201  1  0  0  0  0
 61202  1  0  0  0  0
 61203  1  0  0  0  0
 61204  1  0  0  0  0
 62205  1  0  0  0  0
 63206  1  0  0  0  0
 70207  1  0  0  0  0
 71208  1  0  0  0  0
 74209  1  0  0  0  0
 74210  1  0  0  0  0
 74211  1  0  0  0  0
 75212  1  0  0  0  0
 76213  1  0  0  0  0
 78214  1  0  0  0  0
 79215  1  0  0  0  0
 82216  1  0  0  0  0
 82217  1  0  0  0  0
 82218  1  0  0  0  0
 83219  1  0  0  0  0
 84220  1  0  0  0  0
 91221  1  0  0  0  0
 92222  1  0  0  0  0
 95223  1  0  0  0  0
 95224  1  0  0  0  0
 95225  1  0  0  0  0
 96226  1  0  0  0  0
 97227  1  0  0  0  0
 99228  1  0  0  0  0
100229  1  0  0  0  0
103230  1  0  0  0  0
103231  1  0  0  0  0
103232  1  0  0  0  0
104233  1  0  0  0  0
105234  1  0  0  0  0
112235  1  0  0  0  0
113236  1  0  0  0  0
116237  1  0  0  0  0
116238  1  0  0  0  0
116239  1  0  0  0  0
117240  1  0  0  0  0
118241  1  0  0  0  0
120242  1  0  0  0  0
121243  1  0  0  0  0
124244  1  0  0  0  0
124245  1  0  0  0  0
124246  1  0  0  0  0
125247  1  0  0  0  0
126248  1  0  0  0  0
133249  1  0  0  0  0
134250  1  0  0  0  0
137251  1  0  0  0  0
137252  1  0  0  0  0
137253  1  0  0  0  0
138254  1  0  0  0  0
139255  1  0  0  0  0
141256  1  0  0  0  0
142257  1  0  0  0  0
145258  1  0  0  0  0
145259  1  0  0  0  0
145260  1  0  0  0  0
146261  1  0  0  0  0
147262  1  0  0  0  0
150263  1  0  0  0  0
161264  1  0  0  0  0
162265  1  0  0  0  0
163266  1  0  0  0  0
164267  1  0  0  0  0
165268  1  0  0  0  0
M  END
