
  xtb     02062217273D
 energy: -372.750553509735 gnorm: 0.000501142289 xtb: 6.4.1 (unknown)
219242  0     0  0            999 V2000
    3.5232   -3.2756   -5.1653 C   0  0  0  0  0  0  0  0  0  0  0  0
    3.4802   -2.8778   -6.4811 C   0  0  0  0  0  0  0  0  0  0  0  0
    2.4297   -2.0710   -7.1010 C   0  0  0  0  0  0  0  0  0  0  0  0
    1.3785   -1.6973   -6.6013 O   0  0  0  0  0  0  0  0  0  0  0  0
    2.9018   -1.7423   -8.4554 C   0  0  0  0  0  0  0  0  0  0  0  0
    2.2484   -0.9598   -9.4039 C   0  0  0  0  0  0  0  0  0  0  0  0
    2.9443   -0.8114  -10.5797 C   0  0  0  0  0  0  0  0  0  0  0  0
    4.1985   -1.3970  -10.7938 C   0  0  0  0  0  0  0  0  0  0  0  0
    4.8529   -2.1728   -9.8653 C   0  0  0  0  0  0  0  0  0  0  0  0
    4.1618   -2.3391   -8.6630 C   0  0  0  0  0  0  0  0  0  0  0  0
    4.5285   -3.0806   -7.4555 C   0  0  0  0  0  0  0  0  0  0  0  0
    5.6536   -3.8547   -7.3091 C   0  0  0  0  0  0  0  0  0  0  0  0
    5.9758   -4.6249   -6.1741 C   0  0  0  0  0  0  0  0  0  0  0  0
    6.3019   -5.2958   -5.2992 N   0  0  0  0  0  0  0  0  0  0  0  0
    6.6407   -4.0219   -8.3014 C   0  0  0  0  0  0  0  0  0  0  0  0
    7.4848   -4.2050   -9.0586 N   0  0  0  0  0  0  0  0  0  0  0  0
    4.3115   -0.8351  -12.1888 C   0  0  0  0  0  0  0  0  0  0  0  0
    4.0453   -1.7923  -13.3766 C   0  0  0  0  0  0  0  0  0  0  0  0
    3.1176   -2.8654  -12.8632 C   0  0  0  0  0  0  0  0  0  0  0  0
    1.9297   -2.3113  -12.6610 C   0  0  0  0  0  0  0  0  0  0  0  0
    2.0328   -0.8530  -13.0339 C   0  0  0  0  0  0  0  0  0  0  0  0
    3.0524   -0.9380  -14.1809 C   0  0  0  0  0  0  0  0  0  0  0  0
    2.9131   -0.1828  -11.9503 C   0  0  0  0  0  0  0  0  0  0  0  0
    2.5661   -3.1553   -4.1576 C   0  0  0  0  0  0  0  0  0  0  0  0
    2.8004   -3.5669   -2.8285 C   0  0  0  0  0  0  0  0  0  0  0  0
    3.9866   -4.0588   -2.3267 N   0  0  0  0  0  0  0  0  0  0  0  0
    5.1924   -3.3609   -2.5095 C   0  0  0  0  0  0  0  0  0  0  0  0
    6.4016   -4.0517   -2.5911 C   0  0  0  0  0  0  0  0  0  0  0  0
    7.5838   -3.3554   -2.7033 C   0  0  0  0  0  0  0  0  0  0  0  0
    7.5867   -1.9611   -2.7426 C   0  0  0  0  0  0  0  0  0  0  0  0
    9.1610   -1.1767   -2.8471 S   0  0  0  0  0  0  0  0  0  0  0  0
    8.7937    0.5759   -2.5483 C   0  0  0  0  0  0  0  0  0  0  0  0
    6.3805   -1.2735   -2.6920 C   0  0  0  0  0  0  0  0  0  0  0  0
    5.1949   -1.9697   -2.5687 C   0  0  0  0  0  0  0  0  0  0  0  0
    3.9011   -5.0948   -1.3864 C   0  0  0  0  0  0  0  0  0  0  0  0
    4.7110   -5.1284   -0.2515 C   0  0  0  0  0  0  0  0  0  0  0  0
    4.5814   -6.1480    0.6634 C   0  0  0  0  0  0  0  0  0  0  0  0
    3.6392   -7.1576    0.4739 C   0  0  0  0  0  0  0  0  0  0  0  0
    3.5460   -8.3928    1.7302 S   0  0  0  0  0  0  0  0  0  0  0  0
    2.4034   -9.6274    1.0468 C   0  0  0  0  0  0  0  0  0  0  0  0
    2.8363   -7.1344   -0.6585 C   0  0  0  0  0  0  0  0  0  0  0  0
    2.9725   -6.1157   -1.5795 C   0  0  0  0  0  0  0  0  0  0  0  0
    1.6684   -3.3697   -2.0286 C   0  0  0  0  0  0  0  0  0  0  0  0
    1.4878   -3.3699   -0.3104 S   0  0  0  0  0  0  0  0  0  0  0  0
   -0.0382   -2.5138   -0.4917 C   0  0  0  0  0  0  0  0  0  0  0  0
   -0.4613   -2.4108   -1.8109 C   0  0  0  0  0  0  0  0  0  0  0  0
   -1.6775   -1.8777   -2.1536 N   0  0  0  0  0  0  0  0  0  0  0  0
   -2.1482   -1.8266   -3.4854 C   0  0  0  0  0  0  0  0  0  0  0  0
   -1.9481   -2.8696   -4.3871 C   0  0  0  0  0  0  0  0  0  0  0  0
   -2.3744   -2.7497   -5.6930 C   0  0  0  0  0  0  0  0  0  0  0  0
   -3.0477   -1.6066   -6.1139 C   0  0  0  0  0  0  0  0  0  0  0  0
   -3.4877   -1.5239   -7.8207 S   0  0  0  0  0  0  0  0  0  0  0  0
   -4.3003    0.0927   -7.9793 C   0  0  0  0  0  0  0  0  0  0  0  0
   -3.3431   -0.6133   -5.1902 C   0  0  0  0  0  0  0  0  0  0  0  0
   -2.8923   -0.7250   -3.8905 C   0  0  0  0  0  0  0  0  0  0  0  0
   -2.6993   -1.8421   -1.1541 C   0  0  0  0  0  0  0  0  0  0  0  0
   -3.1513   -0.6488   -0.6028 C   0  0  0  0  0  0  0  0  0  0  0  0
   -4.1273   -0.6604    0.3724 C   0  0  0  0  0  0  0  0  0  0  0  0
   -4.6789   -1.8673    0.7976 C   0  0  0  0  0  0  0  0  0  0  0  0
   -5.9026   -1.7714    2.0594 S   0  0  0  0  0  0  0  0  0  0  0  0
   -6.3397   -3.5050    2.3833 C   0  0  0  0  0  0  0  0  0  0  0  0
   -4.2522   -3.0586    0.2275 C   0  0  0  0  0  0  0  0  0  0  0  0
   -3.2675   -3.0400   -0.7418 C   0  0  0  0  0  0  0  0  0  0  0  0
    0.5641   -2.8533   -2.6951 C   0  0  0  0  0  0  0  0  0  0  0  0
    0.9181   -2.5571   -4.3672 S   0  0  0  0  0  0  0  0  0  0  0  0
   -0.4914   -1.6646    0.5885 C   0  0  0  0  0  0  0  0  0  0  0  0
   -0.1400   -0.3354    0.6734 C   0  0  0  0  0  0  0  0  0  0  0  0
    0.7663    0.3061   -0.1977 N   0  0  0  0  0  0  0  0  0  0  0  0
    2.1339    0.2370    0.0443 C   0  0  0  0  0  0  0  0  0  0  0  0
    2.6842   -0.6419    0.9769 C   0  0  0  0  0  0  0  0  0  0  0  0
    4.0527   -0.7242    1.1513 C   0  0  0  0  0  0  0  0  0  0  0  0
    4.9021    0.0802    0.4083 C   0  0  0  0  0  0  0  0  0  0  0  0
    6.6685    0.0212    0.5553 S   0  0  0  0  0  0  0  0  0  0  0  0
    6.9722   -1.7375    0.8890 C   0  0  0  0  0  0  0  0  0  0  0  0
    4.3597    1.0146   -0.4674 C   0  0  0  0  0  0  0  0  0  0  0  0
    2.9979    1.0978   -0.6422 C   0  0  0  0  0  0  0  0  0  0  0  0
    0.3017    0.7359   -1.4581 C   0  0  0  0  0  0  0  0  0  0  0  0
   -0.7808    1.6055   -1.5630 C   0  0  0  0  0  0  0  0  0  0  0  0
   -1.2461    1.9862   -2.8059 C   0  0  0  0  0  0  0  0  0  0  0  0
   -0.6409    1.5090   -3.9662 C   0  0  0  0  0  0  0  0  0  0  0  0
   -1.3309    2.0079   -5.5108 S   0  0  0  0  0  0  0  0  0  0  0  0
   -0.4499    0.9908   -6.7278 C   0  0  0  0  0  0  0  0  0  0  0  0
    0.4650    0.6771   -3.8662 C   0  0  0  0  0  0  0  0  0  0  0  0
    0.9251    0.2981   -2.6228 C   0  0  0  0  0  0  0  0  0  0  0  0
   -0.7972    0.2962    1.7532 C   0  0  0  0  0  0  0  0  0  0  0  0
   -0.9546    1.9364    2.2483 S   0  0  0  0  0  0  0  0  0  0  0  0
   -2.1637    1.4697    3.4322 C   0  0  0  0  0  0  0  0  0  0  0  0
   -2.3651    0.0988    3.5022 C   0  0  0  0  0  0  0  0  0  0  0  0
   -3.1722   -0.5639    4.3926 N   0  0  0  0  0  0  0  0  0  0  0  0
   -3.9804    0.1676    5.3088 C   0  0  0  0  0  0  0  0  0  0  0  0
   -5.3642    0.1930    5.1787 C   0  0  0  0  0  0  0  0  0  0  0  0
   -6.1209    0.9649    6.0352 C   0  0  0  0  0  0  0  0  0  0  0  0
   -5.5097    1.7295    7.0283 C   0  0  0  0  0  0  0  0  0  0  0  0
   -6.5694    2.7624    7.9826 S   0  0  0  0  0  0  0  0  0  0  0  0
   -5.4351    3.7779    8.9701 C   0  0  0  0  0  0  0  0  0  0  0  0
   -4.1334    1.6527    7.1987 C   0  0  0  0  0  0  0  0  0  0  0  0
   -3.3783    0.8694    6.3456 C   0  0  0  0  0  0  0  0  0  0  0  0
   -2.9258   -1.9137    4.7150 C   0  0  0  0  0  0  0  0  0  0  0  0
   -1.6269   -2.3983    4.8440 C   0  0  0  0  0  0  0  0  0  0  0  0
   -1.3900   -3.7291    5.1306 C   0  0  0  0  0  0  0  0  0  0  0  0
   -2.4548   -4.5996    5.3107 C   0  0  0  0  0  0  0  0  0  0  0  0
   -2.2810   -6.3237    5.6433 S   0  0  0  0  0  0  0  0  0  0  0  0
   -0.4998   -6.6254    5.4672 C   0  0  0  0  0  0  0  0  0  0  0  0
   -3.7567   -4.1053    5.2458 C   0  0  0  0  0  0  0  0  0  0  0  0
   -3.9909   -2.7796    4.9569 C   0  0  0  0  0  0  0  0  0  0  0  0
   -1.5852   -0.5557    2.5091 C   0  0  0  0  0  0  0  0  0  0  0  0
   -1.5134   -2.1794    1.9106 S   0  0  0  0  0  0  0  0  0  0  0  0
   -2.9386    2.5283    4.0434 C   0  0  0  0  0  0  0  0  0  0  0  0
   -2.4084    3.5124    4.8550 C   0  0  0  0  0  0  0  0  0  0  0  0
   -1.1000    3.4831    5.1637 F   0  0  0  0  0  0  0  0  0  0  0  0
   -3.1944    4.5134    5.4425 C   0  0  0  0  0  0  0  0  0  0  0  0
   -2.5762    5.3652    6.2858 F   0  0  0  0  0  0  0  0  0  0  0  0
   -4.5658    4.6092    5.2641 C   0  0  0  0  0  0  0  0  0  0  0  0
   -5.1337    3.6407    4.4006 C   0  0  0  0  0  0  0  0  0  0  0  0
   -4.3219    2.6434    3.7656 C   0  0  0  0  0  0  0  0  0  0  0  0
   -5.0195    1.9013    2.9084 N   0  0  0  0  0  0  0  0  0  0  0  0
   -6.5473    2.3965    2.9256 S   0  0  0  0  0  0  0  0  0  0  0  0
   -6.4026    3.5747    4.0076 N   0  0  0  0  0  0  0  0  0  0  0  0
   -5.4003    5.5753    5.9274 C   0  0  0  0  0  0  0  0  0  0  0  0
   -5.1192    6.8609    6.2340 C   0  0  0  0  0  0  0  0  0  0  0  0
   -5.9247    7.5709    7.2728 C   0  0  0  0  0  0  0  0  0  0  0  0
   -6.9498    7.1782    7.7801 O   0  0  0  0  0  0  0  0  0  0  0  0
   -5.1613    8.7886    7.5935 C   0  0  0  0  0  0  0  0  0  0  0  0
   -5.4569    9.7309    8.5784 C   0  0  0  0  0  0  0  0  0  0  0  0
   -4.5528   10.7621    8.6571 C   0  0  0  0  0  0  0  0  0  0  0  0
   -3.4271   10.8495    7.8251 C   0  0  0  0  0  0  0  0  0  0  0  0
   -3.1231    9.9318    6.8489 C   0  0  0  0  0  0  0  0  0  0  0  0
   -4.0375    8.8792    6.7438 C   0  0  0  0  0  0  0  0  0  0  0  0
   -4.0663    7.7640    5.8037 C   0  0  0  0  0  0  0  0  0  0  0  0
   -3.3841    7.7055    4.6188 C   0  0  0  0  0  0  0  0  0  0  0  0
   -3.5988    6.7341    3.6200 C   0  0  0  0  0  0  0  0  0  0  0  0
   -3.7505    5.9974    2.7523 N   0  0  0  0  0  0  0  0  0  0  0  0
   -2.4345    8.6624    4.2003 C   0  0  0  0  0  0  0  0  0  0  0  0
   -1.6526    9.4044    3.8064 N   0  0  0  0  0  0  0  0  0  0  0  0
   -2.9555   12.1319    8.4625 C   0  0  0  0  0  0  0  0  0  0  0  0
   -1.7846   12.0182    9.4616 C   0  0  0  0  0  0  0  0  0  0  0  0
   -1.8645   13.3007   10.2579 C   0  0  0  0  0  0  0  0  0  0  0  0
   -2.9308   13.2219   11.0436 C   0  0  0  0  0  0  0  0  0  0  0  0
   -3.5894   11.8844   10.7922 C   0  0  0  0  0  0  0  0  0  0  0  0
   -2.3495   11.0322   10.4923 C   0  0  0  0  0  0  0  0  0  0  0  0
   -4.2111   12.0372    9.3877 C   0  0  0  0  0  0  0  0  0  0  0  0
    4.4403   -3.7472   -4.8342 H   0  0  0  0  0  0  0  0  0  0  0  0
    1.2816   -0.5280   -9.1956 H   0  0  0  0  0  0  0  0  0  0  0  0
    5.8198   -2.6114  -10.0463 H   0  0  0  0  0  0  0  0  0  0  0  0
    5.1578   -0.1753  -12.3699 H   0  0  0  0  0  0  0  0  0  0  0  0
    4.9403   -2.1360  -13.8881 H   0  0  0  0  0  0  0  0  0  0  0  0
    3.4267   -3.8722  -12.6514 H   0  0  0  0  0  0  0  0  0  0  0  0
    1.0473   -2.7621  -12.2458 H   0  0  0  0  0  0  0  0  0  0  0  0
    1.0952   -0.3411  -13.2345 H   0  0  0  0  0  0  0  0  0  0  0  0
    3.4540    0.0302  -14.4772 H   0  0  0  0  0  0  0  0  0  0  0  0
    2.6614   -1.4570  -15.0548 H   0  0  0  0  0  0  0  0  0  0  0  0
    2.8471    0.9035  -11.9755 H   0  0  0  0  0  0  0  0  0  0  0  0
    6.4049   -5.1296   -2.5642 H   0  0  0  0  0  0  0  0  0  0  0  0
    8.5217   -3.8846   -2.7632 H   0  0  0  0  0  0  0  0  0  0  0  0
    9.7593    1.0639   -2.4599 H   0  0  0  0  0  0  0  0  0  0  0  0
    8.2477    0.9935   -3.3895 H   0  0  0  0  0  0  0  0  0  0  0  0
    8.2391    0.6792   -1.6199 H   0  0  0  0  0  0  0  0  0  0  0  0
    6.3493   -0.1972   -2.7244 H   0  0  0  0  0  0  0  0  0  0  0  0
    4.2639   -1.4258   -2.4959 H   0  0  0  0  0  0  0  0  0  0  0  0
    5.4376   -4.3484   -0.0859 H   0  0  0  0  0  0  0  0  0  0  0  0
    5.2043   -6.1710    1.5443 H   0  0  0  0  0  0  0  0  0  0  0  0
    1.4057   -9.2074    0.9573 H   0  0  0  0  0  0  0  0  0  0  0  0
    2.7732   -9.9790    0.0882 H   0  0  0  0  0  0  0  0  0  0  0  0
    2.3952  -10.4447    1.7612 H   0  0  0  0  0  0  0  0  0  0  0  0
    2.1037   -7.9040   -0.8400 H   0  0  0  0  0  0  0  0  0  0  0  0
    2.3529   -6.1105   -2.4643 H   0  0  0  0  0  0  0  0  0  0  0  0
   -1.4710   -3.7821   -4.0658 H   0  0  0  0  0  0  0  0  0  0  0  0
   -2.1909   -3.5441   -6.3998 H   0  0  0  0  0  0  0  0  0  0  0  0
   -5.2251    0.1013   -7.4097 H   0  0  0  0  0  0  0  0  0  0  0  0
   -3.6296    0.8814   -7.6512 H   0  0  0  0  0  0  0  0  0  0  0  0
   -4.5191    0.2070   -9.0365 H   0  0  0  0  0  0  0  0  0  0  0  0
   -3.9049    0.2627   -5.4678 H   0  0  0  0  0  0  0  0  0  0  0  0
   -3.1148    0.0603   -3.1872 H   0  0  0  0  0  0  0  0  0  0  0  0
   -2.7150    0.2843   -0.9195 H   0  0  0  0  0  0  0  0  0  0  0  0
   -4.4597    0.2595    0.8307 H   0  0  0  0  0  0  0  0  0  0  0  0
   -7.0813   -3.4787    3.1758 H   0  0  0  0  0  0  0  0  0  0  0  0
   -6.7739   -3.9509    1.4933 H   0  0  0  0  0  0  0  0  0  0  0  0
   -5.4613   -4.0499    2.7172 H   0  0  0  0  0  0  0  0  0  0  0  0
   -4.6663   -4.0059    0.5311 H   0  0  0  0  0  0  0  0  0  0  0  0
   -2.9254   -3.9684   -1.1756 H   0  0  0  0  0  0  0  0  0  0  0  0
    2.0418   -1.2754    1.5695 H   0  0  0  0  0  0  0  0  0  0  0  0
    4.4464   -1.4267    1.8695 H   0  0  0  0  0  0  0  0  0  0  0  0
    6.3627   -2.3280    0.2122 H   0  0  0  0  0  0  0  0  0  0  0  0
    8.0248   -1.9089    0.6869 H   0  0  0  0  0  0  0  0  0  0  0  0
    6.7522   -1.9722    1.9265 H   0  0  0  0  0  0  0  0  0  0  0  0
    5.0172    1.6799   -1.0063 H   0  0  0  0  0  0  0  0  0  0  0  0
    2.5907    1.8325   -1.3198 H   0  0  0  0  0  0  0  0  0  0  0  0
   -1.2382    1.9991   -0.6670 H   0  0  0  0  0  0  0  0  0  0  0  0
   -2.0837    2.6629   -2.8892 H   0  0  0  0  0  0  0  0  0  0  0  0
   -0.9521    1.1645   -7.6752 H   0  0  0  0  0  0  0  0  0  0  0  0
    0.5853    1.3121   -6.8009 H   0  0  0  0  0  0  0  0  0  0  0  0
   -0.5128   -0.0592   -6.4569 H   0  0  0  0  0  0  0  0  0  0  0  0
    0.9644    0.3029   -4.7441 H   0  0  0  0  0  0  0  0  0  0  0  0
    1.7874   -0.3484   -2.5500 H   0  0  0  0  0  0  0  0  0  0  0  0
   -5.8366   -0.3542    4.3781 H   0  0  0  0  0  0  0  0  0  0  0  0
   -7.1944    1.0082    5.9312 H   0  0  0  0  0  0  0  0  0  0  0  0
   -4.9585    3.1737    9.7368 H   0  0  0  0  0  0  0  0  0  0  0  0
   -6.0580    4.5389    9.4306 H   0  0  0  0  0  0  0  0  0  0  0  0
   -4.7002    4.2509    8.3255 H   0  0  0  0  0  0  0  0  0  0  0  0
   -3.6383    2.1974    7.9865 H   0  0  0  0  0  0  0  0  0  0  0  0
   -2.3066    0.8183    6.4736 H   0  0  0  0  0  0  0  0  0  0  0  0
   -0.7880   -1.7275    4.7323 H   0  0  0  0  0  0  0  0  0  0  0  0
   -0.3703   -4.0671    5.2180 H   0  0  0  0  0  0  0  0  0  0  0  0
    0.0463   -6.1165    6.2561 H   0  0  0  0  0  0  0  0  0  0  0  0
   -0.1667   -6.3049    4.4845 H   0  0  0  0  0  0  0  0  0  0  0  0
   -0.3738   -7.6989    5.5690 H   0  0  0  0  0  0  0  0  0  0  0  0
   -4.5813   -4.7800    5.4210 H   0  0  0  0  0  0  0  0  0  0  0  0
   -5.0020   -2.4101    4.9119 H   0  0  0  0  0  0  0  0  0  0  0  0
   -6.3617    5.1990    6.2633 H   0  0  0  0  0  0  0  0  0  0  0  0
   -6.3342    9.6275    9.1976 H   0  0  0  0  0  0  0  0  0  0  0  0
   -2.2521   10.0064    6.2194 H   0  0  0  0  0  0  0  0  0  0  0  0
   -2.8626   12.9854    7.7940 H   0  0  0  0  0  0  0  0  0  0  0  0
   -0.8247   11.7794    9.0123 H   0  0  0  0  0  0  0  0  0  0  0  0
   -1.1917   14.1282   10.1309 H   0  0  0  0  0  0  0  0  0  0  0  0
   -3.3267   13.9708   11.7041 H   0  0  0  0  0  0  0  0  0  0  0  0
   -4.2728   11.5245   11.5566 H   0  0  0  0  0  0  0  0  0  0  0  0
   -1.7013   10.9292   11.3609 H   0  0  0  0  0  0  0  0  0  0  0  0
   -2.5746   10.0472   10.0874 H   0  0  0  0  0  0  0  0  0  0  0  0
   -4.9571   12.8279    9.3355 H   0  0  0  0  0  0  0  0  0  0  0  0
  1  2  2  0  0  0  0
  2  3  1  0  0  0  0
  3  4  2  0  0  0  0
  3  5  1  0  0  0  0
  5  6  2  0  0  0  0
  6  7  1  0  0  0  0
  7  8  2  0  0  0  0
  8  9  1  0  0  0  0
  9 10  2  0  0  0  0
 10 11  1  0  0  0  0
 11 12  2  0  0  0  0
 12 13  1  0  0  0  0
 13 14  3  0  0  0  0
 12 15  1  0  0  0  0
 15 16  3  0  0  0  0
  8 17  1  0  0  0  0
 17 18  1  0  0  0  0
 18 19  1  0  0  0  0
 19 20  2  0  0  0  0
 20 21  1  0  0  0  0
 21 22  1  0  0  0  0
 21 23  1  0  0  0  0
  1 24  1  0  0  0  0
 24 25  2  0  0  0  0
 25 26  1  0  0  0  0
 26 27  1  0  0  0  0
 27 28  2  0  0  0  0
 28 29  1  0  0  0  0
 29 30  2  0  0  0  0
 30 31  1  0  0  0  0
 31 32  1  0  0  0  0
 30 33  1  0  0  0  0
 33 34  2  0  0  0  0
 26 35  1  0  0  0  0
 35 36  2  0  0  0  0
 36 37  1  0  0  0  0
 37 38  2  0  0  0  0
 38 39  1  0  0  0  0
 39 40  1  0  0  0  0
 38 41  1  0  0  0  0
 41 42  2  0  0  0  0
 25 43  1  0  0  0  0
 43 44  1  0  0  0  0
 44 45  1  0  0  0  0
 45 46  2  0  0  0  0
 46 47  1  0  0  0  0
 47 48  1  0  0  0  0
 48 49  2  0  0  0  0
 49 50  1  0  0  0  0
 50 51  2  0  0  0  0
 51 52  1  0  0  0  0
 52 53  1  0  0  0  0
 51 54  1  0  0  0  0
 54 55  2  0  0  0  0
 47 56  1  0  0  0  0
 56 57  2  0  0  0  0
 57 58  1  0  0  0  0
 58 59  2  0  0  0  0
 59 60  1  0  0  0  0
 60 61  1  0  0  0  0
 59 62  1  0  0  0  0
 62 63  2  0  0  0  0
 46 64  1  0  0  0  0
 64 65  1  0  0  0  0
 45 66  1  0  0  0  0
 66 67  2  0  0  0  0
 67 68  1  0  0  0  0
 68 69  1  0  0  0  0
 69 70  2  0  0  0  0
 70 71  1  0  0  0  0
 71 72  2  0  0  0  0
 72 73  1  0  0  0  0
 73 74  1  0  0  0  0
 72 75  1  0  0  0  0
 75 76  2  0  0  0  0
 68 77  1  0  0  0  0
 77 78  2  0  0  0  0
 78 79  1  0  0  0  0
 79 80  2  0  0  0  0
 80 81  1  0  0  0  0
 81 82  1  0  0  0  0
 80 83  1  0  0  0  0
 83 84  2  0  0  0  0
 67 85  1  0  0  0  0
 85 86  1  0  0  0  0
 86 87  1  0  0  0  0
 87 88  2  0  0  0  0
 88 89  1  0  0  0  0
 89 90  1  0  0  0  0
 90 91  2  0  0  0  0
 91 92  1  0  0  0  0
 92 93  2  0  0  0  0
 93 94  1  0  0  0  0
 94 95  1  0  0  0  0
 93 96  1  0  0  0  0
 96 97  2  0  0  0  0
 89 98  1  0  0  0  0
 98 99  2  0  0  0  0
 99100  1  0  0  0  0
100101  2  0  0  0  0
101102  1  0  0  0  0
102103  1  0  0  0  0
101104  1  0  0  0  0
104105  2  0  0  0  0
 88106  1  0  0  0  0
106107  1  0  0  0  0
 87108  1  0  0  0  0
108109  2  0  0  0  0
109110  1  0  0  0  0
109111  1  0  0  0  0
111112  1  0  0  0  0
111113  2  0  0  0  0
113114  1  0  0  0  0
114115  1  0  0  0  0
115116  2  0  0  0  0
116117  1  0  0  0  0
117118  1  0  0  0  0
113119  1  0  0  0  0
119120  2  0  0  0  0
120121  1  0  0  0  0
121122  2  0  0  0  0
121123  1  0  0  0  0
123124  2  0  0  0  0
124125  1  0  0  0  0
125126  2  0  0  0  0
126127  1  0  0  0  0
127128  2  0  0  0  0
128129  1  0  0  0  0
129130  2  0  0  0  0
130131  1  0  0  0  0
131132  3  0  0  0  0
130133  1  0  0  0  0
133134  3  0  0  0  0
126135  1  0  0  0  0
135136  1  0  0  0  0
136137  1  0  0  0  0
137138  2  0  0  0  0
138139  1  0  0  0  0
139140  1  0  0  0  0
139141  1  0  0  0  0
 11  2  1  0  0  0  0
 23 17  1  0  0  0  0
 65 24  1  0  0  0  0
107 66  1  0  0  0  0
115108  1  0  0  0  0
129120  1  0  0  0  0
141135  1  0  0  0  0
 10  5  1  0  0  0  0
 22 18  1  0  0  0  0
 34 27  1  0  0  0  0
 42 35  1  0  0  0  0
 64 43  2  0  0  0  0
 76 69  1  0  0  0  0
 84 77  1  0  0  0  0
106 85  2  0  0  0  0
118114  2  0  0  0  0
128123  1  0  0  0  0
140136  1  0  0  0  0
 23  7  1  0  0  0  0
 55 48  1  0  0  0  0
 63 56  1  0  0  0  0
 97 90  1  0  0  0  0
105 98  1  0  0  0  0
141125  1  0  0  0  0
  1142  1  0  0  0  0
  6143  1  0  0  0  0
  9144  1  0  0  0  0
 17145  1  0  0  0  0
 18146  1  0  0  0  0
 19147  1  0  0  0  0
 20148  1  0  0  0  0
 21149  1  0  0  0  0
 22150  1  0  0  0  0
 22151  1  0  0  0  0
 23152  1  0  0  0  0
 28153  1  0  0  0  0
 29154  1  0  0  0  0
 32155  1  0  0  0  0
 32156  1  0  0  0  0
 32157  1  0  0  0  0
 33158  1  0  0  0  0
 34159  1  0  0  0  0
 36160  1  0  0  0  0
 37161  1  0  0  0  0
 40162  1  0  0  0  0
 40163  1  0  0  0  0
 40164  1  0  0  0  0
 41165  1  0  0  0  0
 42166  1  0  0  0  0
 49167  1  0  0  0  0
 50168  1  0  0  0  0
 53169  1  0  0  0  0
 53170  1  0  0  0  0
 53171  1  0  0  0  0
 54172  1  0  0  0  0
 55173  1  0  0  0  0
 57174  1  0  0  0  0
 58175  1  0  0  0  0
 61176  1  0  0  0  0
 61177  1  0  0  0  0
 61178  1  0  0  0  0
 62179  1  0  0  0  0
 63180  1  0  0  0  0
 70181  1  0  0  0  0
 71182  1  0  0  0  0
 74183  1  0  0  0  0
 74184  1  0  0  0  0
 74185  1  0  0  0  0
 75186  1  0  0  0  0
 76187  1  0  0  0  0
 78188  1  0  0  0  0
 79189  1  0  0  0  0
 82190  1  0  0  0  0
 82191  1  0  0  0  0
 82192  1  0  0  0  0
 83193  1  0  0  0  0
 84194  1  0  0  0  0
 91195  1  0  0  0  0
 92196  1  0  0  0  0
 95197  1  0  0  0  0
 95198  1  0  0  0  0
 95199  1  0  0  0  0
 96200  1  0  0  0  0
 97201  1  0  0  0  0
 99202  1  0  0  0  0
100203  1  0  0  0  0
103204  1  0  0  0  0
103205  1  0  0  0  0
103206  1  0  0  0  0
104207  1  0  0  0  0
105208  1  0  0  0  0
119209  1  0  0  0  0
124210  1  0  0  0  0
127211  1  0  0  0  0
135212  1  0  0  0  0
136213  1  0  0  0  0
137214  1  0  0  0  0
138215  1  0  0  0  0
139216  1  0  0  0  0
140217  1  0  0  0  0
140218  1  0  0  0  0
141219  1  0  0  0  0
M  END
