
  xtb     02082200083D
 energy: -427.662788523949 gnorm: 0.000314297647 xtb: 6.4.1 (unknown)
261285  0     0  0            999 V2000
    4.4490   -5.0079   -4.6110 C   0  0  0  0  0  0  0  0  0  0  0  0
    3.6279   -5.7235   -5.4598 C   0  0  0  0  0  0  0  0  0  0  0  0
    2.1609   -5.6680   -5.4079 C   0  0  0  0  0  0  0  0  0  0  0  0
    1.4668   -4.9752   -4.6847 O   0  0  0  0  0  0  0  0  0  0  0  0
    1.6846   -6.7255   -6.3245 C   0  0  0  0  0  0  0  0  0  0  0  0
    0.3629   -7.0684   -6.5932 C   0  0  0  0  0  0  0  0  0  0  0  0
    0.2235   -8.0906   -7.5024 C   0  0  0  0  0  0  0  0  0  0  0  0
    1.3192   -8.7329   -8.0898 C   0  0  0  0  0  0  0  0  0  0  0  0
    2.6306   -8.4155   -7.8181 C   0  0  0  0  0  0  0  0  0  0  0  0
    2.7924   -7.3691   -6.9065 C   0  0  0  0  0  0  0  0  0  0  0  0
    4.0114   -6.7366   -6.4012 C   0  0  0  0  0  0  0  0  0  0  0  0
    5.2849   -6.9564   -6.8693 C   0  0  0  0  0  0  0  0  0  0  0  0
    6.4090   -6.2191   -6.4493 C   0  0  0  0  0  0  0  0  0  0  0  0
    7.3583   -5.6349   -6.1707 N   0  0  0  0  0  0  0  0  0  0  0  0
    5.6108   -7.8882   -7.8714 C   0  0  0  0  0  0  0  0  0  0  0  0
    5.9251   -8.6341   -8.6871 N   0  0  0  0  0  0  0  0  0  0  0  0
    0.4454   -9.6484   -8.9116 C   0  0  0  0  0  0  0  0  0  0  0  0
    0.2783   -9.2854  -10.4027 C   0  0  0  0  0  0  0  0  0  0  0  0
   -0.9610  -10.0441  -10.8199 C   0  0  0  0  0  0  0  0  0  0  0  0
   -2.0056   -9.4531  -10.2541 C   0  0  0  0  0  0  0  0  0  0  0  0
   -1.4906   -8.2831   -9.4478 C   0  0  0  0  0  0  0  0  0  0  0  0
   -0.2988   -7.8663  -10.3184 C   0  0  0  0  0  0  0  0  0  0  0  0
   -0.7787   -8.9402   -8.2469 C   0  0  0  0  0  0  0  0  0  0  0  0
    4.1085   -3.8083   -3.9842 C   0  0  0  0  0  0  0  0  0  0  0  0
    3.1770   -2.8094   -4.3426 C   0  0  0  0  0  0  0  0  0  0  0  0
    2.5085   -2.6904   -5.5280 N   0  0  0  0  0  0  0  0  0  0  0  0
    1.3350   -1.9066   -5.5864 C   0  0  0  0  0  0  0  0  0  0  0  0
    1.2141   -0.9181   -6.5564 C   0  0  0  0  0  0  0  0  0  0  0  0
    0.0825   -0.1266   -6.6116 C   0  0  0  0  0  0  0  0  0  0  0  0
   -0.9434   -0.3174   -5.6947 C   0  0  0  0  0  0  0  0  0  0  0  0
   -2.4329    0.6251   -5.6824 S   0  0  0  0  0  0  0  0  0  0  0  0
   -2.0644    2.0497   -6.7470 C   0  0  0  0  0  0  0  0  0  0  0  0
   -0.8343   -1.3244   -4.7369 C   0  0  0  0  0  0  0  0  0  0  0  0
    0.2933   -2.1138   -4.6824 C   0  0  0  0  0  0  0  0  0  0  0  0
    2.9773   -3.2660   -6.7148 C   0  0  0  0  0  0  0  0  0  0  0  0
    4.3372   -3.2532   -7.0329 C   0  0  0  0  0  0  0  0  0  0  0  0
    4.7890   -3.8809   -8.1690 C   0  0  0  0  0  0  0  0  0  0  0  0
    3.8973   -4.5436   -9.0151 C   0  0  0  0  0  0  0  0  0  0  0  0
    4.5987   -5.3806  -10.3962 S   0  0  0  0  0  0  0  0  0  0  0  0
    3.2848   -6.5224  -10.9111 C   0  0  0  0  0  0  0  0  0  0  0  0
    2.5373   -4.5014   -8.7375 C   0  0  0  0  0  0  0  0  0  0  0  0
    2.0821   -3.8640   -7.5988 C   0  0  0  0  0  0  0  0  0  0  0  0
    3.0979   -1.8292   -3.3342 C   0  0  0  0  0  0  0  0  0  0  0  0
    2.1563   -0.3894   -3.1648 S   0  0  0  0  0  0  0  0  0  0  0  0
    2.9232   -0.0446   -1.6248 C   0  0  0  0  0  0  0  0  0  0  0  0
    3.9159   -0.9714   -1.3080 C   0  0  0  0  0  0  0  0  0  0  0  0
    4.7093   -0.8951   -0.1702 N   0  0  0  0  0  0  0  0  0  0  0  0
    5.3834    0.2887    0.1384 C   0  0  0  0  0  0  0  0  0  0  0  0
    5.7781    1.1699   -0.8639 C   0  0  0  0  0  0  0  0  0  0  0  0
    6.4324    2.3463   -0.5519 C   0  0  0  0  0  0  0  0  0  0  0  0
    6.7025    2.6668    0.7701 C   0  0  0  0  0  0  0  0  0  0  0  0
    7.5248    4.1431    1.2873 S   0  0  0  0  0  0  0  0  0  0  0  0
    7.9641    4.9692   -0.2692 C   0  0  0  0  0  0  0  0  0  0  0  0
    6.3050    1.7901    1.7787 C   0  0  0  0  0  0  0  0  0  0  0  0
    5.6546    0.6185    1.4699 C   0  0  0  0  0  0  0  0  0  0  0  0
    4.9483   -2.0697    0.5607 C   0  0  0  0  0  0  0  0  0  0  0  0
    6.2168   -2.3550    1.0640 C   0  0  0  0  0  0  0  0  0  0  0  0
    6.4315   -3.5083    1.7836 C   0  0  0  0  0  0  0  0  0  0  0  0
    5.3909   -4.4076    2.0095 C   0  0  0  0  0  0  0  0  0  0  0  0
    5.7885   -5.8462    2.9502 S   0  0  0  0  0  0  0  0  0  0  0  0
    4.1806   -6.6273    3.2552 C   0  0  0  0  0  0  0  0  0  0  0  0
    4.1311   -4.1350    1.4949 C   0  0  0  0  0  0  0  0  0  0  0  0
    3.9137   -2.9730    0.7814 C   0  0  0  0  0  0  0  0  0  0  0  0
    3.9876   -1.9906   -2.2785 C   0  0  0  0  0  0  0  0  0  0  0  0
    4.9677   -3.3957   -2.4860 S   0  0  0  0  0  0  0  0  0  0  0  0
    2.3261    0.8911   -0.7502 C   0  0  0  0  0  0  0  0  0  0  0  0
    1.2922    1.7803   -1.0516 C   0  0  0  0  0  0  0  0  0  0  0  0
    1.0529    2.2696   -2.3197 N   0  0  0  0  0  0  0  0  0  0  0  0
    2.1223    2.5398   -3.1874 C   0  0  0  0  0  0  0  0  0  0  0  0
    1.9660    2.3334   -4.5607 C   0  0  0  0  0  0  0  0  0  0  0  0
    3.0053    2.5789   -5.4265 C   0  0  0  0  0  0  0  0  0  0  0  0
    4.2306    3.0402   -4.9466 C   0  0  0  0  0  0  0  0  0  0  0  0
    5.4941    3.3133   -6.1479 S   0  0  0  0  0  0  0  0  0  0  0  0
    6.9480    3.7693   -5.1605 C   0  0  0  0  0  0  0  0  0  0  0  0
    4.3862    3.2580   -3.5850 C   0  0  0  0  0  0  0  0  0  0  0  0
    3.3433    3.0079   -2.7140 C   0  0  0  0  0  0  0  0  0  0  0  0
   -0.2403    2.6465   -2.7075 C   0  0  0  0  0  0  0  0  0  0  0  0
   -0.4377    3.8075   -3.4570 C   0  0  0  0  0  0  0  0  0  0  0  0
   -1.7004    4.1554   -3.8783 C   0  0  0  0  0  0  0  0  0  0  0  0
   -2.7952    3.3611   -3.5445 C   0  0  0  0  0  0  0  0  0  0  0  0
   -4.3660    3.8598   -4.1771 S   0  0  0  0  0  0  0  0  0  0  0  0
   -5.4102    2.4065   -3.8758 C   0  0  0  0  0  0  0  0  0  0  0  0
   -2.6073    2.2323   -2.7625 C   0  0  0  0  0  0  0  0  0  0  0  0
   -1.3385    1.8703   -2.3577 C   0  0  0  0  0  0  0  0  0  0  0  0
    0.5936    2.1472    0.1243 C   0  0  0  0  0  0  0  0  0  0  0  0
   -0.8717    3.0045    0.4699 S   0  0  0  0  0  0  0  0  0  0  0  0
   -0.6688    2.6967    2.1915 C   0  0  0  0  0  0  0  0  0  0  0  0
    0.5055    2.0346    2.4729 C   0  0  0  0  0  0  0  0  0  0  0  0
    0.9997    1.8396    3.7589 N   0  0  0  0  0  0  0  0  0  0  0  0
    1.0527    2.9729    4.5874 C   0  0  0  0  0  0  0  0  0  0  0  0
    0.8978    2.8748    5.9693 C   0  0  0  0  0  0  0  0  0  0  0  0
    0.9201    4.0091    6.7553 C   0  0  0  0  0  0  0  0  0  0  0  0
    1.0913    5.2625    6.1768 C   0  0  0  0  0  0  0  0  0  0  0  0
    1.1349    6.6771    7.2304 S   0  0  0  0  0  0  0  0  0  0  0  0
    0.5529    8.0041    6.1316 C   0  0  0  0  0  0  0  0  0  0  0  0
    1.2669    5.3658    4.8047 C   0  0  0  0  0  0  0  0  0  0  0  0
    1.2495    4.2321    4.0223 C   0  0  0  0  0  0  0  0  0  0  0  0
    1.7102    0.6695    4.0391 C   0  0  0  0  0  0  0  0  0  0  0  0
    1.3100   -0.5337    3.4547 C   0  0  0  0  0  0  0  0  0  0  0  0
    1.9979   -1.6992    3.7013 C   0  0  0  0  0  0  0  0  0  0  0  0
    3.1069   -1.6943    4.5406 C   0  0  0  0  0  0  0  0  0  0  0  0
    3.8913   -3.2458    4.8536 S   0  0  0  0  0  0  0  0  0  0  0  0
    5.6053   -2.7773    5.2242 C   0  0  0  0  0  0  0  0  0  0  0  0
    3.5133   -0.5020    5.1259 C   0  0  0  0  0  0  0  0  0  0  0  0
    2.8263    0.6695    4.8721 C   0  0  0  0  0  0  0  0  0  0  0  0
    1.1837    1.6738    1.2863 C   0  0  0  0  0  0  0  0  0  0  0  0
    2.5773    0.7094    0.9823 S   0  0  0  0  0  0  0  0  0  0  0  0
   -1.7651    2.9111    3.1117 C   0  0  0  0  0  0  0  0  0  0  0  0
   -2.6895    1.9274    3.3814 C   0  0  0  0  0  0  0  0  0  0  0  0
   -2.5478    0.6055    2.9248 N   0  0  0  0  0  0  0  0  0  0  0  0
   -2.8874    0.2862    1.6050 C   0  0  0  0  0  0  0  0  0  0  0  0
   -2.0484   -0.4976    0.8113 C   0  0  0  0  0  0  0  0  0  0  0  0
   -2.4448   -0.8909   -0.4480 C   0  0  0  0  0  0  0  0  0  0  0  0
   -3.6841   -0.5007   -0.9472 C   0  0  0  0  0  0  0  0  0  0  0  0
   -4.1462   -1.1046   -2.5496 S   0  0  0  0  0  0  0  0  0  0  0  0
   -5.9597   -1.1551   -2.4421 C   0  0  0  0  0  0  0  0  0  0  0  0
   -4.4864    0.3472   -0.1957 C   0  0  0  0  0  0  0  0  0  0  0  0
   -4.0905    0.7379    1.0683 C   0  0  0  0  0  0  0  0  0  0  0  0
   -2.0313   -0.3331    3.8165 C   0  0  0  0  0  0  0  0  0  0  0  0
   -2.1306   -1.7038    3.5621 C   0  0  0  0  0  0  0  0  0  0  0  0
   -1.5342   -2.6160    4.4023 C   0  0  0  0  0  0  0  0  0  0  0  0
   -0.8457   -2.1954    5.5370 C   0  0  0  0  0  0  0  0  0  0  0  0
   -0.0519   -3.4411    6.5065 S   0  0  0  0  0  0  0  0  0  0  0  0
    1.1158   -2.4953    7.5238 C   0  0  0  0  0  0  0  0  0  0  0  0
   -0.8283   -0.8452    5.8485 C   0  0  0  0  0  0  0  0  0  0  0  0
   -1.4114    0.0737    4.9979 C   0  0  0  0  0  0  0  0  0  0  0  0
   -3.6997    2.3741    4.2604 C   0  0  0  0  0  0  0  0  0  0  0  0
   -5.1867    1.6964    4.8078 S   0  0  0  0  0  0  0  0  0  0  0  0
   -5.5290    3.1722    5.7054 C   0  0  0  0  0  0  0  0  0  0  0  0
   -4.5129    4.1343    5.5552 C   0  0  0  0  0  0  0  0  0  0  0  0
   -4.4636    5.3474    6.2320 N   0  0  0  0  0  0  0  0  0  0  0  0
   -5.5532    6.2236    6.1616 C   0  0  0  0  0  0  0  0  0  0  0  0
   -5.9743    6.9724    7.2618 C   0  0  0  0  0  0  0  0  0  0  0  0
   -7.0574    7.8142    7.1513 C   0  0  0  0  0  0  0  0  0  0  0  0
   -7.7522    7.9262    5.9482 C   0  0  0  0  0  0  0  0  0  0  0  0
   -9.1161    9.0454    5.9280 S   0  0  0  0  0  0  0  0  0  0  0  0
   -9.9219    8.7192    4.3340 C   0  0  0  0  0  0  0  0  0  0  0  0
   -7.3389    7.1810    4.8523 C   0  0  0  0  0  0  0  0  0  0  0  0
   -6.2486    6.3411    4.9602 C   0  0  0  0  0  0  0  0  0  0  0  0
   -3.4232    5.5179    7.1562 C   0  0  0  0  0  0  0  0  0  0  0  0
   -2.9435    6.7836    7.4824 C   0  0  0  0  0  0  0  0  0  0  0  0
   -1.9845    6.9427    8.4642 C   0  0  0  0  0  0  0  0  0  0  0  0
   -1.4670    5.8353    9.1241 C   0  0  0  0  0  0  0  0  0  0  0  0
   -0.2855    5.9033   10.4295 S   0  0  0  0  0  0  0  0  0  0  0  0
    0.0981    7.6665   10.5905 C   0  0  0  0  0  0  0  0  0  0  0  0
   -1.9051    4.5640    8.7602 C   0  0  0  0  0  0  0  0  0  0  0  0
   -2.8703    4.4050    7.7936 C   0  0  0  0  0  0  0  0  0  0  0  0
   -3.4944    3.6753    4.7060 C   0  0  0  0  0  0  0  0  0  0  0  0
   -2.0840    4.3936    3.9898 S   0  0  0  0  0  0  0  0  0  0  0  0
   -6.6469    3.3459    6.5356 C   0  0  0  0  0  0  0  0  0  0  0  0
   -7.6912    2.5039    6.7870 C   0  0  0  0  0  0  0  0  0  0  0  0
   -8.7671    2.8801    7.7246 C   0  0  0  0  0  0  0  0  0  0  0  0
   -8.8535    3.9098    8.3584 O   0  0  0  0  0  0  0  0  0  0  0  0
   -9.7172    1.7393    7.7192 C   0  0  0  0  0  0  0  0  0  0  0  0
  -10.8928    1.5646    8.4232 C   0  0  0  0  0  0  0  0  0  0  0  0
  -11.6030    0.3854    8.2314 C   0  0  0  0  0  0  0  0  0  0  0  0
  -11.1462   -0.5903    7.3569 C   0  0  0  0  0  0  0  0  0  0  0  0
   -9.9648   -0.4176    6.6465 C   0  0  0  0  0  0  0  0  0  0  0  0
   -9.2564    0.7535    6.8365 C   0  0  0  0  0  0  0  0  0  0  0  0
   -7.9822    1.1915    6.2182 C   0  0  0  0  0  0  0  0  0  0  0  0
   -7.3325    0.5761    5.3909 O   0  0  0  0  0  0  0  0  0  0  0  0
    5.4198   -5.4170   -4.3587 H   0  0  0  0  0  0  0  0  0  0  0  0
   -0.4532   -6.5512   -6.1128 H   0  0  0  0  0  0  0  0  0  0  0  0
    3.4657   -8.9380   -8.2557 H   0  0  0  0  0  0  0  0  0  0  0  0
    0.5833  -10.7154   -8.7475 H   0  0  0  0  0  0  0  0  0  0  0  0
    1.1682   -9.4293  -11.0099 H   0  0  0  0  0  0  0  0  0  0  0  0
   -0.9446  -10.9378  -11.4155 H   0  0  0  0  0  0  0  0  0  0  0  0
   -3.0364   -9.7542  -10.2836 H   0  0  0  0  0  0  0  0  0  0  0  0
   -2.2125   -7.5140   -9.1854 H   0  0  0  0  0  0  0  0  0  0  0  0
   -0.6081   -7.4884  -11.2917 H   0  0  0  0  0  0  0  0  0  0  0  0
    0.3606   -7.1458   -9.8383 H   0  0  0  0  0  0  0  0  0  0  0  0
   -1.4478   -9.5349   -7.6277 H   0  0  0  0  0  0  0  0  0  0  0  0
    2.0140   -0.7656   -7.2663 H   0  0  0  0  0  0  0  0  0  0  0  0
    0.0141    0.6339   -7.3732 H   0  0  0  0  0  0  0  0  0  0  0  0
   -2.9069    2.7254   -6.6349 H   0  0  0  0  0  0  0  0  0  0  0  0
   -1.1576    2.5378   -6.4021 H   0  0  0  0  0  0  0  0  0  0  0  0
   -1.9799    1.7367   -7.7835 H   0  0  0  0  0  0  0  0  0  0  0  0
   -1.6499   -1.4766   -4.0464 H   0  0  0  0  0  0  0  0  0  0  0  0
    0.3786   -2.9115   -3.9616 H   0  0  0  0  0  0  0  0  0  0  0  0
    5.0389   -2.7588   -6.3787 H   0  0  0  0  0  0  0  0  0  0  0  0
    5.8409   -3.8820   -8.4092 H   0  0  0  0  0  0  0  0  0  0  0  0
    2.9216   -7.0679  -10.0449 H   0  0  0  0  0  0  0  0  0  0  0  0
    2.4829   -5.9839  -11.4081 H   0  0  0  0  0  0  0  0  0  0  0  0
    3.7551   -7.2086  -11.6082 H   0  0  0  0  0  0  0  0  0  0  0  0
    1.8231   -4.9697   -9.3958 H   0  0  0  0  0  0  0  0  0  0  0  0
    1.0250   -3.8414   -7.3793 H   0  0  0  0  0  0  0  0  0  0  0  0
    5.5748    0.9316   -1.8979 H   0  0  0  0  0  0  0  0  0  0  0  0
    6.7366    3.0002   -1.3531 H   0  0  0  0  0  0  0  0  0  0  0  0
    8.6043    4.3245   -0.8644 H   0  0  0  0  0  0  0  0  0  0  0  0
    8.5088    5.8627    0.0193 H   0  0  0  0  0  0  0  0  0  0  0  0
    7.0647    5.2475   -0.8115 H   0  0  0  0  0  0  0  0  0  0  0  0
    6.5068    2.0476    2.8071 H   0  0  0  0  0  0  0  0  0  0  0  0
    5.3320   -0.0472    2.2562 H   0  0  0  0  0  0  0  0  0  0  0  0
    7.0312   -1.6691    0.8843 H   0  0  0  0  0  0  0  0  0  0  0  0
    7.4126   -3.7323    2.1741 H   0  0  0  0  0  0  0  0  0  0  0  0
    4.3840   -7.4666    3.9129 H   0  0  0  0  0  0  0  0  0  0  0  0
    3.5231   -5.9185    3.7499 H   0  0  0  0  0  0  0  0  0  0  0  0
    3.7572   -6.9862    2.3216 H   0  0  0  0  0  0  0  0  0  0  0  0
    3.3081   -4.8124    1.6524 H   0  0  0  0  0  0  0  0  0  0  0  0
    2.9285   -2.7565    0.3949 H   0  0  0  0  0  0  0  0  0  0  0  0
    1.0269    1.9534   -4.9327 H   0  0  0  0  0  0  0  0  0  0  0  0
    2.8874    2.4063   -6.4851 H   0  0  0  0  0  0  0  0  0  0  0  0
    7.1867    2.9712   -4.4634 H   0  0  0  0  0  0  0  0  0  0  0  0
    7.7577    3.8887   -5.8736 H   0  0  0  0  0  0  0  0  0  0  0  0
    6.7716    4.7097   -4.6458 H   0  0  0  0  0  0  0  0  0  0  0  0
    5.3145    3.6323   -3.1862 H   0  0  0  0  0  0  0  0  0  0  0  0
    3.4833    3.1799   -1.6568 H   0  0  0  0  0  0  0  0  0  0  0  0
    0.4077    4.4282   -3.7147 H   0  0  0  0  0  0  0  0  0  0  0  0
   -1.8535    5.0448   -4.4706 H   0  0  0  0  0  0  0  0  0  0  0  0
   -6.3330    2.5862   -4.4192 H   0  0  0  0  0  0  0  0  0  0  0  0
   -4.9120    1.5208   -4.2602 H   0  0  0  0  0  0  0  0  0  0  0  0
   -5.6182    2.3216   -2.8127 H   0  0  0  0  0  0  0  0  0  0  0  0
   -3.4351    1.6094   -2.4774 H   0  0  0  0  0  0  0  0  0  0  0  0
   -1.1995    0.9665   -1.7846 H   0  0  0  0  0  0  0  0  0  0  0  0
    0.7578    1.9050    6.4220 H   0  0  0  0  0  0  0  0  0  0  0  0
    0.7994    3.9358    7.8248 H   0  0  0  0  0  0  0  0  0  0  0  0
   -0.3206    7.6556    5.5888 H   0  0  0  0  0  0  0  0  0  0  0  0
    0.2845    8.8358    6.7754 H   0  0  0  0  0  0  0  0  0  0  0  0
    1.3431    8.3131    5.4535 H   0  0  0  0  0  0  0  0  0  0  0  0
    1.4350    6.3219    4.3360 H   0  0  0  0  0  0  0  0  0  0  0  0
    1.4045    4.3254    2.9579 H   0  0  0  0  0  0  0  0  0  0  0  0
    0.4447   -0.5494    2.8125 H   0  0  0  0  0  0  0  0  0  0  0  0
    1.6766   -2.6271    3.2555 H   0  0  0  0  0  0  0  0  0  0  0  0
    5.9478   -2.0632    4.4815 H   0  0  0  0  0  0  0  0  0  0  0  0
    5.6821   -2.3724    6.2292 H   0  0  0  0  0  0  0  0  0  0  0  0
    6.1830   -3.6935    5.1503 H   0  0  0  0  0  0  0  0  0  0  0  0
    4.3694   -0.4750    5.7823 H   0  0  0  0  0  0  0  0  0  0  0  0
    3.1625    1.5921    5.3213 H   0  0  0  0  0  0  0  0  0  0  0  0
   -1.0903   -0.8167    1.1939 H   0  0  0  0  0  0  0  0  0  0  0  0
   -1.8058   -1.5184   -1.0513 H   0  0  0  0  0  0  0  0  0  0  0  0
   -6.2861   -1.7948   -3.2559 H   0  0  0  0  0  0  0  0  0  0  0  0
   -6.2492   -1.5851   -1.4883 H   0  0  0  0  0  0  0  0  0  0  0  0
   -6.3820   -0.1623   -2.5688 H   0  0  0  0  0  0  0  0  0  0  0  0
   -5.4368    0.6887   -0.5764 H   0  0  0  0  0  0  0  0  0  0  0  0
   -4.7329    1.3717    1.6609 H   0  0  0  0  0  0  0  0  0  0  0  0
   -2.6709   -2.0530    2.6958 H   0  0  0  0  0  0  0  0  0  0  0  0
   -1.5940   -3.6716    4.1862 H   0  0  0  0  0  0  0  0  0  0  0  0
    1.6692   -1.8083    6.8903 H   0  0  0  0  0  0  0  0  0  0  0  0
    0.5893   -1.9689    8.3152 H   0  0  0  0  0  0  0  0  0  0  0  0
    1.7899   -3.2288    7.9547 H   0  0  0  0  0  0  0  0  0  0  0  0
   -0.3536   -0.4913    6.7500 H   0  0  0  0  0  0  0  0  0  0  0  0
   -1.3669    1.1209    5.2549 H   0  0  0  0  0  0  0  0  0  0  0  0
   -5.4636    6.8733    8.2075 H   0  0  0  0  0  0  0  0  0  0  0  0
   -7.3904    8.3855    8.0037 H   0  0  0  0  0  0  0  0  0  0  0  0
   -9.2806    9.0343    3.5157 H   0  0  0  0  0  0  0  0  0  0  0  0
  -10.8295    9.3147    4.3381 H   0  0  0  0  0  0  0  0  0  0  0  0
  -10.1715    7.6649    4.2587 H   0  0  0  0  0  0  0  0  0  0  0  0
   -7.8499    7.2491    3.9055 H   0  0  0  0  0  0  0  0  0  0  0  0
   -5.9289    5.7660    4.1033 H   0  0  0  0  0  0  0  0  0  0  0  0
   -3.3387    7.6509    6.9744 H   0  0  0  0  0  0  0  0  0  0  0  0
   -1.6486    7.9380    8.7058 H   0  0  0  0  0  0  0  0  0  0  0  0
   -0.7979    8.2209   10.8543 H   0  0  0  0  0  0  0  0  0  0  0  0
    0.8241    7.7350   11.3945 H   0  0  0  0  0  0  0  0  0  0  0  0
    0.5378    8.0258    9.6649 H   0  0  0  0  0  0  0  0  0  0  0  0
   -1.4984    3.7028    9.2679 H   0  0  0  0  0  0  0  0  0  0  0  0
   -3.2220    3.4136    7.5502 H   0  0  0  0  0  0  0  0  0  0  0  0
   -6.6910    4.2897    7.0716 H   0  0  0  0  0  0  0  0  0  0  0  0
  -11.2414    2.3282    9.1014 H   0  0  0  0  0  0  0  0  0  0  0  0
  -12.5246    0.2248    8.7712 H   0  0  0  0  0  0  0  0  0  0  0  0
  -11.7179   -1.4975    7.2276 H   0  0  0  0  0  0  0  0  0  0  0  0
   -9.6009   -1.1712    5.9647 H   0  0  0  0  0  0  0  0  0  0  0  0
  1  2  2  0  0  0  0
  2  3  1  0  0  0  0
  3  4  2  0  0  0  0
  3  5  1  0  0  0  0
  5  6  2  0  0  0  0
  6  7  1  0  0  0  0
  7  8  2  0  0  0  0
  8  9  1  0  0  0  0
  9 10  2  0  0  0  0
 10 11  1  0  0  0  0
 11 12  2  0  0  0  0
 12 13  1  0  0  0  0
 13 14  3  0  0  0  0
 12 15  1  0  0  0  0
 15 16  3  0  0  0  0
  8 17  1  0  0  0  0
 17 18  1  0  0  0  0
 18 19  1  0  0  0  0
 19 20  2  0  0  0  0
 20 21  1  0  0  0  0
 21 22  1  0  0  0  0
 21 23  1  0  0  0  0
  1 24  1  0  0  0  0
 24 25  2  0  0  0  0
 25 26  1  0  0  0  0
 26 27  1  0  0  0  0
 27 28  2  0  0  0  0
 28 29  1  0  0  0  0
 29 30  2  0  0  0  0
 30 31  1  0  0  0  0
 31 32  1  0  0  0  0
 30 33  1  0  0  0  0
 33 34  2  0  0  0  0
 26 35  1  0  0  0  0
 35 36  2  0  0  0  0
 36 37  1  0  0  0  0
 37 38  2  0  0  0  0
 38 39  1  0  0  0  0
 39 40  1  0  0  0  0
 38 41  1  0  0  0  0
 41 42  2  0  0  0  0
 25 43  1  0  0  0  0
 43 44  1  0  0  0  0
 44 45  1  0  0  0  0
 45 46  2  0  0  0  0
 46 47  1  0  0  0  0
 47 48  1  0  0  0  0
 48 49  2  0  0  0  0
 49 50  1  0  0  0  0
 50 51  2  0  0  0  0
 51 52  1  0  0  0  0
 52 53  1  0  0  0  0
 51 54  1  0  0  0  0
 54 55  2  0  0  0  0
 47 56  1  0  0  0  0
 56 57  2  0  0  0  0
 57 58  1  0  0  0  0
 58 59  2  0  0  0  0
 59 60  1  0  0  0  0
 60 61  1  0  0  0  0
 59 62  1  0  0  0  0
 62 63  2  0  0  0  0
 46 64  1  0  0  0  0
 64 65  1  0  0  0  0
 45 66  1  0  0  0  0
 66 67  2  0  0  0  0
 67 68  1  0  0  0  0
 68 69  1  0  0  0  0
 69 70  2  0  0  0  0
 70 71  1  0  0  0  0
 71 72  2  0  0  0  0
 72 73  1  0  0  0  0
 73 74  1  0  0  0  0
 72 75  1  0  0  0  0
 75 76  2  0  0  0  0
 68 77  1  0  0  0  0
 77 78  2  0  0  0  0
 78 79  1  0  0  0  0
 79 80  2  0  0  0  0
 80 81  1  0  0  0  0
 81 82  1  0  0  0  0
 80 83  1  0  0  0  0
 83 84  2  0  0  0  0
 67 85  1  0  0  0  0
 85 86  1  0  0  0  0
 86 87  1  0  0  0  0
 87 88  2  0  0  0  0
 88 89  1  0  0  0  0
 89 90  1  0  0  0  0
 90 91  2  0  0  0  0
 91 92  1  0  0  0  0
 92 93  2  0  0  0  0
 93 94  1  0  0  0  0
 94 95  1  0  0  0  0
 93 96  1  0  0  0  0
 96 97  2  0  0  0  0
 89 98  1  0  0  0  0
 98 99  2  0  0  0  0
 99100  1  0  0  0  0
100101  2  0  0  0  0
101102  1  0  0  0  0
102103  1  0  0  0  0
101104  1  0  0  0  0
104105  2  0  0  0  0
 88106  1  0  0  0  0
106107  1  0  0  0  0
 87108  1  0  0  0  0
108109  2  0  0  0  0
109110  1  0  0  0  0
110111  1  0  0  0  0
111112  2  0  0  0  0
112113  1  0  0  0  0
113114  2  0  0  0  0
114115  1  0  0  0  0
115116  1  0  0  0  0
114117  1  0  0  0  0
117118  2  0  0  0  0
110119  1  0  0  0  0
119120  2  0  0  0  0
120121  1  0  0  0  0
121122  2  0  0  0  0
122123  1  0  0  0  0
123124  1  0  0  0  0
122125  1  0  0  0  0
125126  2  0  0  0  0
109127  1  0  0  0  0
127128  1  0  0  0  0
128129  1  0  0  0  0
129130  2  0  0  0  0
130131  1  0  0  0  0
131132  1  0  0  0  0
132133  2  0  0  0  0
133134  1  0  0  0  0
134135  2  0  0  0  0
135136  1  0  0  0  0
136137  1  0  0  0  0
135138  1  0  0  0  0
138139  2  0  0  0  0
131140  1  0  0  0  0
140141  2  0  0  0  0
141142  1  0  0  0  0
142143  2  0  0  0  0
143144  1  0  0  0  0
144145  1  0  0  0  0
143146  1  0  0  0  0
146147  2  0  0  0  0
130148  1  0  0  0  0
148149  1  0  0  0  0
129150  1  0  0  0  0
150151  2  0  0  0  0
151152  1  0  0  0  0
152153  2  0  0  0  0
152154  1  0  0  0  0
154155  2  0  0  0  0
155156  1  0  0  0  0
156157  2  0  0  0  0
157158  1  0  0  0  0
158159  2  0  0  0  0
159160  1  0  0  0  0
160161  2  0  0  0  0
 11  2  1  0  0  0  0
 23 17  1  0  0  0  0
 65 24  1  0  0  0  0
107 66  1  0  0  0  0
149108  1  0  0  0  0
160151  1  0  0  0  0
 10  5  1  0  0  0  0
 22 18  1  0  0  0  0
 34 27  1  0  0  0  0
 42 35  1  0  0  0  0
 64 43  2  0  0  0  0
 76 69  1  0  0  0  0
 84 77  1  0  0  0  0
106 85  2  0  0  0  0
118111  1  0  0  0  0
126119  1  0  0  0  0
148127  2  0  0  0  0
159154  1  0  0  0  0
 23  7  1  0  0  0  0
 55 48  1  0  0  0  0
 63 56  1  0  0  0  0
 97 90  1  0  0  0  0
105 98  1  0  0  0  0
139132  1  0  0  0  0
147140  1  0  0  0  0
  1162  1  0  0  0  0
  6163  1  0  0  0  0
  9164  1  0  0  0  0
 17165  1  0  0  0  0
 18166  1  0  0  0  0
 19167  1  0  0  0  0
 20168  1  0  0  0  0
 21169  1  0  0  0  0
 22170  1  0  0  0  0
 22171  1  0  0  0  0
 23172  1  0  0  0  0
 28173  1  0  0  0  0
 29174  1  0  0  0  0
 32175  1  0  0  0  0
 32176  1  0  0  0  0
 32177  1  0  0  0  0
 33178  1  0  0  0  0
 34179  1  0  0  0  0
 36180  1  0  0  0  0
 37181  1  0  0  0  0
 40182  1  0  0  0  0
 40183  1  0  0  0  0
 40184  1  0  0  0  0
 41185  1  0  0  0  0
 42186  1  0  0  0  0
 49187  1  0  0  0  0
 50188  1  0  0  0  0
 53189  1  0  0  0  0
 53190  1  0  0  0  0
 53191  1  0  0  0  0
 54192  1  0  0  0  0
 55193  1  0  0  0  0
 57194  1  0  0  0  0
 58195  1  0  0  0  0
 61196  1  0  0  0  0
 61197  1  0  0  0  0
 61198  1  0  0  0  0
 62199  1  0  0  0  0
 63200  1  0  0  0  0
 70201  1  0  0  0  0
 71202  1  0  0  0  0
 74203  1  0  0  0  0
 74204  1  0  0  0  0
 74205  1  0  0  0  0
 75206  1  0  0  0  0
 76207  1  0  0  0  0
 78208  1  0  0  0  0
 79209  1  0  0  0  0
 82210  1  0  0  0  0
 82211  1  0  0  0  0
 82212  1  0  0  0  0
 83213  1  0  0  0  0
 84214  1  0  0  0  0
 91215  1  0  0  0  0
 92216  1  0  0  0  0
 95217  1  0  0  0  0
 95218  1  0  0  0  0
 95219  1  0  0  0  0
 96220  1  0  0  0  0
 97221  1  0  0  0  0
 99222  1  0  0  0  0
100223  1  0  0  0  0
103224  1  0  0  0  0
103225  1  0  0  0  0
103226  1  0  0  0  0
104227  1  0  0  0  0
105228  1  0  0  0  0
112229  1  0  0  0  0
113230  1  0  0  0  0
116231  1  0  0  0  0
116232  1  0  0  0  0
116233  1  0  0  0  0
117234  1  0  0  0  0
118235  1  0  0  0  0
120236  1  0  0  0  0
121237  1  0  0  0  0
124238  1  0  0  0  0
124239  1  0  0  0  0
124240  1  0  0  0  0
125241  1  0  0  0  0
126242  1  0  0  0  0
133243  1  0  0  0  0
134244  1  0  0  0  0
137245  1  0  0  0  0
137246  1  0  0  0  0
137247  1  0  0  0  0
138248  1  0  0  0  0
139249  1  0  0  0  0
141250  1  0  0  0  0
142251  1  0  0  0  0
145252  1  0  0  0  0
145253  1  0  0  0  0
145254  1  0  0  0  0
146255  1  0  0  0  0
147256  1  0  0  0  0
150257  1  0  0  0  0
155258  1  0  0  0  0
156259  1  0  0  0  0
157260  1  0  0  0  0
158261  1  0  0  0  0
M  END
