
  xtb     02132215323D
 energy: -306.092871147042 gnorm: 0.000378542044 xtb: 6.4.1 (unknown)
176196  0     0  0            999 V2000
   -2.5188    3.3415   -4.6890 C   0  0  0  0  0  0  0  0  0  0  0  0
   -3.0360    3.2368   -5.9607 C   0  0  0  0  0  0  0  0  0  0  0  0
   -3.2185    2.0115   -6.7396 C   0  0  0  0  0  0  0  0  0  0  0  0
   -2.7952    0.8930   -6.4890 O   0  0  0  0  0  0  0  0  0  0  0  0
   -3.9979    2.3877   -7.9313 C   0  0  0  0  0  0  0  0  0  0  0  0
   -4.4449    1.5439   -8.9446 C   0  0  0  0  0  0  0  0  0  0  0  0
   -5.1486    2.1862   -9.9353 C   0  0  0  0  0  0  0  0  0  0  0  0
   -5.3944    3.5649   -9.9163 C   0  0  0  0  0  0  0  0  0  0  0  0
   -4.9636    4.4074   -8.9179 C   0  0  0  0  0  0  0  0  0  0  0  0
   -4.2410    3.7755   -7.9036 C   0  0  0  0  0  0  0  0  0  0  0  0
   -3.6032    4.3327   -6.7111 C   0  0  0  0  0  0  0  0  0  0  0  0
   -3.5460    5.6696   -6.3978 C   0  0  0  0  0  0  0  0  0  0  0  0
   -2.7879    6.2385   -5.3583 C   0  0  0  0  0  0  0  0  0  0  0  0
   -2.1690    6.8051   -4.5711 N   0  0  0  0  0  0  0  0  0  0  0  0
   -4.2077    6.6923   -7.1059 C   0  0  0  0  0  0  0  0  0  0  0  0
   -4.7298    7.5871   -7.6028 N   0  0  0  0  0  0  0  0  0  0  0  0
   -6.1451    3.5298  -11.2237 C   0  0  0  0  0  0  0  0  0  0  0  0
   -5.4071    4.0266  -12.4915 C   0  0  0  0  0  0  0  0  0  0  0  0
   -3.9344    3.8170  -12.2412 C   0  0  0  0  0  0  0  0  0  0  0  0
   -3.7024    2.5113  -12.2595 C   0  0  0  0  0  0  0  0  0  0  0  0
   -5.0143    1.8142  -12.5223 C   0  0  0  0  0  0  0  0  0  0  0  0
   -5.6916    2.8480  -13.4361 C   0  0  0  0  0  0  0  0  0  0  0  0
   -5.8716    1.9928  -11.2447 C   0  0  0  0  0  0  0  0  0  0  0  0
   -2.0372    2.3651   -3.8184 C   0  0  0  0  0  0  0  0  0  0  0  0
   -1.6083    2.6337   -2.4926 C   0  0  0  0  0  0  0  0  0  0  0  0
   -1.7952    3.8077   -1.8113 N   0  0  0  0  0  0  0  0  0  0  0  0
   -2.9186    4.6326   -2.0025 C   0  0  0  0  0  0  0  0  0  0  0  0
   -2.7799    6.0134   -1.9033 C   0  0  0  0  0  0  0  0  0  0  0  0
   -3.8567    6.8449   -2.1425 C   0  0  0  0  0  0  0  0  0  0  0  0
   -5.0830    6.3057   -2.5046 C   0  0  0  0  0  0  0  0  0  0  0  0
   -6.4860    7.2849   -2.9331 S   0  0  0  0  0  0  0  0  0  0  0  0
   -5.7450    8.8778   -3.3920 C   0  0  0  0  0  0  0  0  0  0  0  0
   -5.2410    4.9201   -2.5390 C   0  0  0  0  0  0  0  0  0  0  0  0
   -4.1751    4.0902   -2.2792 C   0  0  0  0  0  0  0  0  0  0  0  0
   -0.9307    4.1038   -0.7402 C   0  0  0  0  0  0  0  0  0  0  0  0
    0.4473    4.0071   -0.9077 C   0  0  0  0  0  0  0  0  0  0  0  0
    1.2994    4.1869    0.1640 C   0  0  0  0  0  0  0  0  0  0  0  0
    0.7802    4.4674    1.4203 C   0  0  0  0  0  0  0  0  0  0  0  0
    1.7689    4.5975    2.8759 S   0  0  0  0  0  0  0  0  0  0  0  0
    3.3191    3.7831    2.3954 C   0  0  0  0  0  0  0  0  0  0  0  0
   -0.5941    4.6471    1.5725 C   0  0  0  0  0  0  0  0  0  0  0  0
   -1.4434    4.4682    0.5039 C   0  0  0  0  0  0  0  0  0  0  0  0
   -0.9706    1.5114   -1.9325 C   0  0  0  0  0  0  0  0  0  0  0  0
   -0.2440    1.1903   -0.3831 S   0  0  0  0  0  0  0  0  0  0  0  0
    0.1559   -0.4299   -0.9096 C   0  0  0  0  0  0  0  0  0  0  0  0
   -0.4337   -0.7657   -2.1328 C   0  0  0  0  0  0  0  0  0  0  0  0
   -0.5729   -2.0456   -2.6138 N   0  0  0  0  0  0  0  0  0  0  0  0
   -0.6537   -3.1377   -1.7330 C   0  0  0  0  0  0  0  0  0  0  0  0
   -0.0743   -4.3594   -2.0793 C   0  0  0  0  0  0  0  0  0  0  0  0
   -0.0440   -5.3944   -1.1726 C   0  0  0  0  0  0  0  0  0  0  0  0
   -0.5908   -5.2386    0.1008 C   0  0  0  0  0  0  0  0  0  0  0  0
   -0.4188   -6.5944    1.2107 S   0  0  0  0  0  0  0  0  0  0  0  0
   -0.9851   -5.9248    2.8003 C   0  0  0  0  0  0  0  0  0  0  0  0
   -1.2317   -4.0488    0.4235 C   0  0  0  0  0  0  0  0  0  0  0  0
   -1.2689   -3.0146   -0.4895 C   0  0  0  0  0  0  0  0  0  0  0  0
   -0.7581   -2.2426   -3.9894 C   0  0  0  0  0  0  0  0  0  0  0  0
    0.0071   -1.5246   -4.9053 C   0  0  0  0  0  0  0  0  0  0  0  0
   -0.2473   -1.6238   -6.2572 C   0  0  0  0  0  0  0  0  0  0  0  0
   -1.2694   -2.4467   -6.7109 C   0  0  0  0  0  0  0  0  0  0  0  0
   -1.7098   -2.5492   -8.4154 S   0  0  0  0  0  0  0  0  0  0  0  0
   -1.3334   -0.8645   -8.9873 C   0  0  0  0  0  0  0  0  0  0  0  0
   -1.9807   -3.2281   -5.8043 C   0  0  0  0  0  0  0  0  0  0  0  0
   -1.7306   -3.1273   -4.4542 C   0  0  0  0  0  0  0  0  0  0  0  0
   -1.0095    0.3814   -2.7393 C   0  0  0  0  0  0  0  0  0  0  0  0
   -1.7828    0.6732   -4.2575 S   0  0  0  0  0  0  0  0  0  0  0  0
    0.9995   -1.2168   -0.0710 C   0  0  0  0  0  0  0  0  0  0  0  0
    1.8233   -2.2466   -0.5118 C   0  0  0  0  0  0  0  0  0  0  0  0
    2.0026   -2.4423   -1.8327 F   0  0  0  0  0  0  0  0  0  0  0  0
    2.5166   -3.0796    0.3706 C   0  0  0  0  0  0  0  0  0  0  0  0
    3.1714   -4.1237   -0.1542 F   0  0  0  0  0  0  0  0  0  0  0  0
    2.4877   -2.8845    1.7408 C   0  0  0  0  0  0  0  0  0  0  0  0
    1.7925   -1.7344    2.2151 C   0  0  0  0  0  0  0  0  0  0  0  0
    1.9075   -1.3584    3.4968 N   0  0  0  0  0  0  0  0  0  0  0  0
    1.2749   -0.2975    3.9299 C   0  0  0  0  0  0  0  0  0  0  0  0
    1.5465    0.0955    5.3497 C   0  0  0  0  0  0  0  0  0  0  0  0
    2.6065    1.1990    5.4043 C   0  0  0  0  0  0  0  0  0  0  0  0
    0.4391    0.4529    3.0547 C   0  0  0  0  0  0  0  0  0  0  0  0
    0.3772    0.1313    1.7854 N   0  0  0  0  0  0  0  0  0  0  0  0
    1.0513   -0.9278    1.3230 C   0  0  0  0  0  0  0  0  0  0  0  0
   -0.4266    1.5922    3.4917 C   0  0  0  0  0  0  0  0  0  0  0  0
   -1.7750    1.0625    3.9864 C   0  0  0  0  0  0  0  0  0  0  0  0
    3.1792   -3.7091    2.7077 C   0  0  0  0  0  0  0  0  0  0  0  0
    2.5678   -4.0485    3.9272 C   0  0  0  0  0  0  0  0  0  0  0  0
    3.3025   -4.6283    5.0321 C   0  0  0  0  0  0  0  0  0  0  0  0
    2.5044   -4.9117    6.0620 N   0  0  0  0  0  0  0  0  0  0  0  0
    1.0111   -4.4702    5.6984 S   0  0  0  0  0  4  0  0  0  0  0  0
    1.2663   -3.9253    4.2121 N   0  0  0  0  0  0  0  0  0  0  0  0
    4.6855   -4.8848    4.9594 C   0  0  0  0  0  0  0  0  0  0  0  0
    5.2517   -4.7059    3.6817 C   0  0  0  0  0  0  0  0  0  0  0  0
    6.5258   -4.9344    3.3568 N   0  0  0  0  0  0  0  0  0  0  0  0
    6.7718   -4.4618    1.8433 S   0  0  0  0  0  0  0  0  0  0  0  0
    5.3064   -3.9147    1.5170 N   0  0  0  0  0  0  0  0  0  0  0  0
    4.5186   -4.1066    2.5801 C   0  0  0  0  0  0  0  0  0  0  0  0
    5.4779   -5.2912    6.0692 C   0  0  0  0  0  0  0  0  0  0  0  0
    5.3005   -4.8659    7.3520 C   0  0  0  0  0  0  0  0  0  0  0  0
    4.5431   -3.6512    7.7509 C   0  0  0  0  0  0  0  0  0  0  0  0
    3.9160   -2.8872    7.0462 O   0  0  0  0  0  0  0  0  0  0  0  0
    4.8262   -3.4603    9.1861 C   0  0  0  0  0  0  0  0  0  0  0  0
    4.3481   -2.4335    9.9970 C   0  0  0  0  0  0  0  0  0  0  0  0
    4.8081   -2.4798   11.2905 C   0  0  0  0  0  0  0  0  0  0  0  0
    5.6895   -3.4702   11.7446 C   0  0  0  0  0  0  0  0  0  0  0  0
    6.1674   -4.4897   10.9566 C   0  0  0  0  0  0  0  0  0  0  0  0
    5.7057   -4.4643    9.6371 C   0  0  0  0  0  0  0  0  0  0  0  0
    5.9894   -5.3667    8.5251 C   0  0  0  0  0  0  0  0  0  0  0  0
    6.7095   -6.5303    8.5994 C   0  0  0  0  0  0  0  0  0  0  0  0
    6.8865   -7.4414    7.5360 C   0  0  0  0  0  0  0  0  0  0  0  0
    7.0607   -8.2490    6.7385 N   0  0  0  0  0  0  0  0  0  0  0  0
    7.3514   -6.9997    9.7638 C   0  0  0  0  0  0  0  0  0  0  0  0
    7.9034   -7.4362   10.6713 N   0  0  0  0  0  0  0  0  0  0  0  0
    5.7579   -2.8846   13.1328 C   0  0  0  0  0  0  0  0  0  0  0  0
    7.0182   -2.0660   13.5081 C   0  0  0  0  0  0  0  0  0  0  0  0
    7.5673   -1.5055   12.2198 C   0  0  0  0  0  0  0  0  0  0  0  0
    6.7278   -0.5713   11.7940 C   0  0  0  0  0  0  0  0  0  0  0  0
    5.5951   -0.4837   12.7869 C   0  0  0  0  0  0  0  0  0  0  0  0
    6.3486   -0.8090   14.0863 C   0  0  0  0  0  0  0  0  0  0  0  0
    4.7705   -1.7852   12.6289 C   0  0  0  0  0  0  0  0  0  0  0  0
   -2.4945    4.3432   -4.2799 H   0  0  0  0  0  0  0  0  0  0  0  0
   -4.2424    0.4846   -8.9176 H   0  0  0  0  0  0  0  0  0  0  0  0
   -5.1662    5.4654   -8.9155 H   0  0  0  0  0  0  0  0  0  0  0  0
   -7.1802    3.8637  -11.1891 H   0  0  0  0  0  0  0  0  0  0  0  0
   -5.7004    5.0185  -12.8246 H   0  0  0  0  0  0  0  0  0  0  0  0
   -3.2446    4.6121  -12.0260 H   0  0  0  0  0  0  0  0  0  0  0  0
   -2.7791    1.9979  -12.0633 H   0  0  0  0  0  0  0  0  0  0  0  0
   -4.9509    0.7914  -12.8846 H   0  0  0  0  0  0  0  0  0  0  0  0
   -5.1932    2.9498  -14.3990 H   0  0  0  0  0  0  0  0  0  0  0  0
   -6.7537    2.6616  -13.5894 H   0  0  0  0  0  0  0  0  0  0  0  0
   -6.7284    1.3222  -11.2228 H   0  0  0  0  0  0  0  0  0  0  0  0
   -1.8182    6.4380   -1.6615 H   0  0  0  0  0  0  0  0  0  0  0  0
   -3.7166    7.9105   -2.0720 H   0  0  0  0  0  0  0  0  0  0  0  0
   -6.5227    9.4249   -3.9154 H   0  0  0  0  0  0  0  0  0  0  0  0
   -5.4439    9.4260   -2.5039 H   0  0  0  0  0  0  0  0  0  0  0  0
   -4.9024    8.7049   -4.0549 H   0  0  0  0  0  0  0  0  0  0  0  0
   -6.2093    4.5077   -2.7775 H   0  0  0  0  0  0  0  0  0  0  0  0
   -4.3017    3.0185   -2.3150 H   0  0  0  0  0  0  0  0  0  0  0  0
    0.8497    3.7740   -1.8821 H   0  0  0  0  0  0  0  0  0  0  0  0
    2.3619    4.0979    0.0073 H   0  0  0  0  0  0  0  0  0  0  0  0
    3.8833    3.6511    3.3135 H   0  0  0  0  0  0  0  0  0  0  0  0
    3.0950    2.8169    1.9525 H   0  0  0  0  0  0  0  0  0  0  0  0
    3.8807    4.4119    1.7107 H   0  0  0  0  0  0  0  0  0  0  0  0
   -0.9858    4.9036    2.5449 H   0  0  0  0  0  0  0  0  0  0  0  0
   -2.5099    4.5762    0.6318 H   0  0  0  0  0  0  0  0  0  0  0  0
    0.3887   -4.4718   -3.0474 H   0  0  0  0  0  0  0  0  0  0  0  0
    0.4316   -6.3281   -1.4290 H   0  0  0  0  0  0  0  0  0  0  0  0
   -2.0541   -5.7349    2.7672 H   0  0  0  0  0  0  0  0  0  0  0  0
   -0.7754   -6.6993    3.5319 H   0  0  0  0  0  0  0  0  0  0  0  0
   -0.4241   -5.0252    3.0411 H   0  0  0  0  0  0  0  0  0  0  0  0
   -1.7029   -3.9117    1.3829 H   0  0  0  0  0  0  0  0  0  0  0  0
   -1.7700   -2.0955   -0.2243 H   0  0  0  0  0  0  0  0  0  0  0  0
    0.8037   -0.8891   -4.5487 H   0  0  0  0  0  0  0  0  0  0  0  0
    0.3508   -1.0539   -6.9495 H   0  0  0  0  0  0  0  0  0  0  0  0
   -1.6688   -0.1644   -8.2276 H   0  0  0  0  0  0  0  0  0  0  0  0
   -1.8905   -0.7250   -9.9087 H   0  0  0  0  0  0  0  0  0  0  0  0
   -0.2707   -0.7566   -9.1849 H   0  0  0  0  0  0  0  0  0  0  0  0
   -2.7519   -3.8886   -6.1691 H   0  0  0  0  0  0  0  0  0  0  0  0
   -2.3089   -3.7052   -3.7487 H   0  0  0  0  0  0  0  0  0  0  0  0
    0.6314    0.4357    5.8355 H   0  0  0  0  0  0  0  0  0  0  0  0
    1.9274   -0.7832    5.8719 H   0  0  0  0  0  0  0  0  0  0  0  0
    2.2723    2.0937    4.8831 H   0  0  0  0  0  0  0  0  0  0  0  0
    3.5267    0.8490    4.9428 H   0  0  0  0  0  0  0  0  0  0  0  0
    2.8169    1.4588    6.4385 H   0  0  0  0  0  0  0  0  0  0  0  0
    0.0557    2.1701    4.2787 H   0  0  0  0  0  0  0  0  0  0  0  0
   -0.5939    2.2363    2.6276 H   0  0  0  0  0  0  0  0  0  0  0  0
   -2.4085    1.8899    4.2953 H   0  0  0  0  0  0  0  0  0  0  0  0
   -1.6444    0.3898    4.8316 H   0  0  0  0  0  0  0  0  0  0  0  0
   -2.2765    0.5200    3.1888 H   0  0  0  0  0  0  0  0  0  0  0  0
    6.3142   -5.9351    5.8267 H   0  0  0  0  0  0  0  0  0  0  0  0
    3.6759   -1.6861    9.6048 H   0  0  0  0  0  0  0  0  0  0  0  0
    6.8486   -5.2415   11.3189 H   0  0  0  0  0  0  0  0  0  0  0  0
    5.4300   -3.5338   13.9422 H   0  0  0  0  0  0  0  0  0  0  0  0
    7.7260   -2.5932   14.1419 H   0  0  0  0  0  0  0  0  0  0  0  0
    8.4523   -1.8745   11.7354 H   0  0  0  0  0  0  0  0  0  0  0  0
    6.7709   -0.0043   10.8824 H   0  0  0  0  0  0  0  0  0  0  0  0
    5.0065    0.4299   12.7649 H   0  0  0  0  0  0  0  0  0  0  0  0
    7.0667   -0.0376   14.3610 H   0  0  0  0  0  0  0  0  0  0  0  0
    5.6909   -1.0163   14.9293 H   0  0  0  0  0  0  0  0  0  0  0  0
    3.7950   -1.7199   13.1071 H   0  0  0  0  0  0  0  0  0  0  0  0
  1  2  2  0  0  0  0
  2  3  1  0  0  0  0
  3  4  2  0  0  0  0
  3  5  1  0  0  0  0
  5  6  2  0  0  0  0
  6  7  1  0  0  0  0
  7  8  2  0  0  0  0
  8  9  1  0  0  0  0
  9 10  2  0  0  0  0
 10 11  1  0  0  0  0
 11 12  2  0  0  0  0
 12 13  1  0  0  0  0
 13 14  3  0  0  0  0
 12 15  1  0  0  0  0
 15 16  3  0  0  0  0
  8 17  1  0  0  0  0
 17 18  1  0  0  0  0
 18 19  1  0  0  0  0
 19 20  2  0  0  0  0
 20 21  1  0  0  0  0
 21 22  1  0  0  0  0
 21 23  1  0  0  0  0
  1 24  1  0  0  0  0
 24 25  2  0  0  0  0
 25 26  1  0  0  0  0
 26 27  1  0  0  0  0
 27 28  2  0  0  0  0
 28 29  1  0  0  0  0
 29 30  2  0  0  0  0
 30 31  1  0  0  0  0
 31 32  1  0  0  0  0
 30 33  1  0  0  0  0
 33 34  2  0  0  0  0
 26 35  1  0  0  0  0
 35 36  2  0  0  0  0
 36 37  1  0  0  0  0
 37 38  2  0  0  0  0
 38 39  1  0  0  0  0
 39 40  1  0  0  0  0
 38 41  1  0  0  0  0
 41 42  2  0  0  0  0
 25 43  1  0  0  0  0
 43 44  1  0  0  0  0
 44 45  1  0  0  0  0
 45 46  2  0  0  0  0
 46 47  1  0  0  0  0
 47 48  1  0  0  0  0
 48 49  2  0  0  0  0
 49 50  1  0  0  0  0
 50 51  2  0  0  0  0
 51 52  1  0  0  0  0
 52 53  1  0  0  0  0
 51 54  1  0  0  0  0
 54 55  2  0  0  0  0
 47 56  1  0  0  0  0
 56 57  2  0  0  0  0
 57 58  1  0  0  0  0
 58 59  2  0  0  0  0
 59 60  1  0  0  0  0
 60 61  1  0  0  0  0
 59 62  1  0  0  0  0
 62 63  2  0  0  0  0
 46 64  1  0  0  0  0
 64 65  1  0  0  0  0
 45 66  1  0  0  0  0
 66 67  2  0  0  0  0
 67 68  1  0  0  0  0
 67 69  1  0  0  0  0
 69 70  1  0  0  0  0
 69 71  2  0  0  0  0
 71 72  1  0  0  0  0
 72 73  2  0  0  0  0
 73 74  1  0  0  0  0
 74 75  1  0  0  0  0
 75 76  1  0  0  0  0
 74 77  2  0  0  0  0
 77 78  1  0  0  0  0
 78 79  2  0  0  0  0
 77 80  1  0  0  0  0
 80 81  1  0  0  0  0
 71 82  1  0  0  0  0
 82 83  2  0  0  0  0
 83 84  1  0  0  0  0
 84 85  1  0  0  0  0
 85 86  2  0  0  0  0
 86 87  2  0  0  0  0
 84 88  2  0  0  0  0
 88 89  1  0  0  0  0
 89 90  2  0  0  0  0
 90 91  1  0  0  0  0
 91 92  1  0  0  0  0
 92 93  2  0  0  0  0
 88 94  1  0  0  0  0
 94 95  2  0  0  0  0
 95 96  1  0  0  0  0
 96 97  2  0  0  0  0
 96 98  1  0  0  0  0
 98 99  2  0  0  0  0
 99100  1  0  0  0  0
100101  2  0  0  0  0
101102  1  0  0  0  0
102103  2  0  0  0  0
103104  1  0  0  0  0
104105  2  0  0  0  0
105106  1  0  0  0  0
106107  3  0  0  0  0
105108  1  0  0  0  0
108109  3  0  0  0  0
101110  1  0  0  0  0
110111  1  0  0  0  0
111112  1  0  0  0  0
112113  2  0  0  0  0
113114  1  0  0  0  0
114115  1  0  0  0  0
114116  1  0  0  0  0
 11  2  1  0  0  0  0
 23 17  1  0  0  0  0
 65 24  1  0  0  0  0
 79 66  1  0  0  0  0
 93 82  1  0  0  0  0
104 95  1  0  0  0  0
116110  1  0  0  0  0
 10  5  1  0  0  0  0
 22 18  1  0  0  0  0
 34 27  1  0  0  0  0
 42 35  1  0  0  0  0
 64 43  2  0  0  0  0
 79 72  1  0  0  0  0
 87 83  1  0  0  0  0
 93 89  1  0  0  0  0
103 98  1  0  0  0  0
115111  1  0  0  0  0
 23  7  1  0  0  0  0
 55 48  1  0  0  0  0
 63 56  1  0  0  0  0
116100  1  0  0  0  0
  1117  1  0  0  0  0
  6118  1  0  0  0  0
  9119  1  0  0  0  0
 17120  1  0  0  0  0
 18121  1  0  0  0  0
 19122  1  0  0  0  0
 20123  1  0  0  0  0
 21124  1  0  0  0  0
 22125  1  0  0  0  0
 22126  1  0  0  0  0
 23127  1  0  0  0  0
 28128  1  0  0  0  0
 29129  1  0  0  0  0
 32130  1  0  0  0  0
 32131  1  0  0  0  0
 32132  1  0  0  0  0
 33133  1  0  0  0  0
 34134  1  0  0  0  0
 36135  1  0  0  0  0
 37136  1  0  0  0  0
 40137  1  0  0  0  0
 40138  1  0  0  0  0
 40139  1  0  0  0  0
 41140  1  0  0  0  0
 42141  1  0  0  0  0
 49142  1  0  0  0  0
 50143  1  0  0  0  0
 53144  1  0  0  0  0
 53145  1  0  0  0  0
 53146  1  0  0  0  0
 54147  1  0  0  0  0
 55148  1  0  0  0  0
 57149  1  0  0  0  0
 58150  1  0  0  0  0
 61151  1  0  0  0  0
 61152  1  0  0  0  0
 61153  1  0  0  0  0
 62154  1  0  0  0  0
 63155  1  0  0  0  0
 75156  1  0  0  0  0
 75157  1  0  0  0  0
 76158  1  0  0  0  0
 76159  1  0  0  0  0
 76160  1  0  0  0  0
 80161  1  0  0  0  0
 80162  1  0  0  0  0
 81163  1  0  0  0  0
 81164  1  0  0  0  0
 81165  1  0  0  0  0
 94166  1  0  0  0  0
 99167  1  0  0  0  0
102168  1  0  0  0  0
110169  1  0  0  0  0
111170  1  0  0  0  0
112171  1  0  0  0  0
113172  1  0  0  0  0
114173  1  0  0  0  0
115174  1  0  0  0  0
115175  1  0  0  0  0
116176  1  0  0  0  0
M  END
