
  xtb     02122222323D
 energy: -300.596332300229 gnorm: 0.000579063272 xtb: 6.4.1 (unknown)
164180  0     0  0            999 V2000
   -2.7480   -6.6477   -0.3824 C   0  0  0  0  0  0  0  0  0  0  0  0
   -2.1217   -7.6288    0.2996 C   0  0  0  0  0  0  0  0  0  0  0  0
   -1.2309   -7.4074    1.4787 C   0  0  0  0  0  0  0  0  0  0  0  0
   -1.2047   -6.4420    2.2088 O   0  0  0  0  0  0  0  0  0  0  0  0
   -0.5285   -8.6882    1.6769 C   0  0  0  0  0  0  0  0  0  0  0  0
    0.5054   -8.9477    2.5736 C   0  0  0  0  0  0  0  0  0  0  0  0
    0.9545  -10.2458    2.5526 C   0  0  0  0  0  0  0  0  0  0  0  0
    0.4132  -11.2212    1.7024 C   0  0  0  0  0  0  0  0  0  0  0  0
   -0.6117  -10.9833    0.8200 C   0  0  0  0  0  0  0  0  0  0  0  0
   -1.0863   -9.6667    0.8266 C   0  0  0  0  0  0  0  0  0  0  0  0
   -2.1462   -9.0587    0.0311 C   0  0  0  0  0  0  0  0  0  0  0  0
   -2.9939   -9.7133   -0.8198 C   0  0  0  0  0  0  0  0  0  0  0  0
   -2.9835  -11.1063   -1.0475 C   0  0  0  0  0  0  0  0  0  0  0  0
   -3.0375  -12.2299   -1.2765 N   0  0  0  0  0  0  0  0  0  0  0  0
   -4.0206   -9.1011   -1.5689 C   0  0  0  0  0  0  0  0  0  0  0  0
   -4.8762   -8.6850   -2.2121 N   0  0  0  0  0  0  0  0  0  0  0  0
    1.3373  -12.2963    2.2162 C   0  0  0  0  0  0  0  0  0  0  0  0
    0.7536  -13.3344    3.2061 C   0  0  0  0  0  0  0  0  0  0  0  0
   -0.3945  -12.6557    3.9114 C   0  0  0  0  0  0  0  0  0  0  0  0
    0.1140  -11.7336    4.7177 C   0  0  0  0  0  0  0  0  0  0  0  0
    1.6154  -11.7725    4.5727 C   0  0  0  0  0  0  0  0  0  0  0  0
    1.8230  -13.2723    4.3083 C   0  0  0  0  0  0  0  0  0  0  0  0
    1.9377  -11.2115    3.1651 C   0  0  0  0  0  0  0  0  0  0  0  0
   -2.4057   -5.2527   -0.2581 C   0  0  0  0  0  0  0  0  0  0  0  0
   -1.0478   -4.8451   -0.1463 C   0  0  0  0  0  0  0  0  0  0  0  0
   -0.0696   -5.7764   -0.1458 N   0  0  0  0  0  0  0  0  0  0  0  0
    1.1617   -5.3858   -0.0457 C   0  0  0  0  0  0  0  0  0  0  0  0
    1.5001   -4.0028    0.0387 C   0  0  0  0  0  0  0  0  0  0  0  0
    2.7812   -3.6785    0.1528 O   0  0  0  0  0  0  0  0  0  0  0  0
    3.1004   -2.2871    0.1271 C   0  0  0  0  0  0  0  0  0  0  0  0
    2.9639   -1.7077   -1.2737 C   0  0  0  0  0  0  0  0  0  0  0  0
    0.5732   -3.0793   -0.0408 N   0  0  0  0  0  0  0  0  0  0  0  0
   -0.7108   -3.4714   -0.1307 C   0  0  0  0  0  0  0  0  0  0  0  0
   -1.7121   -2.4761   -0.2875 C   0  0  0  0  0  0  0  0  0  0  0  0
   -3.0279   -2.9050   -0.3548 C   0  0  0  0  0  0  0  0  0  0  0  0
   -3.3624   -4.2591   -0.3629 C   0  0  0  0  0  0  0  0  0  0  0  0
   -4.6572   -4.5994   -0.4672 F   0  0  0  0  0  0  0  0  0  0  0  0
   -4.0204   -1.9988   -0.4153 F   0  0  0  0  0  0  0  0  0  0  0  0
   -1.3679   -1.0836   -0.4512 C   0  0  0  0  0  0  0  0  0  0  0  0
   -1.8672   -0.2281   -1.4229 C   0  0  0  0  0  0  0  0  0  0  0  0
   -2.6746   -0.6067   -2.4782 N   0  0  0  0  0  0  0  0  0  0  0  0
   -3.6317    0.2878   -2.9743 C   0  0  0  0  0  0  0  0  0  0  0  0
   -4.3115    1.1479   -2.1175 C   0  0  0  0  0  0  0  0  0  0  0  0
   -5.2372    2.0473   -2.6100 C   0  0  0  0  0  0  0  0  0  0  0  0
   -5.5060    2.0917   -3.9705 C   0  0  0  0  0  0  0  0  0  0  0  0
   -6.6618    3.1951   -4.7195 S   0  0  0  0  0  0  0  0  0  0  0  0
   -7.2845    4.1861   -3.3321 C   0  0  0  0  0  0  0  0  0  0  0  0
   -4.8415    1.2165   -4.8294 C   0  0  0  0  0  0  0  0  0  0  0  0
   -3.9128    0.3271   -4.3404 C   0  0  0  0  0  0  0  0  0  0  0  0
   -2.5947   -1.9118   -2.9885 C   0  0  0  0  0  0  0  0  0  0  0  0
   -3.7489   -2.6278   -3.2933 C   0  0  0  0  0  0  0  0  0  0  0  0
   -3.6781   -3.9575   -3.6637 C   0  0  0  0  0  0  0  0  0  0  0  0
   -2.4467   -4.5944   -3.7385 C   0  0  0  0  0  0  0  0  0  0  0  0
   -2.2387   -6.3112   -4.0871 S   0  0  0  0  0  0  0  0  0  0  0  0
   -3.8784   -6.8401   -4.6598 C   0  0  0  0  0  0  0  0  0  0  0  0
   -1.2839   -3.8617   -3.4996 C   0  0  0  0  0  0  0  0  0  0  0  0
   -1.3547   -2.5364   -3.1380 C   0  0  0  0  0  0  0  0  0  0  0  0
   -1.3485    1.0811   -1.2445 C   0  0  0  0  0  0  0  0  0  0  0  0
   -1.5946    2.6067   -2.0225 S   0  0  0  0  0  0  0  0  0  0  0  0
   -0.5119    3.3799   -0.8912 C   0  0  0  0  0  0  0  0  0  0  0  0
    0.0098    2.5099    0.0331 C   0  0  0  0  0  0  0  0  0  0  0  0
    0.8892    2.8439    1.0666 N   0  0  0  0  0  0  0  0  0  0  0  0
    2.1282    2.1877    1.0712 C   0  0  0  0  0  0  0  0  0  0  0  0
    2.8391    2.0602   -0.1177 C   0  0  0  0  0  0  0  0  0  0  0  0
    4.0554    1.4040   -0.1414 C   0  0  0  0  0  0  0  0  0  0  0  0
    4.5651    0.8442    1.0221 C   0  0  0  0  0  0  0  0  0  0  0  0
    6.0839   -0.0540    1.1099 S   0  0  0  0  0  0  0  0  0  0  0  0
    6.7424    0.0251   -0.5805 C   0  0  0  0  0  0  0  0  0  0  0  0
    3.8503    0.9657    2.2127 C   0  0  0  0  0  0  0  0  0  0  0  0
    2.6471    1.6334    2.2414 C   0  0  0  0  0  0  0  0  0  0  0  0
    0.5172    3.7466    2.0512 C   0  0  0  0  0  0  0  0  0  0  0  0
    1.4767    4.4352    2.7994 C   0  0  0  0  0  0  0  0  0  0  0  0
    1.0891    5.3344    3.7673 C   0  0  0  0  0  0  0  0  0  0  0  0
   -0.2601    5.5889    3.9981 C   0  0  0  0  0  0  0  0  0  0  0  0
   -0.6780    6.7598    5.2523 S   0  0  0  0  0  0  0  0  0  0  0  0
   -2.2436    7.4437    4.6304 C   0  0  0  0  0  0  0  0  0  0  0  0
   -1.2195    4.8947    3.2711 C   0  0  0  0  0  0  0  0  0  0  0  0
   -0.8337    3.9778    2.3178 C   0  0  0  0  0  0  0  0  0  0  0  0
   -0.4628    1.1895   -0.1858 C   0  0  0  0  0  0  0  0  0  0  0  0
   -0.1868   -0.3263    0.5925 S   0  0  0  0  0  0  0  0  0  0  0  0
   -0.2033    4.8011   -1.0421 C   0  0  0  0  0  0  0  0  0  0  0  0
    0.9012    5.1890   -1.8378 C   0  0  0  0  0  0  0  0  0  0  0  0
    1.6599    4.2308   -2.4219 N   0  0  0  0  0  0  0  0  0  0  0  0
    2.6542    4.6074   -3.1636 C   0  0  0  0  0  0  0  0  0  0  0  0
    2.9435    5.9871   -3.3863 C   0  0  0  0  0  0  0  0  0  0  0  0
    3.9508    6.2947   -4.1880 O   0  0  0  0  0  0  0  0  0  0  0  0
    4.2043    7.6865   -4.3889 C   0  0  0  0  0  0  0  0  0  0  0  0
    5.3834    7.8216   -5.3337 C   0  0  0  0  0  0  0  0  0  0  0  0
    2.2342    6.9328   -2.8156 N   0  0  0  0  0  0  0  0  0  0  0  0
    1.2101    6.5576   -2.0260 C   0  0  0  0  0  0  0  0  0  0  0  0
    0.4737    7.5622   -1.3437 C   0  0  0  0  0  0  0  0  0  0  0  0
   -0.5974    7.1462   -0.5730 C   0  0  0  0  0  0  0  0  0  0  0  0
   -0.9523    5.7983   -0.4571 C   0  0  0  0  0  0  0  0  0  0  0  0
   -2.0604    5.4963    0.2388 F   0  0  0  0  0  0  0  0  0  0  0  0
   -1.3622    8.0524    0.0656 F   0  0  0  0  0  0  0  0  0  0  0  0
    0.8364    8.9498   -1.5079 C   0  0  0  0  0  0  0  0  0  0  0  0
    0.8662    9.9083   -0.5573 C   0  0  0  0  0  0  0  0  0  0  0  0
    0.9125   11.3543   -0.9558 C   0  0  0  0  0  0  0  0  0  0  0  0
    1.1499   11.7870   -2.0568 O   0  0  0  0  0  0  0  0  0  0  0  0
    0.5669   12.0771    0.2728 C   0  0  0  0  0  0  0  0  0  0  0  0
    0.4594   11.1532    1.3661 C   0  0  0  0  0  0  0  0  0  0  0  0
    0.1449   11.7508    2.5455 C   0  0  0  0  0  0  0  0  0  0  0  0
   -0.0347   13.4585    2.3505 S   0  0  0  0  0  0  0  0  0  0  0  0
    0.3323   13.3670    0.6445 C   0  0  0  0  0  0  0  0  0  0  0  0
    0.3651   14.7560   -0.3249 Cl  0  0  0  0  0  0  0  0  0  0  0  0
    0.7664    9.8206    0.8898 C   0  0  0  0  0  0  0  0  0  0  0  0
    1.1060    8.7613    1.6926 C   0  0  0  0  0  0  0  0  0  0  0  0
    1.0398    8.8590    3.0957 C   0  0  0  0  0  0  0  0  0  0  0  0
    0.9809    8.9190    4.2412 N   0  0  0  0  0  0  0  0  0  0  0  0
    1.6417    7.5427    1.2400 C   0  0  0  0  0  0  0  0  0  0  0  0
    2.1195    6.5412    0.9403 N   0  0  0  0  0  0  0  0  0  0  0  0
   -3.5058   -6.8815   -1.1177 H   0  0  0  0  0  0  0  0  0  0  0  0
    0.8944   -8.1678    3.2094 H   0  0  0  0  0  0  0  0  0  0  0  0
   -1.0172  -11.7429    0.1726 H   0  0  0  0  0  0  0  0  0  0  0  0
    1.9964  -12.7504    1.4789 H   0  0  0  0  0  0  0  0  0  0  0  0
    0.5409  -14.3056    2.7678 H   0  0  0  0  0  0  0  0  0  0  0  0
   -1.4285  -12.8699    3.7144 H   0  0  0  0  0  0  0  0  0  0  0  0
   -0.4103  -11.0227    5.3291 H   0  0  0  0  0  0  0  0  0  0  0  0
    2.1876  -11.3223    5.3796 H   0  0  0  0  0  0  0  0  0  0  0  0
    2.8243  -13.5164    3.9558 H   0  0  0  0  0  0  0  0  0  0  0  0
    1.5758  -13.8900    5.1703 H   0  0  0  0  0  0  0  0  0  0  0  0
    2.9901  -10.9589    3.0507 H   0  0  0  0  0  0  0  0  0  0  0  0
    1.9349   -6.1401   -0.0564 H   0  0  0  0  0  0  0  0  0  0  0  0
    2.4450   -1.7499    0.8194 H   0  0  0  0  0  0  0  0  0  0  0  0
    4.1321   -2.2353    0.4797 H   0  0  0  0  0  0  0  0  0  0  0  0
    1.9353   -1.8012   -1.6110 H   0  0  0  0  0  0  0  0  0  0  0  0
    3.2262   -0.6547   -1.2533 H   0  0  0  0  0  0  0  0  0  0  0  0
    3.6140   -2.2351   -1.9684 H   0  0  0  0  0  0  0  0  0  0  0  0
   -4.1290    1.0979   -1.0549 H   0  0  0  0  0  0  0  0  0  0  0  0
   -5.7454    2.6982   -1.9176 H   0  0  0  0  0  0  0  0  0  0  0  0
   -7.8038    3.5484   -2.6226 H   0  0  0  0  0  0  0  0  0  0  0  0
   -6.4647    4.7195   -2.8600 H   0  0  0  0  0  0  0  0  0  0  0  0
   -7.9822    4.8937   -3.7693 H   0  0  0  0  0  0  0  0  0  0  0  0
   -5.0602    1.2523   -5.8856 H   0  0  0  0  0  0  0  0  0  0  0  0
   -3.3944   -0.3421   -5.0108 H   0  0  0  0  0  0  0  0  0  0  0  0
   -4.7120   -2.1493   -3.1986 H   0  0  0  0  0  0  0  0  0  0  0  0
   -4.5936   -4.4920   -3.8574 H   0  0  0  0  0  0  0  0  0  0  0  0
   -4.5861   -6.8474   -3.8362 H   0  0  0  0  0  0  0  0  0  0  0  0
   -4.2067   -6.1943   -5.4685 H   0  0  0  0  0  0  0  0  0  0  0  0
   -3.7453   -7.8537   -5.0248 H   0  0  0  0  0  0  0  0  0  0  0  0
   -0.3271   -4.3522   -3.5961 H   0  0  0  0  0  0  0  0  0  0  0  0
   -0.4498   -1.9784   -2.9482 H   0  0  0  0  0  0  0  0  0  0  0  0
    2.4411    2.4975   -1.0219 H   0  0  0  0  0  0  0  0  0  0  0  0
    4.6003    1.3510   -1.0709 H   0  0  0  0  0  0  0  0  0  0  0  0
    7.6905   -0.5026   -0.5478 H   0  0  0  0  0  0  0  0  0  0  0  0
    6.9081    1.0597   -0.8658 H   0  0  0  0  0  0  0  0  0  0  0  0
    6.0664   -0.4735   -1.2689 H   0  0  0  0  0  0  0  0  0  0  0  0
    4.2520    0.5250    3.1121 H   0  0  0  0  0  0  0  0  0  0  0  0
    2.0960    1.7226    3.1650 H   0  0  0  0  0  0  0  0  0  0  0  0
    2.5247    4.2741    2.6035 H   0  0  0  0  0  0  0  0  0  0  0  0
    1.8292    5.8715    4.3401 H   0  0  0  0  0  0  0  0  0  0  0  0
   -2.1593    7.6188    3.5622 H   0  0  0  0  0  0  0  0  0  0  0  0
   -2.3865    8.3840    5.1529 H   0  0  0  0  0  0  0  0  0  0  0  0
   -3.0679    6.7720    4.8510 H   0  0  0  0  0  0  0  0  0  0  0  0
   -2.2707    5.0513    3.4524 H   0  0  0  0  0  0  0  0  0  0  0  0
   -1.5888    3.4286    1.7764 H   0  0  0  0  0  0  0  0  0  0  0  0
    3.2648    3.8423   -3.6208 H   0  0  0  0  0  0  0  0  0  0  0  0
    3.3045    8.1536   -4.8039 H   0  0  0  0  0  0  0  0  0  0  0  0
    4.4107    8.1516   -3.4187 H   0  0  0  0  0  0  0  0  0  0  0  0
    6.2629    7.3474   -4.9070 H   0  0  0  0  0  0  0  0  0  0  0  0
    5.5938    8.8731   -5.5038 H   0  0  0  0  0  0  0  0  0  0  0  0
    5.1588    7.3457   -6.2845 H   0  0  0  0  0  0  0  0  0  0  0  0
    1.0868    9.2535   -2.5176 H   0  0  0  0  0  0  0  0  0  0  0  0
   -0.0005   11.3132    3.5130 H   0  0  0  0  0  0  0  0  0  0  0  0
  1  2  2  0  0  0  0
  2  3  1  0  0  0  0
  3  4  2  0  0  0  0
  3  5  1  0  0  0  0
  5  6  2  0  0  0  0
  6  7  1  0  0  0  0
  7  8  2  0  0  0  0
  8  9  1  0  0  0  0
  9 10  2  0  0  0  0
 10 11  1  0  0  0  0
 11 12  2  0  0  0  0
 12 13  1  0  0  0  0
 13 14  3  0  0  0  0
 12 15  1  0  0  0  0
 15 16  3  0  0  0  0
  8 17  1  0  0  0  0
 17 18  1  0  0  0  0
 18 19  1  0  0  0  0
 19 20  2  0  0  0  0
 20 21  1  0  0  0  0
 21 22  1  0  0  0  0
 21 23  1  0  0  0  0
  1 24  1  0  0  0  0
 24 25  1  0  0  0  0
 25 26  2  0  0  0  0
 26 27  1  0  0  0  0
 27 28  2  0  0  0  0
 28 29  1  0  0  0  0
 29 30  1  0  0  0  0
 30 31  1  0  0  0  0
 28 32  1  0  0  0  0
 32 33  2  0  0  0  0
 33 34  1  0  0  0  0
 34 35  2  0  0  0  0
 35 36  1  0  0  0  0
 36 37  1  0  0  0  0
 35 38  1  0  0  0  0
 34 39  1  0  0  0  0
 39 40  2  0  0  0  0
 40 41  1  0  0  0  0
 41 42  1  0  0  0  0
 42 43  2  0  0  0  0
 43 44  1  0  0  0  0
 44 45  2  0  0  0  0
 45 46  1  0  0  0  0
 46 47  1  0  0  0  0
 45 48  1  0  0  0  0
 48 49  2  0  0  0  0
 41 50  1  0  0  0  0
 50 51  2  0  0  0  0
 51 52  1  0  0  0  0
 52 53  2  0  0  0  0
 53 54  1  0  0  0  0
 54 55  1  0  0  0  0
 53 56  1  0  0  0  0
 56 57  2  0  0  0  0
 40 58  1  0  0  0  0
 58 59  1  0  0  0  0
 59 60  1  0  0  0  0
 60 61  2  0  0  0  0
 61 62  1  0  0  0  0
 62 63  1  0  0  0  0
 63 64  2  0  0  0  0
 64 65  1  0  0  0  0
 65 66  2  0  0  0  0
 66 67  1  0  0  0  0
 67 68  1  0  0  0  0
 66 69  1  0  0  0  0
 69 70  2  0  0  0  0
 62 71  1  0  0  0  0
 71 72  2  0  0  0  0
 72 73  1  0  0  0  0
 73 74  2  0  0  0  0
 74 75  1  0  0  0  0
 75 76  1  0  0  0  0
 74 77  1  0  0  0  0
 77 78  2  0  0  0  0
 61 79  1  0  0  0  0
 79 80  1  0  0  0  0
 60 81  1  0  0  0  0
 81 82  1  0  0  0  0
 82 83  2  0  0  0  0
 83 84  1  0  0  0  0
 84 85  2  0  0  0  0
 85 86  1  0  0  0  0
 86 87  1  0  0  0  0
 87 88  1  0  0  0  0
 85 89  1  0  0  0  0
 89 90  2  0  0  0  0
 90 91  1  0  0  0  0
 91 92  2  0  0  0  0
 92 93  1  0  0  0  0
 93 94  1  0  0  0  0
 92 95  1  0  0  0  0
 91 96  1  0  0  0  0
 96 97  2  0  0  0  0
 97 98  1  0  0  0  0
 98 99  2  0  0  0  0
 98100  1  0  0  0  0
100101  1  0  0  0  0
101102  2  0  0  0  0
102103  1  0  0  0  0
103104  1  0  0  0  0
104105  1  0  0  0  0
101106  1  0  0  0  0
106107  2  0  0  0  0
107108  1  0  0  0  0
108109  3  0  0  0  0
107110  1  0  0  0  0
110111  3  0  0  0  0
 11  2  1  0  0  0  0
 23 17  1  0  0  0  0
 36 24  2  0  0  0  0
 80 39  1  0  0  0  0
 93 81  2  0  0  0  0
106 97  1  0  0  0  0
 10  5  1  0  0  0  0
 22 18  1  0  0  0  0
 33 25  1  0  0  0  0
 49 42  1  0  0  0  0
 57 50  1  0  0  0  0
 79 58  2  0  0  0  0
 90 82  1  0  0  0  0
104100  2  0  0  0  0
 23  7  1  0  0  0  0
 70 63  1  0  0  0  0
 78 71  1  0  0  0  0
  1112  1  0  0  0  0
  6113  1  0  0  0  0
  9114  1  0  0  0  0
 17115  1  0  0  0  0
 18116  1  0  0  0  0
 19117  1  0  0  0  0
 20118  1  0  0  0  0
 21119  1  0  0  0  0
 22120  1  0  0  0  0
 22121  1  0  0  0  0
 23122  1  0  0  0  0
 27123  1  0  0  0  0
 30124  1  0  0  0  0
 30125  1  0  0  0  0
 31126  1  0  0  0  0
 31127  1  0  0  0  0
 31128  1  0  0  0  0
 43129  1  0  0  0  0
 44130  1  0  0  0  0
 47131  1  0  0  0  0
 47132  1  0  0  0  0
 47133  1  0  0  0  0
 48134  1  0  0  0  0
 49135  1  0  0  0  0
 51136  1  0  0  0  0
 52137  1  0  0  0  0
 55138  1  0  0  0  0
 55139  1  0  0  0  0
 55140  1  0  0  0  0
 56141  1  0  0  0  0
 57142  1  0  0  0  0
 64143  1  0  0  0  0
 65144  1  0  0  0  0
 68145  1  0  0  0  0
 68146  1  0  0  0  0
 68147  1  0  0  0  0
 69148  1  0  0  0  0
 70149  1  0  0  0  0
 72150  1  0  0  0  0
 73151  1  0  0  0  0
 76152  1  0  0  0  0
 76153  1  0  0  0  0
 76154  1  0  0  0  0
 77155  1  0  0  0  0
 78156  1  0  0  0  0
 84157  1  0  0  0  0
 87158  1  0  0  0  0
 87159  1  0  0  0  0
 88160  1  0  0  0  0
 88161  1  0  0  0  0
 88162  1  0  0  0  0
 96163  1  0  0  0  0
102164  1  0  0  0  0
M  END
