
  xtb     02072211313D
 energy: -318.901339631940 gnorm: 0.000280796249 xtb: 6.4.1 (unknown)
185204  0     0  0            999 V2000
    2.9467   -4.3913    6.5032 C   0  0  0  0  0  0  0  0  0  0  0  0
    2.8331   -5.4549    7.3203 C   0  0  0  0  0  0  0  0  0  0  0  0
    1.9555   -6.6475    7.1067 C   0  0  0  0  0  0  0  0  0  0  0  0
    1.4539   -7.0041    6.0674 O   0  0  0  0  0  0  0  0  0  0  0  0
    1.9216   -7.3399    8.4069 C   0  0  0  0  0  0  0  0  0  0  0  0
    1.1132   -8.4182    8.7605 C   0  0  0  0  0  0  0  0  0  0  0  0
    1.2724   -8.8353   10.0597 C   0  0  0  0  0  0  0  0  0  0  0  0
    2.1809   -8.2345   10.9442 C   0  0  0  0  0  0  0  0  0  0  0  0
    2.9965   -7.1829   10.6058 C   0  0  0  0  0  0  0  0  0  0  0  0
    2.8443   -6.7358    9.2886 C   0  0  0  0  0  0  0  0  0  0  0  0
    3.5196   -5.6476    8.5948 C   0  0  0  0  0  0  0  0  0  0  0  0
    4.6220   -4.9692    9.0330 C   0  0  0  0  0  0  0  0  0  0  0  0
    5.3069   -3.9695    8.3065 C   0  0  0  0  0  0  0  0  0  0  0  0
    5.9297   -3.1602    7.7822 N   0  0  0  0  0  0  0  0  0  0  0  0
    5.2686   -5.2168   10.2640 C   0  0  0  0  0  0  0  0  0  0  0  0
    5.8404   -5.3659   11.2477 N   0  0  0  0  0  0  0  0  0  0  0  0
    1.7922   -9.1403   12.0848 C   0  0  0  0  0  0  0  0  0  0  0  0
    0.8696   -8.5543   13.1825 C   0  0  0  0  0  0  0  0  0  0  0  0
    0.0701   -7.4542   12.5292 C   0  0  0  0  0  0  0  0  0  0  0  0
   -0.7899   -8.0202   11.6929 C   0  0  0  0  0  0  0  0  0  0  0  0
   -0.5881   -9.5138   11.7665 C   0  0  0  0  0  0  0  0  0  0  0  0
   -0.1948   -9.6614   13.2450 C   0  0  0  0  0  0  0  0  0  0  0  0
    0.7800   -9.8079   11.1012 C   0  0  0  0  0  0  0  0  0  0  0  0
    2.1702   -4.1244    5.3112 C   0  0  0  0  0  0  0  0  0  0  0  0
    0.8093   -4.3184    5.1901 C   0  0  0  0  0  0  0  0  0  0  0  0
    0.0863   -4.7448    6.2340 F   0  0  0  0  0  0  0  0  0  0  0  0
    0.1161   -3.9991    4.0083 C   0  0  0  0  0  0  0  0  0  0  0  0
   -1.1871   -4.2973    3.9565 F   0  0  0  0  0  0  0  0  0  0  0  0
    0.7477   -3.4248    2.9272 C   0  0  0  0  0  0  0  0  0  0  0  0
    2.1439   -3.1747    3.0305 C   0  0  0  0  0  0  0  0  0  0  0  0
    2.7936   -2.5359    2.0404 N   0  0  0  0  0  0  0  0  0  0  0  0
    4.0889   -2.3566    2.1222 C   0  0  0  0  0  0  0  0  0  0  0  0
    4.7312   -1.6514    0.9676 C   0  0  0  0  0  0  0  0  0  0  0  0
    5.2725   -2.6555   -0.0526 C   0  0  0  0  0  0  0  0  0  0  0  0
    4.8120   -2.8250    3.2621 C   0  0  0  0  0  0  0  0  0  0  0  0
    4.1744   -3.3613    4.2731 N   0  0  0  0  0  0  0  0  0  0  0  0
    2.8468   -3.5454    4.2006 C   0  0  0  0  0  0  0  0  0  0  0  0
    6.3002   -2.7581    3.4100 C   0  0  0  0  0  0  0  0  0  0  0  0
    6.8971   -4.1624    3.2831 C   0  0  0  0  0  0  0  0  0  0  0  0
    0.0409   -2.9615    1.7314 C   0  0  0  0  0  0  0  0  0  0  0  0
   -1.0725   -2.0935    1.8528 C   0  0  0  0  0  0  0  0  0  0  0  0
   -1.5643   -1.7991    3.0795 N   0  0  0  0  0  0  0  0  0  0  0  0
   -2.5770   -0.9945    3.1631 C   0  0  0  0  0  0  0  0  0  0  0  0
   -3.1601   -0.4060    2.0001 C   0  0  0  0  0  0  0  0  0  0  0  0
   -4.1971    0.4009    2.1515 O   0  0  0  0  0  0  0  0  0  0  0  0
   -4.7129    0.9939    0.9597 C   0  0  0  0  0  0  0  0  0  0  0  0
   -5.8585    1.9111    1.3439 C   0  0  0  0  0  0  0  0  0  0  0  0
   -2.6705   -0.6320    0.8051 N   0  0  0  0  0  0  0  0  0  0  0  0
   -1.6217   -1.4722    0.7056 C   0  0  0  0  0  0  0  0  0  0  0  0
   -1.0252   -1.6641   -0.5630 C   0  0  0  0  0  0  0  0  0  0  0  0
    0.0028   -2.5738   -0.6622 C   0  0  0  0  0  0  0  0  0  0  0  0
    0.5202   -3.2277    0.4657 C   0  0  0  0  0  0  0  0  0  0  0  0
    1.5049   -4.1174    0.2777 F   0  0  0  0  0  0  0  0  0  0  0  0
    0.5634   -2.8212   -1.8569 F   0  0  0  0  0  0  0  0  0  0  0  0
   -1.3699   -0.7662   -1.6656 C   0  0  0  0  0  0  0  0  0  0  0  0
   -0.6019    0.3318   -1.9805 C   0  0  0  0  0  0  0  0  0  0  0  0
    0.5620    0.6694   -1.2725 N   0  0  0  0  0  0  0  0  0  0  0  0
    0.3842    0.8573    0.1084 C   0  0  0  0  0  0  0  0  0  0  0  0
    1.1488    0.1784    1.0515 C   0  0  0  0  0  0  0  0  0  0  0  0
    0.8949    0.3231    2.4001 C   0  0  0  0  0  0  0  0  0  0  0  0
   -0.1395    1.1412    2.8308 C   0  0  0  0  0  0  0  0  0  0  0  0
   -0.5912    1.3220    4.5283 S   0  0  0  0  0  0  0  0  0  0  0  0
    0.1744   -0.1216    5.3194 C   0  0  0  0  0  0  0  0  0  0  0  0
   -0.8861    1.8512    1.8931 C   0  0  0  0  0  0  0  0  0  0  0  0
   -0.6277    1.7118    0.5478 C   0  0  0  0  0  0  0  0  0  0  0  0
    1.8183    0.4601   -1.8346 C   0  0  0  0  0  0  0  0  0  0  0  0
    2.9555    1.0131   -1.2407 C   0  0  0  0  0  0  0  0  0  0  0  0
    4.2038    0.7667   -1.7646 C   0  0  0  0  0  0  0  0  0  0  0  0
    4.3522   -0.0217   -2.9034 C   0  0  0  0  0  0  0  0  0  0  0  0
    6.0126   -0.3224   -3.4387 S   0  0  0  0  0  0  0  0  0  0  0  0
    5.8134   -1.3208   -4.9405 C   0  0  0  0  0  0  0  0  0  0  0  0
    3.2234   -0.5239   -3.5314 C   0  0  0  0  0  0  0  0  0  0  0  0
    1.9699   -0.2831   -3.0020 C   0  0  0  0  0  0  0  0  0  0  0  0
   -1.1914    1.0952   -3.0140 C   0  0  0  0  0  0  0  0  0  0  0  0
   -0.7835    2.5645   -3.8103 S   0  0  0  0  0  0  0  0  0  0  0  0
   -2.3200    2.5371   -4.6880 C   0  0  0  0  0  0  0  0  0  0  0  0
   -3.0613    1.3685   -4.3996 C   0  0  0  0  0  0  0  0  0  0  0  0
   -4.2413    0.9745   -4.9941 N   0  0  0  0  0  0  0  0  0  0  0  0
   -5.3576    1.8204   -5.0753 C   0  0  0  0  0  0  0  0  0  0  0  0
   -6.1960    1.7668   -6.1891 C   0  0  0  0  0  0  0  0  0  0  0  0
   -7.3177    2.5625   -6.2465 C   0  0  0  0  0  0  0  0  0  0  0  0
   -7.6257    3.4252   -5.1962 C   0  0  0  0  0  0  0  0  0  0  0  0
   -9.0844    4.3957   -5.3571 S   0  0  0  0  0  0  0  0  0  0  0  0
   -8.7792    5.7719   -4.2122 C   0  0  0  0  0  0  0  0  0  0  0  0
   -6.7968    3.4709   -4.0805 C   0  0  0  0  0  0  0  0  0  0  0  0
   -5.6695    2.6785   -4.0241 C   0  0  0  0  0  0  0  0  0  0  0  0
   -4.3828   -0.3819   -5.3284 C   0  0  0  0  0  0  0  0  0  0  0  0
   -5.5904   -1.0527   -5.1341 C   0  0  0  0  0  0  0  0  0  0  0  0
   -5.7069   -2.3801   -5.4772 C   0  0  0  0  0  0  0  0  0  0  0  0
   -4.6227   -3.0746   -6.0132 C   0  0  0  0  0  0  0  0  0  0  0  0
   -4.8970   -4.7697   -6.4112 S   0  0  0  0  0  0  0  0  0  0  0  0
   -3.2752   -5.3566   -6.9778 C   0  0  0  0  0  0  0  0  0  0  0  0
   -3.4188   -2.4104   -6.2076 C   0  0  0  0  0  0  0  0  0  0  0  0
   -3.3048   -1.0762   -5.8723 C   0  0  0  0  0  0  0  0  0  0  0  0
   -2.3946    0.5631   -3.4584 C   0  0  0  0  0  0  0  0  0  0  0  0
   -2.8271   -0.8869   -2.6021 S   0  0  0  0  0  0  0  0  0  0  0  0
   -2.7417    3.5699   -5.5372 C   0  0  0  0  0  0  0  0  0  0  0  0
   -2.0150    4.5990   -6.0878 C   0  0  0  0  0  0  0  0  0  0  0  0
   -0.5530    4.7562   -6.0685 C   0  0  0  0  0  0  0  0  0  0  0  0
    0.2511    4.2041   -5.3404 O   0  0  0  0  0  0  0  0  0  0  0  0
   -0.2325    5.7349   -7.1244 C   0  0  0  0  0  0  0  0  0  0  0  0
    1.0328    6.1658   -7.5139 C   0  0  0  0  0  0  0  0  0  0  0  0
    1.0181    7.1061   -8.5166 C   0  0  0  0  0  0  0  0  0  0  0  0
   -0.1669    7.5755   -9.0981 C   0  0  0  0  0  0  0  0  0  0  0  0
   -1.4225    7.1607   -8.7207 C   0  0  0  0  0  0  0  0  0  0  0  0
   -1.4291    6.2150   -7.6931 C   0  0  0  0  0  0  0  0  0  0  0  0
   -2.5469    5.6067   -6.9771 C   0  0  0  0  0  0  0  0  0  0  0  0
   -3.8485    6.0421   -7.0227 C   0  0  0  0  0  0  0  0  0  0  0  0
   -4.3424    6.9910   -7.9393 C   0  0  0  0  0  0  0  0  0  0  0  0
   -4.8149    7.7387   -8.6720 N   0  0  0  0  0  0  0  0  0  0  0  0
   -4.8156    5.7221   -6.0550 C   0  0  0  0  0  0  0  0  0  0  0  0
   -5.6177    5.6115   -5.2390 N   0  0  0  0  0  0  0  0  0  0  0  0
    0.5650    8.5139  -10.0245 C   0  0  0  0  0  0  0  0  0  0  0  0
    0.5689   10.0197   -9.6622 C   0  0  0  0  0  0  0  0  0  0  0  0
    0.4006   10.1004   -8.1651 C   0  0  0  0  0  0  0  0  0  0  0  0
    1.5209    9.6604   -7.6078 C   0  0  0  0  0  0  0  0  0  0  0  0
    2.4670    9.2748   -8.7180 C   0  0  0  0  0  0  0  0  0  0  0  0
    2.0730   10.3122   -9.7815 C   0  0  0  0  0  0  0  0  0  0  0  0
    1.8852    7.9961   -9.3713 C   0  0  0  0  0  0  0  0  0  0  0  0
    3.6984   -3.6391    6.7035 H   0  0  0  0  0  0  0  0  0  0  0  0
    0.4257   -8.8501    8.0503 H   0  0  0  0  0  0  0  0  0  0  0  0
    3.6874   -6.7278   11.2960 H   0  0  0  0  0  0  0  0  0  0  0  0
    2.5878   -9.7577   12.4966 H   0  0  0  0  0  0  0  0  0  0  0  0
    1.3778   -8.2946   14.1072 H   0  0  0  0  0  0  0  0  0  0  0  0
    0.2449   -6.4072   12.6948 H   0  0  0  0  0  0  0  0  0  0  0  0
   -1.4758   -7.5406   11.0195 H   0  0  0  0  0  0  0  0  0  0  0  0
   -1.4079  -10.1273   11.4025 H   0  0  0  0  0  0  0  0  0  0  0  0
   -1.0119   -9.4213   13.9235 H   0  0  0  0  0  0  0  0  0  0  0  0
    0.2118  -10.6413   13.4908 H   0  0  0  0  0  0  0  0  0  0  0  0
    0.9114  -10.8633   10.8713 H   0  0  0  0  0  0  0  0  0  0  0  0
    3.9788   -1.0346    0.4754 H   0  0  0  0  0  0  0  0  0  0  0  0
    5.5352   -1.0012    1.3142 H   0  0  0  0  0  0  0  0  0  0  0  0
    5.6855   -2.1217   -0.9046 H   0  0  0  0  0  0  0  0  0  0  0  0
    4.4682   -3.3000   -0.3991 H   0  0  0  0  0  0  0  0  0  0  0  0
    6.0530   -3.2745    0.3825 H   0  0  0  0  0  0  0  0  0  0  0  0
    6.5244   -2.3794    4.4088 H   0  0  0  0  0  0  0  0  0  0  0  0
    6.7439   -2.0969    2.6681 H   0  0  0  0  0  0  0  0  0  0  0  0
    6.4820   -4.8087    4.0518 H   0  0  0  0  0  0  0  0  0  0  0  0
    7.9763   -4.1204    3.4042 H   0  0  0  0  0  0  0  0  0  0  0  0
    6.6721   -4.5938    2.3098 H   0  0  0  0  0  0  0  0  0  0  0  0
   -2.9634   -0.7648    4.1448 H   0  0  0  0  0  0  0  0  0  0  0  0
   -3.9048    1.5434    0.4637 H   0  0  0  0  0  0  0  0  0  0  0  0
   -5.0445    0.1986    0.2823 H   0  0  0  0  0  0  0  0  0  0  0  0
   -6.6368    1.3456    1.8487 H   0  0  0  0  0  0  0  0  0  0  0  0
   -5.5063    2.6901    2.0145 H   0  0  0  0  0  0  0  0  0  0  0  0
   -6.2745    2.3695    0.4515 H   0  0  0  0  0  0  0  0  0  0  0  0
    1.9230   -0.5025    0.7363 H   0  0  0  0  0  0  0  0  0  0  0  0
    1.4980   -0.2299    3.1016 H   0  0  0  0  0  0  0  0  0  0  0  0
    1.2538   -0.0052    5.3591 H   0  0  0  0  0  0  0  0  0  0  0  0
   -0.2271   -0.1498    6.3276 H   0  0  0  0  0  0  0  0  0  0  0  0
   -0.1135   -1.0173    4.7740 H   0  0  0  0  0  0  0  0  0  0  0  0
   -1.6756    2.5024    2.2371 H   0  0  0  0  0  0  0  0  0  0  0  0
   -1.2164    2.2516   -0.1788 H   0  0  0  0  0  0  0  0  0  0  0  0
    2.8526    1.6353   -0.3648 H   0  0  0  0  0  0  0  0  0  0  0  0
    5.0824    1.1833   -1.2959 H   0  0  0  0  0  0  0  0  0  0  0  0
    6.8198   -1.5173   -5.2972 H   0  0  0  0  0  0  0  0  0  0  0  0
    5.3174   -2.2571   -4.7015 H   0  0  0  0  0  0  0  0  0  0  0  0
    5.2600   -0.7587   -5.6872 H   0  0  0  0  0  0  0  0  0  0  0  0
    3.2990   -1.1188   -4.4271 H   0  0  0  0  0  0  0  0  0  0  0  0
    1.1036   -0.6983   -3.4935 H   0  0  0  0  0  0  0  0  0  0  0  0
   -5.9544    1.1025   -7.0056 H   0  0  0  0  0  0  0  0  0  0  0  0
   -7.9647    2.5330   -7.1094 H   0  0  0  0  0  0  0  0  0  0  0  0
   -9.4851    6.5495   -4.4862 H   0  0  0  0  0  0  0  0  0  0  0  0
   -7.7605    6.1181   -4.3549 H   0  0  0  0  0  0  0  0  0  0  0  0
   -8.9576    5.4586   -3.1873 H   0  0  0  0  0  0  0  0  0  0  0  0
   -7.0250    4.1169   -3.2497 H   0  0  0  0  0  0  0  0  0  0  0  0
   -5.0249    2.7133   -3.1577 H   0  0  0  0  0  0  0  0  0  0  0  0
   -6.4320   -0.5289   -4.7072 H   0  0  0  0  0  0  0  0  0  0  0  0
   -6.6391   -2.9017   -5.3254 H   0  0  0  0  0  0  0  0  0  0  0  0
   -3.4077   -6.4116   -7.1965 H   0  0  0  0  0  0  0  0  0  0  0  0
   -2.5401   -5.2329   -6.1881 H   0  0  0  0  0  0  0  0  0  0  0  0
   -2.9814   -4.8290   -7.8807 H   0  0  0  0  0  0  0  0  0  0  0  0
   -2.5638   -2.9146   -6.6273 H   0  0  0  0  0  0  0  0  0  0  0  0
   -2.3691   -0.5633   -6.0402 H   0  0  0  0  0  0  0  0  0  0  0  0
   -3.7845    3.5068   -5.8344 H   0  0  0  0  0  0  0  0  0  0  0  0
    1.9212    5.7791   -7.0395 H   0  0  0  0  0  0  0  0  0  0  0  0
   -2.3267    7.5305   -9.1751 H   0  0  0  0  0  0  0  0  0  0  0  0
    0.4219    8.3430  -11.0896 H   0  0  0  0  0  0  0  0  0  0  0  0
   -0.1091   10.6282  -10.2546 H   0  0  0  0  0  0  0  0  0  0  0  0
   -0.5086   10.4048   -7.6805 H   0  0  0  0  0  0  0  0  0  0  0  0
    1.7348    9.5234   -6.5639 H   0  0  0  0  0  0  0  0  0  0  0  0
    3.5182    9.2064   -8.4504 H   0  0  0  0  0  0  0  0  0  0  0  0
    2.3282   11.3303   -9.4913 H   0  0  0  0  0  0  0  0  0  0  0  0
    2.4800   10.0981  -10.7688 H   0  0  0  0  0  0  0  0  0  0  0  0
    2.6078    7.4921  -10.0104 H   0  0  0  0  0  0  0  0  0  0  0  0
  1  2  2  0  0  0  0
  2  3  1  0  0  0  0
  3  4  2  0  0  0  0
  3  5  1  0  0  0  0
  5  6  2  0  0  0  0
  6  7  1  0  0  0  0
  7  8  2  0  0  0  0
  8  9  1  0  0  0  0
  9 10  2  0  0  0  0
 10 11  1  0  0  0  0
 11 12  2  0  0  0  0
 12 13  1  0  0  0  0
 13 14  3  0  0  0  0
 12 15  1  0  0  0  0
 15 16  3  0  0  0  0
  8 17  1  0  0  0  0
 17 18  1  0  0  0  0
 18 19  1  0  0  0  0
 19 20  2  0  0  0  0
 20 21  1  0  0  0  0
 21 22  1  0  0  0  0
 21 23  1  0  0  0  0
  1 24  1  0  0  0  0
 24 25  2  0  0  0  0
 25 26  1  0  0  0  0
 25 27  1  0  0  0  0
 27 28  1  0  0  0  0
 27 29  2  0  0  0  0
 29 30  1  0  0  0  0
 30 31  2  0  0  0  0
 31 32  1  0  0  0  0
 32 33  1  0  0  0  0
 33 34  1  0  0  0  0
 32 35  2  0  0  0  0
 35 36  1  0  0  0  0
 36 37  2  0  0  0  0
 35 38  1  0  0  0  0
 38 39  1  0  0  0  0
 29 40  1  0  0  0  0
 40 41  1  0  0  0  0
 41 42  2  0  0  0  0
 42 43  1  0  0  0  0
 43 44  2  0  0  0  0
 44 45  1  0  0  0  0
 45 46  1  0  0  0  0
 46 47  1  0  0  0  0
 44 48  1  0  0  0  0
 48 49  2  0  0  0  0
 49 50  1  0  0  0  0
 50 51  2  0  0  0  0
 51 52  1  0  0  0  0
 52 53  1  0  0  0  0
 51 54  1  0  0  0  0
 50 55  1  0  0  0  0
 55 56  2  0  0  0  0
 56 57  1  0  0  0  0
 57 58  1  0  0  0  0
 58 59  2  0  0  0  0
 59 60  1  0  0  0  0
 60 61  2  0  0  0  0
 61 62  1  0  0  0  0
 62 63  1  0  0  0  0
 61 64  1  0  0  0  0
 64 65  2  0  0  0  0
 57 66  1  0  0  0  0
 66 67  2  0  0  0  0
 67 68  1  0  0  0  0
 68 69  2  0  0  0  0
 69 70  1  0  0  0  0
 70 71  1  0  0  0  0
 69 72  1  0  0  0  0
 72 73  2  0  0  0  0
 56 74  1  0  0  0  0
 74 75  1  0  0  0  0
 75 76  1  0  0  0  0
 76 77  2  0  0  0  0
 77 78  1  0  0  0  0
 78 79  1  0  0  0  0
 79 80  2  0  0  0  0
 80 81  1  0  0  0  0
 81 82  2  0  0  0  0
 82 83  1  0  0  0  0
 83 84  1  0  0  0  0
 82 85  1  0  0  0  0
 85 86  2  0  0  0  0
 78 87  1  0  0  0  0
 87 88  2  0  0  0  0
 88 89  1  0  0  0  0
 89 90  2  0  0  0  0
 90 91  1  0  0  0  0
 91 92  1  0  0  0  0
 90 93  1  0  0  0  0
 93 94  2  0  0  0  0
 77 95  1  0  0  0  0
 95 96  1  0  0  0  0
 76 97  1  0  0  0  0
 97 98  2  0  0  0  0
 98 99  1  0  0  0  0
 99100  2  0  0  0  0
 99101  1  0  0  0  0
101102  2  0  0  0  0
102103  1  0  0  0  0
103104  2  0  0  0  0
104105  1  0  0  0  0
105106  2  0  0  0  0
106107  1  0  0  0  0
107108  2  0  0  0  0
108109  1  0  0  0  0
109110  3  0  0  0  0
108111  1  0  0  0  0
111112  3  0  0  0  0
104113  1  0  0  0  0
113114  1  0  0  0  0
114115  1  0  0  0  0
115116  2  0  0  0  0
116117  1  0  0  0  0
117118  1  0  0  0  0
117119  1  0  0  0  0
 11  2  1  0  0  0  0
 23 17  1  0  0  0  0
 37 24  1  0  0  0  0
 52 40  2  0  0  0  0
 96 55  1  0  0  0  0
107 98  1  0  0  0  0
119113  1  0  0  0  0
 10  5  1  0  0  0  0
 22 18  1  0  0  0  0
 37 30  1  0  0  0  0
 49 41  1  0  0  0  0
 65 58  1  0  0  0  0
 73 66  1  0  0  0  0
 95 74  2  0  0  0  0
106101  1  0  0  0  0
118114  1  0  0  0  0
 23  7  1  0  0  0  0
 86 79  1  0  0  0  0
 94 87  1  0  0  0  0
119103  1  0  0  0  0
  1120  1  0  0  0  0
  6121  1  0  0  0  0
  9122  1  0  0  0  0
 17123  1  0  0  0  0
 18124  1  0  0  0  0
 19125  1  0  0  0  0
 20126  1  0  0  0  0
 21127  1  0  0  0  0
 22128  1  0  0  0  0
 22129  1  0  0  0  0
 23130  1  0  0  0  0
 33131  1  0  0  0  0
 33132  1  0  0  0  0
 34133  1  0  0  0  0
 34134  1  0  0  0  0
 34135  1  0  0  0  0
 38136  1  0  0  0  0
 38137  1  0  0  0  0
 39138  1  0  0  0  0
 39139  1  0  0  0  0
 39140  1  0  0  0  0
 43141  1  0  0  0  0
 46142  1  0  0  0  0
 46143  1  0  0  0  0
 47144  1  0  0  0  0
 47145  1  0  0  0  0
 47146  1  0  0  0  0
 59147  1  0  0  0  0
 60148  1  0  0  0  0
 63149  1  0  0  0  0
 63150  1  0  0  0  0
 63151  1  0  0  0  0
 64152  1  0  0  0  0
 65153  1  0  0  0  0
 67154  1  0  0  0  0
 68155  1  0  0  0  0
 71156  1  0  0  0  0
 71157  1  0  0  0  0
 71158  1  0  0  0  0
 72159  1  0  0  0  0
 73160  1  0  0  0  0
 80161  1  0  0  0  0
 81162  1  0  0  0  0
 84163  1  0  0  0  0
 84164  1  0  0  0  0
 84165  1  0  0  0  0
 85166  1  0  0  0  0
 86167  1  0  0  0  0
 88168  1  0  0  0  0
 89169  1  0  0  0  0
 92170  1  0  0  0  0
 92171  1  0  0  0  0
 92172  1  0  0  0  0
 93173  1  0  0  0  0
 94174  1  0  0  0  0
 97175  1  0  0  0  0
102176  1  0  0  0  0
105177  1  0  0  0  0
113178  1  0  0  0  0
114179  1  0  0  0  0
115180  1  0  0  0  0
116181  1  0  0  0  0
117182  1  0  0  0  0
118183  1  0  0  0  0
118184  1  0  0  0  0
119185  1  0  0  0  0
M  END
