243

C          2.56740        7.33950        1.32850
C          2.62990        7.84740        2.60710
C          2.41630        7.11720        3.85630
O          1.94180        6.00010        3.99840
C          2.86460        8.00830        4.94010
C          2.90520        7.72300        6.30200
C          3.42030        8.74070        7.06960
C          3.85360        9.95560        6.52380
C          3.80250       10.25560        5.18220
C          3.28980        9.23150        4.38370
C          3.07430        9.17990        2.93830
C          3.24210       10.23510        2.07360
C          3.79330       11.48360        2.42100
N          4.25750       12.51930        2.60150
C          2.84220       10.25240        0.72530
N          2.50880       10.38000       -0.36850
C          4.27670       10.49930        7.86530
C          5.79040       10.50190        8.19410
C          6.40750        9.38730        7.38610
C          5.99680        8.23720        7.90330
C          5.09430        8.55340        9.07040
C          5.75600        9.84270        9.58230
C          3.79310        9.14530        8.47380
C          2.31840        6.04480        0.87690
C          2.41760        5.65140       -0.48270
N          2.91010        6.41950       -1.50830
C          3.96890        7.32530       -1.31950
C          5.00940        7.02900       -0.43620
C          5.98260        7.96620       -0.17780
C          5.95440        9.20720       -0.81390
S          7.18840       10.37880       -0.34770
C          6.44670       11.96420       -0.83090
C          4.97690        9.46520       -1.76450
C          3.98450        8.53530       -2.00690
C          2.40540        6.22740       -2.80590
C          1.03600        6.09100       -3.01270
C          0.53010        5.89660       -4.28290
C          1.39090        5.84160       -5.37050
S          0.87560        5.56860       -7.03580
C         -0.93670        5.53400       -6.94430
C          2.76200        5.99620       -5.16850
C          3.26570        6.18600       -3.90270
C          1.96260        4.33450       -0.65800
S          1.82030        3.28620       -2.03220
C          1.20680        1.99530       -1.00470
C          1.21430        2.34590        0.34750
N          0.94820        1.49990        1.41590
C          1.39460        0.17330        1.41500
C          2.54370       -0.20150        0.71640
C          2.87970       -1.53140        0.59670
C          2.08720       -2.51830        1.17870
S          2.53330       -4.19030        0.82410
C          1.35440       -5.17750        1.78480
C          0.99920       -2.14610        1.95540
C          0.65660       -0.81380        2.06770
C          0.37410        2.05180        2.56960
C         -0.61920        3.02250        2.45360
C         -1.11880        3.64780        3.57760
C         -0.64180        3.30070        4.83260
S         -1.19300        4.15350        6.28630
C         -0.93600        5.87170        5.73820
C          0.29640        2.28550        4.95970
C          0.80790        1.67060        3.83820
C          1.60450        3.69490        0.52190
S          1.77390        4.71570        1.90600
C          0.77900        0.77520       -1.59440
C          1.18670        0.18670       -2.78470
C          2.11910        0.80530       -3.74680
C          1.65400        1.77450       -4.63940
C          2.53740        2.34130       -5.54500
C          3.87150        1.96910       -5.58400
C          4.83340        2.62830       -6.53040
C          5.76540        3.57910       -5.77780
C          4.31190        0.99420       -4.70120
C          3.45590        0.40330       -3.78560
C          3.98200       -0.66600       -2.86800
C          4.13370       -2.00170       -3.59780
C          0.20700        2.17980       -4.67420
C         -0.57180        1.31350       -5.66250
C          0.66440       -1.10040       -2.96310
C         -0.17110       -1.51270       -1.94730
S         -0.39300       -0.23360       -0.78700
C         -0.72230       -2.78250       -1.64400
C         -0.70370       -3.97850       -2.35310
N         -0.17010       -4.18630       -3.61930
C          0.66140       -5.31330       -3.75890
C          1.62250       -5.57440       -2.78170
C          2.42180       -6.69030       -2.87820
C          2.28540       -7.56640       -3.95370
S          3.37260       -8.95510       -3.97660
C          2.73880       -9.98440       -5.33090
C          1.33640       -7.30270       -4.93290
C          0.52680       -6.18800       -4.83140
C         -0.55690       -3.42110       -4.71540
C          0.29090       -3.28600       -5.81940
C         -0.09060       -2.52720       -6.90160
C         -1.32330       -1.87670       -6.91370
S         -1.69530       -0.92800       -8.35630
C         -3.38590       -0.33520       -8.06590
C         -2.16330       -1.99520       -5.81540
C         -1.78270       -2.75940       -4.72940
C         -1.26650       -5.02710       -1.59110
S         -1.53460       -6.69930       -1.91010
C         -2.33020       -6.89340       -0.33750
C         -2.24400       -5.72000        0.44380
N         -2.47530       -5.63170        1.78660
C         -2.47570       -6.75300        2.63120
C         -1.52560       -7.76750        2.50090
C         -1.59610       -8.88650        3.29640
C         -2.61810       -9.02500        4.23850
S         -2.66960      -10.54350        5.12520
C         -4.31000      -10.52820        5.90210
C         -3.51870       -7.98410        4.42260
C         -3.44300       -6.85660        3.62740
C         -2.61060       -4.36720        2.39560
C         -1.83740       -4.06250        3.51590
C         -1.88030       -2.79800        4.05790
C         -2.69790       -1.81680        3.49660
S         -2.59170       -0.20630        4.21210
C         -3.40000        0.85230        2.98140
C         -3.53150       -2.14620        2.43560
C         -3.48780       -3.41540        1.88860
C         -1.70280       -4.66180       -0.32380
S         -1.44780       -2.96920       -0.05590
C         -2.91550       -8.13270       -0.07560
C         -3.93100       -8.37320        0.82690
C         -4.89430       -7.35800        1.27510
O         -4.92800       -6.17760        0.97200
C         -5.89990       -8.08550        2.07940
C         -7.01760       -7.55010        2.71130
C         -7.77000       -8.47300        3.39940
C         -7.43960       -9.83210        3.44730
C         -6.34150      -10.37520        2.82070
C         -5.56080       -9.45110        2.12310
C         -4.32130       -9.64400        1.37130
C         -3.57830      -10.79920        1.33240
C         -3.95130      -12.00530        1.95440
N         -4.20800      -13.01450        2.43990
C         -2.31540      -10.90210        0.71720
N         -1.27150      -11.04620        0.25940
C         -8.63640      -10.17700        4.29890
C         -9.84460      -10.85300        3.60560
C         -9.80260      -10.42540        2.15960
C        -10.11640       -9.13780        2.10920
C        -10.37710       -8.67170        3.52030
C        -10.97830       -9.95230        4.12140
C         -9.00720       -8.66110        4.24280
H          2.78540        8.04590        0.53830
H          2.56230        6.77310        6.68200
H          4.13790       11.19600        4.77710
H          3.78020       11.41150        8.19030
H          6.26800       11.47460        8.11270
H          7.01350        9.54520        6.51320
H          6.19080        7.24180        7.54850
H          4.93830        7.75170        9.78760
H          6.75040        9.67170        9.99200
H          5.14830       10.38500       10.30540
H          2.98010        9.17280        9.19690
H          5.02900        6.07410        0.06750
H          6.77320        7.75390        0.52530
H          7.02610       12.72800       -0.32190
H          5.41490       11.99740       -0.49410
H          6.51650       12.10390       -1.90590
H          4.95520       10.39990       -2.29950
H          3.20060        8.76140       -2.71250
H          0.36190        6.14520       -2.17070
H         -0.53630        5.79820       -4.40750
H         -1.30460        6.47180       -6.53830
H         -1.27620        5.41720       -7.96890
H         -1.26710        4.68670       -6.35030
H          3.42270        5.96060       -6.02090
H          4.32840        6.30130       -3.74970
H          3.16060        0.55290        0.25100
H          3.75870       -1.82620        0.04420
H          1.47390       -4.96960        2.84410
H          0.34110       -4.96890        1.45510
H          1.60720       -6.21350        1.58020
H          0.38640       -2.87790        2.45510
H         -0.21600       -0.53910        2.63890
H         -0.98990        3.29200        1.47500
H         -1.87340        4.41300        3.47400
H         -0.01080        5.91410        5.17100
H         -1.77610        6.20970        5.13820
H         -0.86070        6.47550        6.63700
H          0.64460        2.00810        5.94210
H          1.57190        0.91440        3.93700
H          2.17520        3.09020       -6.23410
H          4.27860        3.18690       -7.28620
H          5.43120        1.86790       -7.03870
H          6.37160        3.03140       -5.06010
H          6.42860        4.09140       -6.47110
H          5.18360        4.32000       -5.23500
H          5.34790        0.68560       -4.72300
H          3.30580       -0.79580       -2.02290
H          4.95820       -0.36090       -2.48260
H          4.81570       -1.90250       -4.43900
H          4.52150       -2.76080       -2.92220
H          3.17300       -2.34150       -3.97670
H         -0.24240        2.08430       -3.68450
H          0.14430        3.22700       -4.97270
H         -0.53440        0.27020       -5.35660
H         -1.61420        1.62580       -5.70120
H         -0.14600        1.39330       -6.65990
H          0.93130       -1.71490       -3.80110
H          1.74070       -4.89650       -1.94910
H          3.16510       -6.89370       -2.12300
H          1.69180      -10.21420       -5.15710
H          3.32670      -10.89650       -5.30310
H          2.88300       -9.48410       -6.28430
H          1.20840       -7.96120       -5.77650
H         -0.22080       -5.99720       -5.58710
H          1.25280       -3.77720       -5.81720
H          0.56690       -2.42140       -7.75060
H         -3.40720        0.32140       -7.20110
H         -4.05810       -1.17870       -7.93890
H         -3.65740        0.22120       -8.95760
H         -3.12160       -1.50210       -5.79000
H         -2.44970       -2.85200       -3.88540
H         -0.74260       -7.68460        1.76280
H         -0.87200       -9.67880        3.18580
H         -4.33720       -9.80940        6.71600
H         -4.45380      -11.53140        6.29090
H         -5.06560      -10.30970        5.15240
H         -4.29340       -8.04440        5.16950
H         -4.15210       -6.05380        3.76280
H         -1.19010       -4.81770        3.93880
H         -1.26400       -2.54340        4.90650
H         -4.47270        0.68200        2.98230
H         -3.18520        1.86970        3.29340
H         -2.96740        0.66500        2.00270
H         -4.21470       -1.42270        2.02200
H         -4.14020       -3.68820        1.07370
H         -2.55870       -8.95600       -0.68240
H         -7.23960       -6.49600        2.64810
H         -6.10610      -11.42640        2.85290
H         -8.42090      -10.61270        5.27320
H         -9.93020      -11.92080        3.78830
H         -9.50150      -11.06850        1.35350
H        -10.12930       -8.49010        1.25220
H        -10.94950       -7.75350        3.62450
H        -11.05320       -9.92820        5.20780
H        -11.94620      -10.20560        3.69160
H         -9.03830       -8.10910        5.18070
