
  xtb     02082212183D
 energy: -334.353620993404 gnorm: 0.000231288102 xtb: 6.4.1 (unknown)
196218  0     0  0            999 V2000
    1.6397   -3.4159    3.9473 C   0  0  0  0  0  0  0  0  0  0  0  0
    1.9893   -2.5887    4.9859 C   0  0  0  0  0  0  0  0  0  0  0  0
    3.1208   -1.6562    5.0057 C   0  0  0  0  0  0  0  0  0  0  0  0
    3.8634   -1.3711    4.0817 O   0  0  0  0  0  0  0  0  0  0  0  0
    3.2066   -1.1409    6.3825 C   0  0  0  0  0  0  0  0  0  0  0  0
    4.1311   -0.2257    6.8806 C   0  0  0  0  0  0  0  0  0  0  0  0
    3.9561    0.0776    8.2097 C   0  0  0  0  0  0  0  0  0  0  0  0
    2.9368   -0.4878    8.9869 C   0  0  0  0  0  0  0  0  0  0  0  0
    2.0164   -1.3899    8.5069 C   0  0  0  0  0  0  0  0  0  0  0  0
    2.1764   -1.7130    7.1565 C   0  0  0  0  0  0  0  0  0  0  0  0
    1.3802   -2.5870    6.2966 C   0  0  0  0  0  0  0  0  0  0  0  0
    0.2275   -3.2349    6.6685 C   0  0  0  0  0  0  0  0  0  0  0  0
   -0.6469   -3.9089    5.7949 C   0  0  0  0  0  0  0  0  0  0  0  0
   -1.4476   -4.4258    5.1511 N   0  0  0  0  0  0  0  0  0  0  0  0
   -0.2853   -3.2684    7.9808 C   0  0  0  0  0  0  0  0  0  0  0  0
   -0.7563   -3.3616    9.0244 N   0  0  0  0  0  0  0  0  0  0  0  0
    3.3529    0.2659   10.2256 C   0  0  0  0  0  0  0  0  0  0  0  0
    4.1366   -0.5312   11.2896 C   0  0  0  0  0  0  0  0  0  0  0  0
    4.8076    0.5387   12.1205 C   0  0  0  0  0  0  0  0  0  0  0  0
    5.7729    1.0748   11.3846 C   0  0  0  0  0  0  0  0  0  0  0  0
    5.7706    0.3764   10.0439 C   0  0  0  0  0  0  0  0  0  0  0  0
    5.3403   -1.0302   10.4798 C   0  0  0  0  0  0  0  0  0  0  0  0
    4.4894    0.8970    9.3586 C   0  0  0  0  0  0  0  0  0  0  0  0
    2.1359   -3.4890    2.6420 C   0  0  0  0  0  0  0  0  0  0  0  0
    1.6377   -4.4024    1.6841 C   0  0  0  0  0  0  0  0  0  0  0  0
    0.5633   -5.2596    1.8237 N   0  0  0  0  0  0  0  0  0  0  0  0
   -0.4178   -5.1328    0.8177 C   0  0  0  0  0  0  0  0  0  0  0  0
   -1.0334   -6.2348    0.2366 C   0  0  0  0  0  0  0  0  0  0  0  0
   -1.9473   -6.0694   -0.7890 C   0  0  0  0  0  0  0  0  0  0  0  0
   -2.2540   -4.7978   -1.2573 C   0  0  0  0  0  0  0  0  0  0  0  0
   -3.3736   -4.4468   -2.5725 S   0  0  0  0  0  0  0  0  0  0  0  0
   -4.1411   -6.0478   -2.9385 C   0  0  0  0  0  0  0  0  0  0  0  0
   -1.6454   -3.6905   -0.6675 C   0  0  0  0  0  0  0  0  0  0  0  0
   -0.7492   -3.8539    0.3608 C   0  0  0  0  0  0  0  0  0  0  0  0
    0.4102   -6.1241    2.9078 C   0  0  0  0  0  0  0  0  0  0  0  0
    1.5384   -6.6200    3.5673 C   0  0  0  0  0  0  0  0  0  0  0  0
    1.3960   -7.4320    4.6680 C   0  0  0  0  0  0  0  0  0  0  0  0
    0.1269   -7.7859    5.1260 C   0  0  0  0  0  0  0  0  0  0  0  0
    0.0543   -8.8025    6.5664 S   0  0  0  0  0  0  0  0  0  0  0  0
   -1.6631   -8.6132    7.1243 C   0  0  0  0  0  0  0  0  0  0  0  0
   -0.9940   -7.3380    4.4420 C   0  0  0  0  0  0  0  0  0  0  0  0
   -0.8545   -6.5040    3.3503 C   0  0  0  0  0  0  0  0  0  0  0  0
    2.2178   -4.1770    0.4263 C   0  0  0  0  0  0  0  0  0  0  0  0
    2.0350   -4.9261   -1.1267 S   0  0  0  0  0  0  0  0  0  0  0  0
    2.9705   -3.6452   -1.8632 C   0  0  0  0  0  0  0  0  0  0  0  0
    3.4490   -2.7249   -0.9382 C   0  0  0  0  0  0  0  0  0  0  0  0
    3.9547   -1.4590   -1.2529 N   0  0  0  0  0  0  0  0  0  0  0  0
    5.2477   -1.2651   -1.7364 C   0  0  0  0  0  0  0  0  0  0  0  0
    5.5354   -0.1936   -2.5789 C   0  0  0  0  0  0  0  0  0  0  0  0
    6.8186    0.0115   -3.0460 C   0  0  0  0  0  0  0  0  0  0  0  0
    7.8332   -0.8687   -2.6983 C   0  0  0  0  0  0  0  0  0  0  0  0
    9.5042   -0.7185   -3.2520 S   0  0  0  0  0  0  0  0  0  0  0  0
    9.5218    0.8461   -4.1767 C   0  0  0  0  0  0  0  0  0  0  0  0
    7.5431   -1.9570   -1.8796 C   0  0  0  0  0  0  0  0  0  0  0  0
    6.2683   -2.1516   -1.3978 C   0  0  0  0  0  0  0  0  0  0  0  0
    3.0808   -0.3785   -1.0581 C   0  0  0  0  0  0  0  0  0  0  0  0
    3.5543    0.8443   -0.5770 C   0  0  0  0  0  0  0  0  0  0  0  0
    2.7095    1.9252   -0.4689 C   0  0  0  0  0  0  0  0  0  0  0  0
    1.3662    1.8209   -0.8348 C   0  0  0  0  0  0  0  0  0  0  0  0
    0.4144    3.3070   -0.7631 S   0  0  0  0  0  0  0  0  0  0  0  0
   -1.2192    2.8191   -1.3740 C   0  0  0  0  0  0  0  0  0  0  0  0
    0.8751    0.5901   -1.2476 C   0  0  0  0  0  0  0  0  0  0  0  0
    1.7234   -0.4974   -1.3486 C   0  0  0  0  0  0  0  0  0  0  0  0
    3.0515   -3.0696    0.3759 C   0  0  0  0  0  0  0  0  0  0  0  0
    3.2948   -2.3586    1.9322 S   0  0  0  0  0  0  0  0  0  0  0  0
    2.7539   -3.3421   -3.2419 C   0  0  0  0  0  0  0  0  0  0  0  0
    3.4945   -2.6503   -4.1613 C   0  0  0  0  0  0  0  0  0  0  0  0
    4.9103   -2.4654   -4.5070 C   0  0  0  0  0  0  0  0  0  0  0  0
    5.8962   -3.0181   -4.0902 O   0  0  0  0  0  0  0  0  0  0  0  0
    4.8972   -1.5451   -5.5535 N   0  0  0  0  0  0  0  0  0  0  0  0
    6.0995   -1.0809   -6.1974 C   0  0  0  0  0  0  0  0  0  0  0  0
    3.6233   -1.1555   -5.9545 C   0  0  0  0  0  0  0  0  0  0  0  0
    3.3924   -0.3252   -6.7993 O   0  0  0  0  0  0  0  0  0  0  0  0
    2.7108   -1.9473   -5.1198 C   0  0  0  0  0  0  0  0  0  0  0  0
    1.3605   -2.1481   -4.9961 C   0  0  0  0  0  0  0  0  0  0  0  0
    1.0538   -3.3121   -3.7210 S   0  0  0  0  0  0  0  0  0  0  0  0
    0.2386   -1.3779   -5.4168 C   0  0  0  0  0  0  0  0  0  0  0  0
    0.2481   -0.0158   -5.5377 C   0  0  0  0  0  0  0  0  0  0  0  0
   -1.0302    0.5672   -5.3736 C   0  0  0  0  0  0  0  0  0  0  0  0
   -1.3249    1.9232   -5.1028 C   0  0  0  0  0  0  0  0  0  0  0  0
   -0.2950    2.9263   -4.9531 C   0  0  0  0  0  0  0  0  0  0  0  0
   -0.4127    4.2801   -5.1468 C   0  0  0  0  0  0  0  0  0  0  0  0
    0.6935    5.0627   -4.7797 C   0  0  0  0  0  0  0  0  0  0  0  0
    1.7422    4.3678   -4.2399 C   0  0  0  0  0  0  0  0  0  0  0  0
    3.2325    5.0854   -3.6907 S   0  0  0  0  0  0  0  0  0  0  0  0
    4.1776    3.5704   -3.2858 C   0  0  0  0  0  0  0  0  0  0  0  0
    5.5172    3.9211   -2.6735 C   0  0  0  0  0  0  0  0  0  0  0  0
    1.3906    2.5299   -4.1887 Se  0  0  0  0  0  2  0  0  0  0  0  0
   -2.6634    2.2129   -4.8177 C   0  0  0  0  0  0  0  0  0  0  0  0
   -3.6842    1.2251   -4.8104 C   0  0  0  0  0  0  0  0  0  0  0  0
   -3.3807   -0.1385   -5.0431 C   0  0  0  0  0  0  0  0  0  0  0  0
   -4.3441   -1.2085   -4.9294 C   0  0  0  0  0  0  0  0  0  0  0  0
   -4.3963   -2.3367   -5.7036 C   0  0  0  0  0  0  0  0  0  0  0  0
   -5.3783   -3.2802   -5.3549 C   0  0  0  0  0  0  0  0  0  0  0  0
   -6.1298   -2.9569   -4.2601 C   0  0  0  0  0  0  0  0  0  0  0  0
   -7.3502   -4.0012   -3.5734 S   0  0  0  0  0  0  0  0  0  0  0  0
   -8.3346   -2.8131   -2.5947 C   0  0  0  0  0  0  0  0  0  0  0  0
   -9.1520   -1.8867   -3.4707 C   0  0  0  0  0  0  0  0  0  0  0  0
   -5.6076   -1.3048   -3.5347 Se  0  0  0  0  0  2  0  0  0  0  0  0
   -2.0450   -0.4213   -5.2871 C   0  0  0  0  0  0  0  0  0  0  0  0
   -1.3770   -2.0325   -5.3088 S   0  0  0  0  0  0  0  0  0  0  0  0
   -4.9232    1.7700   -4.4437 C   0  0  0  0  0  0  0  0  0  0  0  0
   -4.8734    3.1027   -4.0833 C   0  0  0  0  0  0  0  0  0  0  0  0
   -3.2632    3.7576   -4.2759 S   0  0  0  0  0  0  0  0  0  0  0  0
   -6.0138    3.7661   -3.5811 C   0  0  0  0  0  0  0  0  0  0  0  0
   -6.1454    5.0061   -3.0284 C   0  0  0  0  0  0  0  0  0  0  0  0
   -5.0744    6.0078   -2.8741 C   0  0  0  0  0  0  0  0  0  0  0  0
   -3.9202    5.9206   -3.2480 O   0  0  0  0  0  0  0  0  0  0  0  0
   -5.6784    7.1489   -2.1694 C   0  0  0  0  0  0  0  0  0  0  0  0
   -5.0358    8.3201   -1.7746 C   0  0  0  0  0  0  0  0  0  0  0  0
   -5.8481    9.2055   -1.1087 C   0  0  0  0  0  0  0  0  0  0  0  0
   -7.2040    8.9485   -0.8616 C   0  0  0  0  0  0  0  0  0  0  0  0
   -7.8516    7.8013   -1.2534 C   0  0  0  0  0  0  0  0  0  0  0  0
   -7.0411    6.8802   -1.9244 C   0  0  0  0  0  0  0  0  0  0  0  0
   -7.3601    5.5543   -2.4481 C   0  0  0  0  0  0  0  0  0  0  0  0
   -8.5844    4.9425   -2.3677 C   0  0  0  0  0  0  0  0  0  0  0  0
   -8.8962    3.6417   -2.8170 C   0  0  0  0  0  0  0  0  0  0  0  0
   -9.2417    2.5925   -3.1344 N   0  0  0  0  0  0  0  0  0  0  0  0
   -9.7349    5.5280   -1.7969 C   0  0  0  0  0  0  0  0  0  0  0  0
  -10.7141    5.9326   -1.3545 N   0  0  0  0  0  0  0  0  0  0  0  0
   -7.3992   10.2518   -0.1291 C   0  0  0  0  0  0  0  0  0  0  0  0
   -7.4620   10.2022    1.4180 C   0  0  0  0  0  0  0  0  0  0  0  0
   -6.6771    8.9853    1.8413 C   0  0  0  0  0  0  0  0  0  0  0  0
   -5.3945    9.2290    1.6074 C   0  0  0  0  0  0  0  0  0  0  0  0
   -5.2890   10.6153    1.0213 C   0  0  0  0  0  0  0  0  0  0  0  0
   -6.4487   11.3080    1.7543 C   0  0  0  0  0  0  0  0  0  0  0  0
   -5.8894   10.5382   -0.4048 C   0  0  0  0  0  0  0  0  0  0  0  0
    0.8544   -4.1332    4.1531 H   0  0  0  0  0  0  0  0  0  0  0  0
    4.8958    0.1914    6.2441 H   0  0  0  0  0  0  0  0  0  0  0  0
    1.2347   -1.8112    9.1166 H   0  0  0  0  0  0  0  0  0  0  0  0
    2.5994    0.9231   10.6555 H   0  0  0  0  0  0  0  0  0  0  0  0
    3.5505   -1.2724   11.8259 H   0  0  0  0  0  0  0  0  0  0  0  0
    4.4854    0.8242   13.1046 H   0  0  0  0  0  0  0  0  0  0  0  0
    6.4180    1.8976   11.6314 H   0  0  0  0  0  0  0  0  0  0  0  0
    6.6741    0.4617    9.4462 H   0  0  0  0  0  0  0  0  0  0  0  0
    6.0871   -1.5128   11.1080 H   0  0  0  0  0  0  0  0  0  0  0  0
    5.0773   -1.6894    9.6547 H   0  0  0  0  0  0  0  0  0  0  0  0
    4.4936    1.9754    9.2108 H   0  0  0  0  0  0  0  0  0  0  0  0
   -0.7855   -7.2280    0.5798 H   0  0  0  0  0  0  0  0  0  0  0  0
   -2.4002   -6.9449   -1.2257 H   0  0  0  0  0  0  0  0  0  0  0  0
   -4.9287   -5.8374   -3.6556 H   0  0  0  0  0  0  0  0  0  0  0  0
   -3.4093   -6.7214   -3.3748 H   0  0  0  0  0  0  0  0  0  0  0  0
   -4.5734   -6.4616   -2.0326 H   0  0  0  0  0  0  0  0  0  0  0  0
   -1.8949   -2.7034   -1.0253 H   0  0  0  0  0  0  0  0  0  0  0  0
   -0.2974   -2.9873    0.8210 H   0  0  0  0  0  0  0  0  0  0  0  0
    2.5234   -6.3471    3.2180 H   0  0  0  0  0  0  0  0  0  0  0  0
    2.2652   -7.8033    5.1888 H   0  0  0  0  0  0  0  0  0  0  0  0
   -2.3361   -9.1570    6.4674 H   0  0  0  0  0  0  0  0  0  0  0  0
   -1.9159   -7.5579    7.1641 H   0  0  0  0  0  0  0  0  0  0  0  0
   -1.6977   -9.0423    8.1208 H   0  0  0  0  0  0  0  0  0  0  0  0
   -1.9865   -7.6078    4.7623 H   0  0  0  0  0  0  0  0  0  0  0  0
   -1.7333   -6.1271    2.8520 H   0  0  0  0  0  0  0  0  0  0  0  0
    4.7437    0.4779   -2.8818 H   0  0  0  0  0  0  0  0  0  0  0  0
    7.0057    0.8512   -3.6967 H   0  0  0  0  0  0  0  0  0  0  0  0
   10.5532    0.9901   -4.4828 H   0  0  0  0  0  0  0  0  0  0  0  0
    9.2123    1.6630   -3.5313 H   0  0  0  0  0  0  0  0  0  0  0  0
    8.8867    0.7723   -5.0549 H   0  0  0  0  0  0  0  0  0  0  0  0
    8.3316   -2.6486   -1.6276 H   0  0  0  0  0  0  0  0  0  0  0  0
    6.0512   -2.9970   -0.7632 H   0  0  0  0  0  0  0  0  0  0  0  0
    4.5918    0.9371   -0.2945 H   0  0  0  0  0  0  0  0  0  0  0  0
    3.0766    2.8695   -0.0949 H   0  0  0  0  0  0  0  0  0  0  0  0
   -1.7859    3.7408   -1.4679 H   0  0  0  0  0  0  0  0  0  0  0  0
   -1.1232    2.3517   -2.3503 H   0  0  0  0  0  0  0  0  0  0  0  0
   -1.7013    2.1528   -0.6638 H   0  0  0  0  0  0  0  0  0  0  0  0
   -0.1656    0.4593   -1.4999 H   0  0  0  0  0  0  0  0  0  0  0  0
    1.3166   -1.4432   -1.6731 H   0  0  0  0  0  0  0  0  0  0  0  0
    6.9456   -1.4494   -5.6198 H   0  0  0  0  0  0  0  0  0  0  0  0
    6.1561   -1.4624   -7.2185 H   0  0  0  0  0  0  0  0  0  0  0  0
    6.0999    0.0089   -6.2295 H   0  0  0  0  0  0  0  0  0  0  0  0
    1.1664    0.5221   -5.7008 H   0  0  0  0  0  0  0  0  0  0  0  0
   -1.2835    4.7226   -5.5988 H   0  0  0  0  0  0  0  0  0  0  0  0
    0.7186    6.1310   -4.9046 H   0  0  0  0  0  0  0  0  0  0  0  0
    4.2959    3.0075   -4.2168 H   0  0  0  0  0  0  0  0  0  0  0  0
    3.5673    2.9931   -2.5837 H   0  0  0  0  0  0  0  0  0  0  0  0
    5.3765    4.5201   -1.7770 H   0  0  0  0  0  0  0  0  0  0  0  0
    6.1236    4.4884   -3.3760 H   0  0  0  0  0  0  0  0  0  0  0  0
    6.0462    3.0095   -2.4028 H   0  0  0  0  0  0  0  0  0  0  0  0
   -3.7670   -2.4680   -6.5676 H   0  0  0  0  0  0  0  0  0  0  0  0
   -5.5395   -4.1862   -5.9131 H   0  0  0  0  0  0  0  0  0  0  0  0
   -7.6328   -2.2618   -1.9606 H   0  0  0  0  0  0  0  0  0  0  0  0
   -8.9721   -3.4340   -1.9662 H   0  0  0  0  0  0  0  0  0  0  0  0
   -8.5042   -1.2984   -4.1210 H   0  0  0  0  0  0  0  0  0  0  0  0
   -9.8397   -2.4570   -4.0909 H   0  0  0  0  0  0  0  0  0  0  0  0
   -9.7228   -1.1995   -2.8504 H   0  0  0  0  0  0  0  0  0  0  0  0
   -5.8465    1.2143   -4.4262 H   0  0  0  0  0  0  0  0  0  0  0  0
   -6.9005    3.1443   -3.6108 H   0  0  0  0  0  0  0  0  0  0  0  0
   -3.9895    8.4755   -1.9863 H   0  0  0  0  0  0  0  0  0  0  0  0
   -8.8949    7.6225   -1.0550 H   0  0  0  0  0  0  0  0  0  0  0  0
   -8.1344   10.9330   -0.5525 H   0  0  0  0  0  0  0  0  0  0  0  0
   -8.4624   10.2957    1.8318 H   0  0  0  0  0  0  0  0  0  0  0  0
   -7.1266    8.0792    2.2036 H   0  0  0  0  0  0  0  0  0  0  0  0
   -4.5579    8.5671    1.7347 H   0  0  0  0  0  0  0  0  0  0  0  0
   -4.3106   11.0855    1.0742 H   0  0  0  0  0  0  0  0  0  0  0  0
   -6.7099   12.2785    1.3349 H   0  0  0  0  0  0  0  0  0  0  0  0
   -6.2718   11.4051    2.8244 H   0  0  0  0  0  0  0  0  0  0  0  0
   -5.6366   11.4068   -1.0094 H   0  0  0  0  0  0  0  0  0  0  0  0
  1  2  2  0  0  0  0
  2  3  1  0  0  0  0
  3  4  2  0  0  0  0
  3  5  1  0  0  0  0
  5  6  2  0  0  0  0
  6  7  1  0  0  0  0
  7  8  2  0  0  0  0
  8  9  1  0  0  0  0
  9 10  2  0  0  0  0
 10 11  1  0  0  0  0
 11 12  2  0  0  0  0
 12 13  1  0  0  0  0
 13 14  3  0  0  0  0
 12 15  1  0  0  0  0
 15 16  3  0  0  0  0
  8 17  1  0  0  0  0
 17 18  1  0  0  0  0
 18 19  1  0  0  0  0
 19 20  2  0  0  0  0
 20 21  1  0  0  0  0
 21 22  1  0  0  0  0
 21 23  1  0  0  0  0
  1 24  1  0  0  0  0
 24 25  2  0  0  0  0
 25 26  1  0  0  0  0
 26 27  1  0  0  0  0
 27 28  2  0  0  0  0
 28 29  1  0  0  0  0
 29 30  2  0  0  0  0
 30 31  1  0  0  0  0
 31 32  1  0  0  0  0
 30 33  1  0  0  0  0
 33 34  2  0  0  0  0
 26 35  1  0  0  0  0
 35 36  2  0  0  0  0
 36 37  1  0  0  0  0
 37 38  2  0  0  0  0
 38 39  1  0  0  0  0
 39 40  1  0  0  0  0
 38 41  1  0  0  0  0
 41 42  2  0  0  0  0
 25 43  1  0  0  0  0
 43 44  1  0  0  0  0
 44 45  1  0  0  0  0
 45 46  2  0  0  0  0
 46 47  1  0  0  0  0
 47 48  1  0  0  0  0
 48 49  2  0  0  0  0
 49 50  1  0  0  0  0
 50 51  2  0  0  0  0
 51 52  1  0  0  0  0
 52 53  1  0  0  0  0
 51 54  1  0  0  0  0
 54 55  2  0  0  0  0
 47 56  1  0  0  0  0
 56 57  2  0  0  0  0
 57 58  1  0  0  0  0
 58 59  2  0  0  0  0
 59 60  1  0  0  0  0
 60 61  1  0  0  0  0
 59 62  1  0  0  0  0
 62 63  2  0  0  0  0
 46 64  1  0  0  0  0
 64 65  1  0  0  0  0
 45 66  1  0  0  0  0
 66 67  2  0  0  0  0
 67 68  1  0  0  0  0
 68 69  2  0  0  0  0
 68 70  1  0  0  0  0
 70 71  1  0  0  0  0
 70 72  1  0  0  0  0
 72 73  2  0  0  0  0
 72 74  1  0  0  0  0
 74 75  2  0  0  0  0
 75 76  1  0  0  0  0
 75 77  1  0  0  0  0
 77 78  2  0  0  0  0
 78 79  1  0  0  0  0
 79 80  2  0  0  0  0
 80 81  1  0  0  0  0
 81 82  2  0  0  0  0
 82 83  1  0  0  0  0
 83 84  2  0  0  0  0
 84 85  1  0  0  0  0
 85 86  1  0  0  0  0
 86 87  1  0  0  0  0
 84 88  1  0  0  0  0
 80 89  1  0  0  0  0
 89 90  2  0  0  0  0
 90 91  1  0  0  0  0
 91 92  1  0  0  0  0
 92 93  2  0  0  0  0
 93 94  1  0  0  0  0
 94 95  2  0  0  0  0
 95 96  1  0  0  0  0
 96 97  1  0  0  0  0
 97 98  1  0  0  0  0
 95 99  1  0  0  0  0
 91100  2  0  0  0  0
100101  1  0  0  0  0
 90102  1  0  0  0  0
102103  2  0  0  0  0
103104  1  0  0  0  0
103105  1  0  0  0  0
105106  2  0  0  0  0
106107  1  0  0  0  0
107108  2  0  0  0  0
107109  1  0  0  0  0
109110  2  0  0  0  0
110111  1  0  0  0  0
111112  2  0  0  0  0
112113  1  0  0  0  0
113114  2  0  0  0  0
114115  1  0  0  0  0
115116  2  0  0  0  0
116117  1  0  0  0  0
117118  3  0  0  0  0
116119  1  0  0  0  0
119120  3  0  0  0  0
112121  1  0  0  0  0
121122  1  0  0  0  0
122123  1  0  0  0  0
123124  2  0  0  0  0
124125  1  0  0  0  0
125126  1  0  0  0  0
125127  1  0  0  0  0
 11  2  1  0  0  0  0
 23 17  1  0  0  0  0
 65 24  1  0  0  0  0
 76 66  1  0  0  0  0
101 77  1  0  0  0  0
115106  1  0  0  0  0
127121  1  0  0  0  0
 10  5  1  0  0  0  0
 22 18  1  0  0  0  0
 34 27  1  0  0  0  0
 42 35  1  0  0  0  0
 64 43  2  0  0  0  0
 74 67  1  0  0  0  0
100 79  1  0  0  0  0
114109  1  0  0  0  0
126122  1  0  0  0  0
 23  7  1  0  0  0  0
 55 48  1  0  0  0  0
 63 56  1  0  0  0  0
 88 81  1  0  0  0  0
104 89  1  0  0  0  0
127111  1  0  0  0  0
 99 92  1  0  0  0  0
  1128  1  0  0  0  0
  6129  1  0  0  0  0
  9130  1  0  0  0  0
 17131  1  0  0  0  0
 18132  1  0  0  0  0
 19133  1  0  0  0  0
 20134  1  0  0  0  0
 21135  1  0  0  0  0
 22136  1  0  0  0  0
 22137  1  0  0  0  0
 23138  1  0  0  0  0
 28139  1  0  0  0  0
 29140  1  0  0  0  0
 32141  1  0  0  0  0
 32142  1  0  0  0  0
 32143  1  0  0  0  0
 33144  1  0  0  0  0
 34145  1  0  0  0  0
 36146  1  0  0  0  0
 37147  1  0  0  0  0
 40148  1  0  0  0  0
 40149  1  0  0  0  0
 40150  1  0  0  0  0
 41151  1  0  0  0  0
 42152  1  0  0  0  0
 49153  1  0  0  0  0
 50154  1  0  0  0  0
 53155  1  0  0  0  0
 53156  1  0  0  0  0
 53157  1  0  0  0  0
 54158  1  0  0  0  0
 55159  1  0  0  0  0
 57160  1  0  0  0  0
 58161  1  0  0  0  0
 61162  1  0  0  0  0
 61163  1  0  0  0  0
 61164  1  0  0  0  0
 62165  1  0  0  0  0
 63166  1  0  0  0  0
 71167  1  0  0  0  0
 71168  1  0  0  0  0
 71169  1  0  0  0  0
 78170  1  0  0  0  0
 82171  1  0  0  0  0
 83172  1  0  0  0  0
 86173  1  0  0  0  0
 86174  1  0  0  0  0
 87175  1  0  0  0  0
 87176  1  0  0  0  0
 87177  1  0  0  0  0
 93178  1  0  0  0  0
 94179  1  0  0  0  0
 97180  1  0  0  0  0
 97181  1  0  0  0  0
 98182  1  0  0  0  0
 98183  1  0  0  0  0
 98184  1  0  0  0  0
102185  1  0  0  0  0
105186  1  0  0  0  0
110187  1  0  0  0  0
113188  1  0  0  0  0
121189  1  0  0  0  0
122190  1  0  0  0  0
123191  1  0  0  0  0
124192  1  0  0  0  0
125193  1  0  0  0  0
126194  1  0  0  0  0
126195  1  0  0  0  0
127196  1  0  0  0  0
M  END
