258

C         -6.32390        6.85220       -2.20900
C         -7.18810        7.54550       -1.38960
C         -7.76010        7.06620       -0.13180
O         -7.61710        5.96730        0.38370
C         -8.62070        8.15030        0.37160
C         -9.32290        8.17610        1.57360
C        -10.05100        9.32540        1.76920
C        -10.08030       10.37040        0.83780
C         -9.38250       10.36110       -0.34770
C         -8.63040        9.20350       -0.56510
C         -7.73140        8.85280       -1.66610
C         -7.43250        9.66490       -2.73570
C         -6.45880        9.40100       -3.71770
N         -5.65510        9.28410       -4.53260
C         -8.04070       10.91110       -2.98490
N         -8.50170       11.92640       -3.26180
C        -11.00130       11.21010        1.68880
C        -10.35180       12.37720        2.46190
C        -11.35580       12.69640        3.54620
C        -11.32460       11.70650        4.42920
C        -10.29970       10.70110        3.95640
C         -9.28960       11.64640        3.29340
C        -10.96600       10.04450        2.72890
C         -5.62190        5.67490       -1.96780
C         -4.65270        5.15030       -2.86160
N         -4.50340        5.50280       -4.17310
C         -5.58260        5.86110       -4.99970
C         -5.38200        6.78300       -6.02680
C         -6.42680        7.13750       -6.84980
C         -7.69300        6.58550       -6.66510
S         -8.95380        7.12930       -7.77090
C        -10.45130        6.28630       -7.18340
C         -7.89030        5.65290       -5.65390
C         -6.84110        5.28930       -4.83400
C         -3.24370        5.30080       -4.77930
C         -3.12450        4.53080       -5.93470
C         -1.88040        4.27150       -6.46280
C         -0.73410        4.78170       -5.85370
S          0.80480        4.34120       -6.58750
C          2.03270        4.85990       -5.35080
C         -0.85470        5.59540       -4.73490
C         -2.10380        5.84960       -4.20340
C         -3.83850        4.21010       -2.20650
S         -2.46320        3.28540       -2.69210
C         -2.36970        2.55460       -1.09120
C         -3.41940        2.93270       -0.26610
N         -3.70850        2.42620        0.98520
C         -3.30050        1.16170        1.42070
C         -3.09340        0.09490        0.54810
C         -2.60550       -1.11160        1.01260
C         -2.34850       -1.28500        2.36520
S         -1.59800       -2.75400        3.01530
C         -0.53160       -3.26560        1.63240
C         -2.66500       -0.26270        3.25720
C         -3.12270        0.94940        2.79010
C         -4.70770        3.07650        1.75700
C         -5.89300        2.40850        2.04610
C         -6.91000        3.05490        2.71750
C         -6.75190        4.37710        3.11330
S         -8.04340        5.27460        3.91670
C         -9.51580        4.59530        3.09000
C         -5.54630        5.02630        2.88290
C         -4.53320        4.38260        2.20210
C         -4.22100        3.91960       -0.90250
S         -5.61830        4.82070       -0.42240
C         -1.26220        1.66240       -0.90660
C         -0.27890        1.60960        0.06630
N         -0.13220        2.48170        1.13170
C          0.61690        2.05800        2.24500
C          1.61590        2.86110        2.79510
C          2.41390        2.37400        3.80750
C          2.23110        1.08200        4.29620
S          3.36450        0.48660        5.51540
C          3.27280       -1.31050        5.26230
C          1.18900        0.30960        3.80560
C          0.39820        0.79470        2.78340
C         -0.55000        3.81390        1.04880
C         -0.54050        4.50950       -0.15890
C         -1.04970        5.79010       -0.23970
C         -1.54990        6.41430        0.89420
S         -2.30360        8.01470        0.87100
C         -2.91860        8.13500       -0.83410
C         -1.46200        5.76390        2.12320
C         -0.98070        4.47440        2.19940
C          0.63770        0.56100       -0.21800
S          1.98240       -0.12320        0.61850
C          2.20670       -1.33360       -0.64690
C          1.29650       -1.18290       -1.67980
N          1.18410       -1.95970       -2.81960
C          1.46270       -3.33130       -2.80030
C          2.08530       -3.93680       -3.89300
C          2.41760       -5.27080       -3.84810
C          2.15030       -6.03480       -2.71200
S          2.67480       -7.71670       -2.75900
C          2.15740       -8.37730       -1.15370
C          1.50680       -5.44330       -1.63310
C          1.15720       -4.10780       -1.68600
C          0.73490       -1.34360       -3.99800
C         -0.16040       -1.99490       -4.84080
C         -0.64260       -1.37150       -5.97500
C         -0.24130       -0.07860       -6.28320
S         -0.81990        0.83560       -7.67670
C         -1.84720       -0.35390       -8.58710
C          0.67200        0.57040       -5.45540
C          1.16020       -0.05580       -4.33110
C          0.40920       -0.10670       -1.40710
S         -0.97630        0.51820       -2.22100
C          3.15190       -2.35350       -0.31360
S          4.20060       -3.18160       -1.44350
C          4.84270       -4.13170       -0.15970
C          5.78890       -5.20000       -0.00620
C          5.82640       -5.52390        1.36940
C          4.83240       -4.68740        2.15380
C          3.63320       -5.48230        2.64630
C          2.73080       -4.87070        3.51020
C          1.57400       -5.51880        3.89570
C          1.28350       -6.79550        3.42730
C         -0.00120       -7.47170        3.81130
C         -1.17400       -6.90870        3.00570
C          2.19130       -7.40400        2.57230
C          3.35280       -6.75840        2.18130
C          5.52810       -3.95010        3.27840
C          5.71520       -4.56740        4.50890
C          6.38140       -3.91290        5.52800
C          6.87980       -2.62850        5.34740
C          7.57890       -1.90860        6.46490
C          6.58430       -1.12150        7.32120
C          6.68610       -2.01460        4.11700
C          6.02480       -2.66700        3.09270
C          4.30340       -3.79240        1.06410
C          3.34860       -2.78410        0.98220
C          6.70570       -6.47820        1.83120
C          7.49410       -7.16060        0.91970
C          7.41640       -6.89500       -0.45290
C          6.58030       -5.87350       -0.91480
C          8.22650       -7.61870       -1.40390
C          8.66700       -8.89330       -1.34470
C          9.77910       -9.33120       -2.24100
O         10.18920       -8.74580       -3.21580
C         10.29140      -10.57850       -1.64640
C         11.41920      -11.29750       -2.03750
C         11.66510      -12.41300       -1.27440
C         10.86070      -12.78170       -0.18640
C          9.74590      -12.08420        0.21110
C          9.46570      -10.95630       -0.56580
C          8.35810      -10.01090       -0.46860
C          7.16080      -10.25960        0.14460
C          6.02140       -9.43370        0.06020
N          5.02730       -8.86160        0.01050
C          6.87970      -11.43080        0.87970
N          6.59310      -12.35660        1.49480
C         11.69680      -13.99800        0.12170
C         11.13750      -15.37780       -0.30450
C         10.22120      -15.12410       -1.47610
C         10.97490      -14.77920       -2.51160
C         12.41430      -14.79360       -2.05900
C         12.36540      -15.94100       -1.03760
C         12.58680      -13.59270       -1.09550
H         -6.10060        7.31130       -3.16310
H         -9.25960        7.35780        2.27240
H         -9.41090       11.17670       -1.05070
H        -11.95500       11.47690        1.23700
H        -10.02110       13.20580        1.84170
H        -12.00350       13.55340        3.53070
H        -11.94110       11.57160        5.29870
H         -9.92010       10.00170        4.69650
H         -8.80710       12.30410        4.01450
H         -8.53160       11.13940        2.69940
H        -11.89720        9.53550        2.97180
H         -4.40930        7.22750       -6.16420
H         -6.27790        7.86030       -7.63600
H        -10.65670        6.56810       -6.15480
H        -10.34060        5.21060       -7.28550
H        -11.25240        6.63520       -7.82740
H         -8.85280        5.19330       -5.49760
H         -7.00160        4.55770       -4.05590
H         -4.01010        4.12000       -6.39560
H         -1.77340        3.64890       -7.33710
H          2.08570        5.94350       -5.30050
H          1.78260        4.43040       -4.38520
H          2.98230        4.46440       -5.69780
H          0.01220        6.03430       -4.26770
H         -2.20620        6.47690       -3.33060
H         -3.33350        0.19640       -0.49830
H         -2.43460       -1.91260        0.31000
H          0.21490       -3.93690        2.04850
H         -0.05110       -2.38520        1.21460
H         -1.11690       -3.78870        0.88100
H         -2.50570       -0.41570        4.31330
H         -3.32770        1.75230        3.48170
H         -6.02080        1.38490        1.72410
H         -7.82860        2.52590        2.91630
H         -9.32580        4.57790        2.02080
H         -9.74660        3.60400        3.46870
H        -10.33550        5.26900        3.32090
H         -5.41940        6.04590        3.21140
H         -3.61100        4.89670        1.98710
H          1.78310        3.85350        2.40340
H          3.20890        2.98090        4.21250
H          3.34260       -1.51330        4.19770
H          2.35510       -1.70910        5.68570
H          4.12990       -1.73770        5.77240
H          0.98520       -0.67380        4.19740
H         -0.39560        0.18670        2.38490
H         -0.12540        4.04950       -1.04260
H         -1.04000        6.29650       -1.19140
H         -3.40790        7.20370       -1.10440
H         -2.10780        8.37250       -1.51720
H         -3.64180        8.94470       -0.83710
H         -1.80270        6.27250        3.01250
H         -0.95840        3.96020        3.14840
H          2.32040       -3.34630       -4.76560
H          2.90980       -5.73820       -4.68700
H          1.07460       -8.34110       -1.06900
H          2.64430       -7.82470       -0.35770
H          2.49900       -9.40730       -1.13960
H          1.27690       -6.00420       -0.74130
H          0.65890       -3.65740       -0.84100
H         -0.48860       -2.99490       -4.59800
H         -1.34270       -1.90260       -6.59940
H         -2.16840        0.16500       -9.48490
H         -1.25550       -1.22380       -8.85660
H         -2.71320       -0.63230       -7.99340
H          0.99120        1.56850       -5.71270
H          1.87710        0.44850       -3.69960
H          2.94370       -3.88230        3.89080
H          0.88430       -5.02840        4.56860
H         -0.19450       -7.31780        4.87520
H          0.07980       -8.54520        3.63090
H         -1.30780       -5.84970        3.21430
H         -0.99400       -7.03170        1.93940
H         -2.09400       -7.42820        3.26310
H          1.99310       -8.40070        2.20330
H          4.04230       -7.25820        1.51640
H          5.32820       -5.56320        4.67260
H          6.52020       -4.40940        6.47820
H          8.10190       -2.63050        7.09590
H          8.31720       -1.21890        6.05110
H          7.10340       -0.60940        8.12770
H          5.84610       -1.79070        7.75910
H          6.06440       -0.37810        6.72060
H          7.06030       -1.01380        3.95630
H          5.89350       -2.17200        2.14150
H          2.78830       -2.39110        1.81120
H          6.77510       -6.70100        2.88520
H          8.20320       -7.89390        1.27560
H          6.52880       -5.64290       -1.96810
H          8.57330       -7.05250       -2.26320
H         12.01940      -10.97490       -2.87380
H          9.14100      -12.36970        1.05620
H         12.15970      -14.02230        1.10620
H         10.72430      -15.96800        0.50890
H          9.14940      -15.16410       -1.41690
H         10.65840      -14.47360       -3.49160
H         13.16380      -14.85300       -2.84380
H         12.17260      -16.90780       -1.49980
H         13.25440      -16.00320       -0.41140
H         13.63300      -13.35840       -0.90850
