273

C          7.13470        0.54150       -5.86540
C          7.94340       -0.49260       -6.27040
C          7.61350       -1.92090       -6.25290
O          6.50700       -2.42970       -6.17460
C          8.88860       -2.64030       -6.40480
C          9.08630       -4.01720       -6.34900
C         10.39270       -4.39990       -6.53770
C         11.42540       -3.48110       -6.76400
C         11.24420       -2.11820       -6.80720
C          9.92320       -1.70570       -6.61510
C          9.34700       -0.36090       -6.59010
C         10.03840        0.80750       -6.80400
C         11.43600        0.88750       -6.95990
N         12.57290        1.02810       -7.04820
C          9.45960        2.08650       -6.91600
N          9.06440        3.15710       -7.05520
C         12.47000       -4.56300       -6.88030
C         12.95970       -4.94380       -8.29930
C         11.83240       -4.61360       -9.24570
C         10.85460       -5.48310       -9.02940
C         11.30300       -6.41730       -7.93290
C         12.81120       -6.47190       -8.22410
C         11.31870       -5.58670       -6.62590
C          5.86640        0.51070       -5.27870
C          5.27970        1.61060       -4.61170
N          5.88930        2.81660       -4.35690
C          7.25820        2.91720       -4.05340
C          7.98120        4.04760       -4.43310
C          9.33110        4.12700       -4.16750
C          9.99160        3.07560       -3.53810
S         11.73110        3.24460       -3.29340
C         12.29040        1.52510       -3.12200
C          9.26630        1.96460       -3.12290
C          7.91130        1.89290       -3.36930
C          5.07870        3.96130       -4.26660
C          4.06280        4.16990       -5.20090
C          3.25700        5.28120       -5.11240
C          3.44820        6.21530       -4.09470
S          2.35100        7.59350       -4.08640
C          2.93000        8.61280       -2.70010
C          4.46530        6.01650       -3.16970
C          5.27040        4.89770       -3.25580
C          3.99340        1.28470       -4.14260
S          2.77340        2.14670       -3.26770
C          1.80680        0.67840       -3.14160
C          2.36740       -0.38340       -3.82440
N          1.77470       -1.62310       -3.99430
C          0.40490       -1.74480       -4.24590
C         -0.23670       -2.94770       -3.94460
C         -1.56910       -3.12350       -4.25140
C         -2.29070       -2.09970       -4.85530
S         -3.97230       -2.40440       -5.31080
C         -4.10400       -1.47530       -6.86780
C         -1.67250       -0.88470       -5.11460
C         -0.33420       -0.71490       -4.82580
C          2.62630       -2.70710       -4.30350
C          3.70650       -2.99410       -3.47310
C          4.60980       -3.97710       -3.81770
C          4.45270       -4.68080       -5.00440
S          5.68390       -5.87100       -5.44040
C          5.74240       -5.67490       -7.24860
C          3.34820       -4.43490       -5.80940
C          2.44170       -3.45450       -5.46260
C          3.62230       -0.03030       -4.38330
S          4.82940       -0.91430       -5.23970
C          0.62790        0.67830       -2.31760
C          0.43700       -0.05160       -1.16050
N          1.34210       -0.93130       -0.58010
C          0.79130       -1.99320        0.16100
C         -0.20130       -2.78560       -0.41410
C         -0.78740       -3.79600        0.31400
C         -0.42650       -4.01340        1.64270
S         -1.32050       -5.26680        2.50620
C         -0.42640       -5.44420        4.07290
C          0.57000       -3.23380        2.21390
C          1.18160       -2.24090        1.47340
C          2.69480       -0.60760       -0.46460
C          3.64810       -1.62230       -0.35020
C          4.98960       -1.31450       -0.28910
C          5.41640        0.01080       -0.34500
S          7.16280        0.29000       -0.31330
C          7.30730        2.07060        0.00630
C          4.47330        1.02460       -0.42030
C          3.12760        0.71600       -0.46120
C         -0.79520        0.28020       -0.54880
S         -1.52000       -0.15490        0.95300
C         -2.77570        1.07310        0.73070
C         -2.63960        1.73460       -0.47470
N         -3.52210        2.68470       -0.99490
C         -4.15870        2.33700       -2.19270
C         -4.48820        1.00140       -2.42030
C         -5.15550        0.61990       -3.56520
C         -5.50700        1.57440       -4.50870
S         -6.40950        1.17270       -5.97860
C         -7.32040       -0.32120       -5.48560
C         -5.13060        2.90130       -4.31700
C         -4.45720        3.28090       -3.17550
C         -3.66470        3.91830       -0.36910
C         -4.83570        4.67030       -0.48940
C         -4.94200        5.89210        0.13490
C         -3.89800        6.38590        0.91260
S         -4.11480        7.97680        1.64780
C         -2.99250        7.90940        3.07590
C         -2.73660        5.64060        1.04580
C         -2.62190        4.42130        0.40950
C         -1.51020        1.26970       -1.19580
S         -0.69890        1.79770       -2.62750
C         -3.64310        1.24930        1.84930
C         -3.97000        0.20590        2.70710
N         -3.87760       -1.13650        2.36390
C         -3.60700       -2.04470        3.39830
C         -2.55920       -1.77590        4.27890
C         -2.33010       -2.60270        5.35620
C         -3.13420       -3.72010        5.56980
S         -2.76700       -4.69650        6.99580
C         -3.91650       -6.09630        6.87800
C         -4.15730       -4.00890        4.67810
C         -4.39160       -3.17510        3.60340
C         -4.47620       -1.56470        1.16800
C         -5.53060       -0.85760        0.58940
C         -6.10660       -1.30280       -0.57900
C         -5.64390       -2.45890       -1.20380
S         -6.47450       -2.92750       -2.69010
C         -5.77440       -4.54870       -3.09190
C         -4.59060       -3.16200       -0.63480
C         -4.01850       -2.71950        0.54270
C         -4.50890        0.68100        3.91470
S         -4.90440       -0.08550        5.39770
C         -5.43970        1.44980        6.07730
C         -5.23540        2.51600        5.17720
N         -5.48890        3.83980        5.45520
C         -6.07510        4.67460        4.50010
C         -6.90220        4.15150        3.50930
C         -7.50110        4.97820        2.58030
C         -7.30720        6.35090        2.64190
S         -8.05020        7.50860        1.54000
C         -9.03550        6.47370        0.41820
C         -6.48850        6.88050        3.63840
C         -5.86870        6.05460        4.54770
C         -5.16880        4.32900        6.73820
C         -6.10480        5.02380        7.50020
C         -5.81320        5.37050        8.80380
C         -4.58380        5.03370        9.35770
S         -4.19280        5.37830       11.04560
C         -5.76960        4.96530       11.85300
C         -3.62090        4.40780        8.57360
C         -3.91100        4.05540        7.27360
C         -4.70670        2.05380        3.95220
S         -4.16870        2.80780        2.47960
C         -5.89680        1.52040        7.40200
C         -6.01700        0.52180        8.32850
C         -5.91480        0.87450        9.76530
O         -6.10560        1.96500       10.26710
C         -5.45510       -0.36210       10.42150
C         -5.04390       -0.55970       11.72950
C         -4.58260       -1.81380       12.10400
O         -4.15370       -2.14520       13.34350
C         -4.15020       -1.15160       14.34110
C         -4.52820       -2.86830       11.14880
O         -4.03290       -4.03430       11.61330
C         -3.91810       -5.12020       10.72090
C         -4.96440       -2.66180        9.84670
C         -5.43300       -1.40820        9.48760
C         -5.97320       -0.91710        8.22810
C         -6.59000       -1.68570        7.27060
C         -6.55690       -3.08800        7.25870
N         -6.54220       -4.23640        7.19870
C         -7.41090       -1.12940        6.26760
N         -8.14150       -0.70710        5.48860
H          7.56730        1.53130       -5.92730
H          8.26590       -4.69010       -6.15630
H         12.05220       -1.42540       -6.97380
H         13.28370       -4.52010       -6.15890
H         13.93720       -4.54750       -8.56070
H         11.83860       -3.77220       -9.91370
H          9.88030       -5.51270       -9.48170
H         10.77250       -7.36320       -7.86030
H         13.39160       -6.92530       -7.42170
H         13.04080       -6.96440       -9.16780
H         11.37920       -6.21230       -5.73750
H          7.48720        4.84760       -4.96150
H          9.89500        4.99150       -4.47900
H         13.37160        1.55890       -3.21020
H         11.87510        0.92770       -3.92820
H         12.01220        1.12580       -2.15080
H          9.74110        1.15240       -2.59590
H          7.35940        1.02450       -3.04180
H          3.92040        3.45820       -6.00020
H          2.47220        5.44570       -5.83420
H          2.28350        9.48490       -2.69140
H          2.82400        8.06780       -1.76670
H          3.95850        8.91850       -2.86760
H          4.63910        6.72030       -2.37200
H          6.05690        4.74930       -2.53010
H          0.32960       -3.75300       -3.49990
H         -2.05450       -4.06430       -4.03980
H         -4.96000       -1.88550       -7.39460
H         -4.26590       -0.41910       -6.67330
H         -3.19970       -1.63150       -7.44760
H         -2.22380       -0.07030       -5.55790
H          0.14500        0.21770       -5.08150
H          3.85140       -2.41230       -2.57620
H          5.45890       -4.18430       -3.18530
H          5.76510       -4.61250       -7.47260
H          4.89100       -6.16150       -7.71530
H          6.65900       -6.15390       -7.57950
H          3.19760       -4.99060       -6.72140
H          1.59810       -3.24790       -6.10510
H         -0.50720       -2.59960       -1.43310
H         -1.53320       -4.42990       -0.14010
H         -0.89240       -6.28010        4.58510
H         -0.53750       -4.54370        4.66930
H          0.61760       -5.66870        3.87520
H          0.86920       -3.37800        3.23930
H          1.95240       -1.63340        1.92460
H          3.32470       -2.65190       -0.30140
H          5.72510       -2.10040       -0.20990
H          8.36510        2.25630        0.16370
H          6.74710        2.32700        0.90060
H          6.96510        2.63710       -0.85540
H          4.76630        2.06190       -0.44540
H          2.40430        1.51700       -0.48330
H         -4.23720        0.25170       -1.68520
H         -5.40430       -0.41980       -3.70060
H         -6.65460       -1.17500       -5.40660
H         -7.82100       -0.13950       -4.54010
H         -8.05080       -0.49260       -6.27000
H         -5.37400        3.63270       -5.07240
H         -4.16300        4.31050       -3.03950
H         -5.66070        4.28340       -1.06810
H         -5.83580        6.48620        0.03040
H         -3.28130        8.73210        3.72230
H         -3.12970        6.96300        3.59010
H         -1.96210        8.04050        2.75810
H         -1.90690        6.00560        1.63000
H         -1.70680        3.85490        0.50370
H         -1.93450       -0.91080        4.11070
H         -1.53080       -2.38740        6.05030
H         -3.75330       -6.62370        5.94270
H         -3.67810       -6.74450        7.71600
H         -4.93860       -5.73500        6.96090
H         -4.79840       -4.86230        4.82180
H         -5.20700       -3.39060        2.92970
H         -5.91410        0.03240        1.06490
H         -6.93060       -0.76180       -1.01820
H         -4.72730       -4.44010       -3.35720
H         -6.33240       -4.90260       -3.95290
H         -5.91150       -5.22610       -2.25410
H         -4.20480       -4.05650       -1.09660
H         -3.21110       -3.27340        0.99440
H         -7.10110        3.09080        3.47850
H         -8.13290        4.53530        1.82800
H         -8.39110        5.78210       -0.11700
H         -9.80350        5.94610        0.97630
H         -9.49780        7.16280       -0.28180
H         -6.34300        7.94830        3.68210
H         -5.22930        6.47350        5.31070
H         -7.06990        5.25780        7.07560
H         -6.55490        5.88550        9.39310
H         -5.54210        4.83860       12.90670
H         -6.13620        4.03510       11.42950
H         -6.48650        5.77140       11.72820
H         -2.65660        4.18190        9.00150
H         -3.18010        3.53540        6.67190
H         -6.06390        2.51120        7.80450
H         -5.08960        0.26260       12.42470
H         -3.76820       -1.63840       15.23670
H         -5.15910       -0.77440       14.53580
H         -3.49480       -0.31670       14.07390
H         -3.24870       -4.88400        9.88770
H         -4.89480       -5.42210       10.33000
H         -3.49540       -5.93390       11.30760
H         -4.91520       -3.45210        9.11760
