174

C         -0.36010       -5.41300       -3.74050
C         -0.69320       -5.41640       -5.07650
C         -1.24080       -4.30170       -5.84920
O         -1.67630       -3.24040       -5.42850
C         -1.20000       -4.71420       -7.26200
C         -1.59460       -3.96460       -8.36680
C         -1.44400       -4.61830       -9.56640
C         -0.94110       -5.92220       -9.65870
C         -0.54520       -6.67100       -8.57480
C         -0.68650       -6.02410       -7.34500
C         -0.41120       -6.49970       -5.98870
C          0.04100       -7.75770       -5.66530
C          0.48930       -8.70540       -6.60540
N          0.92100       -9.50220       -7.31180
C          0.10010       -8.29100       -4.36380
N          0.12320       -8.81890       -3.34230
C         -1.08540       -5.95700      -11.15940
C         -2.28440       -6.74020      -11.74920
C         -3.36520       -6.73000      -10.69680
C         -3.83670       -5.49320      -10.61240
C         -3.08270       -4.64440      -11.60600
C         -2.83720       -5.67990      -12.71500
C         -1.64160       -4.50160      -11.05700
C         -0.40230       -4.38750       -2.79760
C          0.12060       -4.50380       -1.48400
N          0.89260       -5.52920       -1.00630
C          1.79070       -6.26720       -1.79880
C          2.46820       -5.68380       -2.86770
C          3.30030       -6.44140       -3.66600
C          3.49380       -7.79080       -3.39100
S          4.50630       -8.84880       -4.37330
C          4.56560       -7.99570       -5.97590
C          2.87650       -8.35690       -2.27910
C          2.02550       -7.60830       -1.49660
C          0.93740       -5.73480        0.38930
C          2.16170       -5.79670        1.05360
C          2.19620       -5.93490        2.42180
C          1.01270       -6.02090        3.15520
S          1.18640       -6.14320        4.90450
C         -0.51330       -5.98930        5.52310
C         -0.20650       -6.00630        2.49090
C         -0.24120       -5.86260        1.11700
C         -0.21680       -3.37320       -0.71580
S          0.08730       -2.90900        0.92740
C         -0.72460       -1.37710        0.65070
C         -1.11060       -1.19730       -0.67350
N         -1.52850        0.00240       -1.20220
C         -1.05770        1.21040       -0.65720
C          0.25770        1.32120       -0.20110
C          0.68600        2.47350        0.41600
C         -0.18110        3.55330        0.57250
S          0.47250        4.95360        1.42190
C         -0.68560        6.28630        0.99930
C         -1.47480        3.46700        0.07690
C         -1.90810        2.30400       -0.53320
C         -2.29610        0.00970       -2.37700
C         -3.32410       -0.91360       -2.54550
C         -3.99990       -0.99110       -3.74600
C         -3.65770       -0.14280       -4.78950
S         -4.41920       -0.26020       -6.38010
C         -4.64900       -2.05940       -6.52390
C         -2.68830        0.83530       -4.59590
C         -2.00930        0.91160       -3.39980
C         -0.87090       -2.37550       -1.42770
S         -1.16300       -2.81480       -3.06980
C         -0.89000       -0.46210        1.72830
C         -1.99460        0.33310        2.00440
C         -3.19570        0.23670        1.28640
N         -4.18470        0.12670        0.71430
C         -1.80080        1.18040        3.11510
C         -0.57230        1.03600        3.70100
S          0.36990       -0.17930        2.87590
C          0.02700        1.80530        4.76310
C          1.01010        1.26010        5.61250
C          1.40800       -0.10250        5.74960
C          2.41350       -0.29640        6.63040
C          3.08100       -1.56770        7.02960
C          2.45070       -2.80280        6.39630
S          2.94960        1.20660        7.34940
C          1.74400        2.09880        6.47520
C          1.55840        3.48120        6.53960
C          0.45620        3.99260        5.82140
C         -0.26900        3.15840        4.94460
S         -1.50490        4.06760        4.12180
C         -1.10810        5.51210        5.00900
C         -1.89770        6.76110        4.80310
C         -1.00520        7.99200        4.64960
C         -0.07000        5.31280        5.85410
C          2.45580        4.29640        7.30410
C          2.87410        5.55930        7.04280
C          3.50400        6.37540        8.11680
O          3.93750        5.97550        9.17320
C          3.41700        7.77130        7.64370
C          3.74660        8.92190        8.35670
C          3.52280       10.09100        7.67020
C          3.01210       10.11770        6.36510
C          2.69020        8.99220        5.64580
C          2.90720        7.79140        6.32750
C          2.70600        6.41490        5.88330
C          2.56680        6.00320        4.58340
C          2.67290        4.65820        4.17040
N          2.82760        3.59270        3.77320
C          2.36840        6.88100        3.50100
N          2.15050        7.56490        2.60390
C          3.02690       11.62410        6.30390
C          1.67750       12.36510        6.47280
C          0.79090       11.45820        7.28950
C          1.26930       11.43090        8.52620
C          2.48780       12.31970        8.56830
C          2.07700       13.39090        7.54530
C          3.59230       11.59510        7.75900
H          0.03790       -6.34350       -3.35820
H         -1.97700       -2.96230       -8.25150
H         -0.16040       -7.67330       -8.66470
H         -0.16910       -6.11530      -11.72460
H         -2.02830       -7.71150      -12.16400
H         -3.62740       -7.58370      -10.09960
H         -4.57220       -5.10760       -9.93060
H         -3.55250       -3.70680      -11.89130
H         -3.75580       -5.99600      -13.20700
H         -2.11380       -5.35340      -13.46090
H         -1.08520       -3.70790      -11.55190
H          2.32990       -4.63490       -3.08520
H          3.80300       -5.96750       -4.49420
H          4.97270       -8.71740       -6.67680
H          3.55910       -7.72010       -6.27660
H          5.21590       -7.12710       -5.92390
H          3.04260       -9.39900       -2.05840
H          1.51710       -8.06520       -0.66230
H          3.07910       -5.71500        0.49050
H          3.13970       -5.96210        2.94460
H         -1.10040       -6.85440        5.22920
H         -0.42870       -5.95540        6.60480
H         -0.95480       -5.06750        5.15640
H         -1.13640       -6.10260        3.02690
H         -1.19010       -5.84460        0.60140
H          0.94310        0.49660       -0.33130
H          1.69580        2.55500        0.78810
H         -0.83040        6.31270       -0.07610
H         -0.20130        7.19950        1.33140
H         -1.62820        6.14760        1.52130
H         -2.16390        4.28970        0.17790
H         -2.92110        2.23120       -0.89890
H         -3.59320       -1.56490       -1.72770
H         -4.78740       -1.71810       -3.86320
H         -4.75040       -2.27010       -7.58420
H         -5.54950       -2.37170       -6.00270
H         -3.76850       -2.54940       -6.11850
H         -2.45190        1.51180       -5.40280
H         -1.22990        1.64650       -3.26160
H         -2.56940        1.83790        3.47820
H          0.93300       -0.91020        5.22680
H          3.04970       -1.65420        8.12010
H          4.13700       -1.51030        6.74720
H          2.51340       -2.75670        5.31210
H          2.97040       -3.69740        6.72900
H          1.40530       -2.88890        6.68250
H         -2.56590        6.90480        5.65880
H         -2.52320        6.64560        3.91590
H         -0.30350        7.85420        3.83060
H         -0.43890        8.17610        5.55970
H         -1.61430        8.86810        4.44120
H          0.29280        6.07270        6.52290
H          2.84530        3.85230        8.21600
H          4.13970        8.85800        9.35930
H          2.29180        9.02670        4.64570
H          3.64700       12.06250        5.52470
H          1.25280       12.74610        5.54790
H         -0.03410       10.90280        6.88240
H          0.92480       10.84750        9.35990
H          2.79910       12.66020        9.55230
H          2.89830       14.03840        7.24160
H          1.23710       13.99600        7.88330
H          4.57910       12.01980        7.93170
