
  xtb     02092216533D
 energy: -360.018806660311 gnorm: 0.000228697813 xtb: 6.4.1 (unknown)
213235  0     0  0            999 V2000
    1.5548   -4.4087   -7.1049 C   0  0  0  0  0  0  0  0  0  0  0  0
    1.7890   -5.6304   -7.6866 C   0  0  0  0  0  0  0  0  0  0  0  0
    1.2693   -5.9189   -9.0406 C   0  0  0  0  0  0  0  0  0  0  0  0
    0.6800   -5.1536   -9.7781 O   0  0  0  0  0  0  0  0  0  0  0  0
    1.5182   -7.3561   -9.2662 C   0  0  0  0  0  0  0  0  0  0  0  0
    1.1870   -8.1027  -10.3946 C   0  0  0  0  0  0  0  0  0  0  0  0
    1.5545   -9.4248  -10.3212 C   0  0  0  0  0  0  0  0  0  0  0  0
    2.2090   -9.9677   -9.2083 C   0  0  0  0  0  0  0  0  0  0  0  0
    2.5509   -9.2407   -8.0922 C   0  0  0  0  0  0  0  0  0  0  0  0
    2.1777   -7.8960   -8.1442 C   0  0  0  0  0  0  0  0  0  0  0  0
    2.4131   -6.8198   -7.1834 C   0  0  0  0  0  0  0  0  0  0  0  0
    3.2773   -6.8741   -6.1097 C   0  0  0  0  0  0  0  0  0  0  0  0
    3.7980   -5.7255   -5.4933 C   0  0  0  0  0  0  0  0  0  0  0  0
    4.2994   -4.8164   -4.9981 N   0  0  0  0  0  0  0  0  0  0  0  0
    3.7902   -8.0585   -5.5557 C   0  0  0  0  0  0  0  0  0  0  0  0
    4.1914   -8.9897   -5.0137 N   0  0  0  0  0  0  0  0  0  0  0  0
    2.2929  -11.3413   -9.8273 C   0  0  0  0  0  0  0  0  0  0  0  0
    1.2854  -12.3975   -9.3268 C   0  0  0  0  0  0  0  0  0  0  0  0
    1.2924  -13.4455  -10.4166 C   0  0  0  0  0  0  0  0  0  0  0  0
    0.6782  -12.9316  -11.4746 C   0  0  0  0  0  0  0  0  0  0  0  0
    0.2449  -11.5283  -11.1174 C   0  0  0  0  0  0  0  0  0  0  0  0
   -0.0553  -11.7157   -9.6257 C   0  0  0  0  0  0  0  0  0  0  0  0
    1.5673  -10.7344  -11.0710 C   0  0  0  0  0  0  0  0  0  0  0  0
    1.5018   -4.0388   -5.7526 C   0  0  0  0  0  0  0  0  0  0  0  0
    1.2598   -4.7719   -4.5739 C   0  0  0  0  0  0  0  0  0  0  0  0
    0.8796   -6.0912   -4.5048 N   0  0  0  0  0  0  0  0  0  0  0  0
    1.0967   -6.8154   -3.3110 C   0  0  0  0  0  0  0  0  0  0  0  0
    0.0675   -7.5783   -2.7603 C   0  0  0  0  0  0  0  0  0  0  0  0
    0.2894   -8.3220   -1.6244 C   0  0  0  0  0  0  0  0  0  0  0  0
    1.5420   -8.3211   -1.0114 C   0  0  0  0  0  0  0  0  0  0  0  0
    1.7143   -9.3240    0.4261 S   0  0  0  0  0  0  0  0  0  0  0  0
    3.4971   -9.2890    0.7677 C   0  0  0  0  0  0  0  0  0  0  0  0
    2.5615   -7.5449   -1.5454 C   0  0  0  0  0  0  0  0  0  0  0  0
    2.3387   -6.7984   -2.6856 C   0  0  0  0  0  0  0  0  0  0  0  0
    0.0953   -6.6870   -5.5021 C   0  0  0  0  0  0  0  0  0  0  0  0
    0.2189   -8.0532   -5.7657 C   0  0  0  0  0  0  0  0  0  0  0  0
   -0.4850   -8.6290   -6.7998 C   0  0  0  0  0  0  0  0  0  0  0  0
   -1.3074   -7.8524   -7.6126 C   0  0  0  0  0  0  0  0  0  0  0  0
   -2.0544   -8.6221   -9.0087 S   0  0  0  0  0  0  0  0  0  0  0  0
   -2.4234   -7.2115  -10.0924 C   0  0  0  0  0  0  0  0  0  0  0  0
   -1.5028   -6.5127   -7.2971 C   0  0  0  0  0  0  0  0  0  0  0  0
   -0.8172   -5.9424   -6.2463 C   0  0  0  0  0  0  0  0  0  0  0  0
    1.3514   -3.9373   -3.4365 C   0  0  0  0  0  0  0  0  0  0  0  0
    1.1218   -4.1809   -1.7339 S   0  0  0  0  0  0  0  0  0  0  0  0
    1.4277   -2.4936   -1.4341 C   0  0  0  0  0  0  0  0  0  0  0  0
    1.6320   -1.7649   -2.5898 C   0  0  0  0  0  0  0  0  0  0  0  0
    1.7719   -0.3817   -2.6308 N   0  0  0  0  0  0  0  0  0  0  0  0
    2.6873    0.1770   -3.5273 C   0  0  0  0  0  0  0  0  0  0  0  0
    3.8424   -0.5220   -3.8731 C   0  0  0  0  0  0  0  0  0  0  0  0
    4.7436    0.0026   -4.7780 C   0  0  0  0  0  0  0  0  0  0  0  0
    4.5081    1.2433   -5.3528 C   0  0  0  0  0  0  0  0  0  0  0  0
    5.5931    2.0164   -6.5131 S   0  0  0  0  0  0  0  0  0  0  0  0
    6.7194    0.6781   -6.9998 C   0  0  0  0  0  0  0  0  0  0  0  0
    3.3604    1.9518   -5.0020 C   0  0  0  0  0  0  0  0  0  0  0  0
    2.4573    1.4262   -4.1060 C   0  0  0  0  0  0  0  0  0  0  0  0
    0.9520    0.4111   -1.8178 C   0  0  0  0  0  0  0  0  0  0  0  0
   -0.3766    0.0423   -1.5917 C   0  0  0  0  0  0  0  0  0  0  0  0
   -1.1771    0.7878   -0.7574 C   0  0  0  0  0  0  0  0  0  0  0  0
   -0.6778    1.9253   -0.1267 C   0  0  0  0  0  0  0  0  0  0  0  0
   -1.7865    2.7836    0.9470 S   0  0  0  0  0  0  0  0  0  0  0  0
   -1.0039    4.4032    1.1801 C   0  0  0  0  0  0  0  0  0  0  0  0
    0.6342    2.3094   -0.3605 C   0  0  0  0  0  0  0  0  0  0  0  0
    1.4373    1.5614   -1.2000 C   0  0  0  0  0  0  0  0  0  0  0  0
    1.6019   -2.6029   -3.7271 C   0  0  0  0  0  0  0  0  0  0  0  0
    1.7205   -2.3168   -5.4186 S   0  0  0  0  0  0  0  0  0  0  0  0
    1.3451   -1.9064   -0.1094 C   0  0  0  0  0  0  0  0  0  0  0  0
    2.3921   -1.1326    0.3965 C   0  0  0  0  0  0  0  0  0  0  0  0
    3.5565   -1.2706   -0.2786 O   0  0  0  0  0  0  0  0  0  0  0  0
    4.5343   -0.2394   -0.3959 C   0  0  0  0  0  0  0  0  0  0  0  0
    5.8664   -0.9060   -0.7019 C   0  0  0  0  0  0  0  0  0  0  0  0
    2.1905   -0.3414    1.5578 C   0  0  0  0  0  0  0  0  0  0  0  0
    3.2328    0.3958    2.0874 O   0  0  0  0  0  0  0  0  0  0  0  0
    3.7517   -0.1154    3.3141 C   0  0  0  0  0  0  0  0  0  0  0  0
    4.5716   -1.3834    3.1180 C   0  0  0  0  0  0  0  0  0  0  0  0
    0.9379   -0.2142    2.1601 C   0  0  0  0  0  0  0  0  0  0  0  0
   -0.0824   -1.1018    1.7370 C   0  0  0  0  0  0  0  0  0  0  0  0
    0.1421   -1.9696    0.6147 C   0  0  0  0  0  0  0  0  0  0  0  0
   -0.9366   -2.6894    0.3084 N   0  0  0  0  0  0  0  0  0  0  0  0
   -2.1125   -2.3196    1.3403 S   0  0  0  0  0  0  0  0  0  0  0  0
   -1.3175   -1.2286    2.2155 N   0  0  0  0  0  0  0  0  0  0  0  0
    0.6384    0.8687    3.0546 C   0  0  0  0  0  0  0  0  0  0  0  0
   -0.5493    1.0887    3.6890 C   0  0  0  0  0  0  0  0  0  0  0  0
   -0.6721    2.3791    4.2513 C   0  0  0  0  0  0  0  0  0  0  0  0
   -1.7945    2.9306    4.8893 C   0  0  0  0  0  0  0  0  0  0  0  0
   -3.0368    2.1667    5.0484 C   0  0  0  0  0  0  0  0  0  0  0  0
   -3.6885    2.1078    6.2797 C   0  0  0  0  0  0  0  0  0  0  0  0
   -4.8348    1.3591    6.4316 C   0  0  0  0  0  0  0  0  0  0  0  0
   -5.3863    0.6501    5.3648 C   0  0  0  0  0  0  0  0  0  0  0  0
   -6.8642   -0.2624    5.6780 S   0  0  0  0  0  0  0  0  0  0  0  0
   -6.7351   -1.7048    4.5449 C   0  0  0  0  0  0  0  0  0  0  0  0
   -7.5678   -2.8418    5.1033 C   0  0  0  0  0  0  0  0  0  0  0  0
   -4.7506    0.7559    4.1312 C   0  0  0  0  0  0  0  0  0  0  0  0
   -5.2557    0.1434    3.0344 F   0  0  0  0  0  0  0  0  0  0  0  0
   -3.5926    1.4870    3.9683 C   0  0  0  0  0  0  0  0  0  0  0  0
   -1.6806    4.2430    5.3267 C   0  0  0  0  0  0  0  0  0  0  0  0
   -0.4874    4.9995    5.1759 C   0  0  0  0  0  0  0  0  0  0  0  0
    0.6551    4.4306    4.5684 C   0  0  0  0  0  0  0  0  0  0  0  0
    1.9144    5.1756    4.4759 C   0  0  0  0  0  0  0  0  0  0  0  0
    2.6342    5.2641    3.2882 C   0  0  0  0  0  0  0  0  0  0  0  0
    3.8254    5.9601    3.2206 C   0  0  0  0  0  0  0  0  0  0  0  0
    4.3478    6.5910    4.3437 C   0  0  0  0  0  0  0  0  0  0  0  0
    5.8640    7.4832    4.4059 S   0  0  0  0  0  0  0  0  0  0  0  0
    6.2527    7.8238    2.6543 C   0  0  0  0  0  0  0  0  0  0  0  0
    5.2905    8.8197    2.0354 C   0  0  0  0  0  0  0  0  0  0  0  0
    3.6263    6.4781    5.5347 C   0  0  0  0  0  0  0  0  0  0  0  0
    2.4337    5.7970    5.6122 C   0  0  0  0  0  0  0  0  0  0  0  0
    4.1147    7.0514    6.6515 F   0  0  0  0  0  0  0  0  0  0  0  0
    0.5152    3.1424    4.0830 C   0  0  0  0  0  0  0  0  0  0  0  0
    1.7283    2.2362    3.2080 S   0  0  0  0  0  0  0  0  0  0  0  0
   -0.6695    6.3248    5.6032 C   0  0  0  0  0  0  0  0  0  0  0  0
   -1.9438    6.6008    6.0643 C   0  0  0  0  0  0  0  0  0  0  0  0
   -2.9732    5.1837    6.0172 S   0  0  0  0  0  0  0  0  0  0  0  0
   -2.3182    7.9056    6.4561 C   0  0  0  0  0  0  0  0  0  0  0  0
   -3.5249    8.3974    6.8608 C   0  0  0  0  0  0  0  0  0  0  0  0
   -4.7639    7.6195    7.0506 C   0  0  0  0  0  0  0  0  0  0  0  0
   -4.9098    6.4176    6.9394 O   0  0  0  0  0  0  0  0  0  0  0  0
   -5.8067    8.5897    7.4179 C   0  0  0  0  0  0  0  0  0  0  0  0
   -7.1517    8.3161    7.6552 C   0  0  0  0  0  0  0  0  0  0  0  0
   -7.9034    9.4273    7.9499 C   0  0  0  0  0  0  0  0  0  0  0  0
   -7.3550   10.7160    8.0122 C   0  0  0  0  0  0  0  0  0  0  0  0
   -6.0281   10.9972    7.7903 C   0  0  0  0  0  0  0  0  0  0  0  0
   -5.2446    9.8810    7.4802 C   0  0  0  0  0  0  0  0  0  0  0  0
   -3.8227    9.7899    7.1567 C   0  0  0  0  0  0  0  0  0  0  0  0
   -2.9493   10.8457    7.1292 C   0  0  0  0  0  0  0  0  0  0  0  0
   -1.5802   10.7835    6.7931 C   0  0  0  0  0  0  0  0  0  0  0  0
   -0.4644   10.8331    6.5237 N   0  0  0  0  0  0  0  0  0  0  0  0
   -3.2961   12.1795    7.4340 C   0  0  0  0  0  0  0  0  0  0  0  0
   -3.4959   13.2859    7.6667 N   0  0  0  0  0  0  0  0  0  0  0  0
   -8.6848   11.3523    8.3294 C   0  0  0  0  0  0  0  0  0  0  0  0
   -9.4175   12.0918    7.1822 C   0  0  0  0  0  0  0  0  0  0  0  0
   -8.9539   11.4551    5.8954 C   0  0  0  0  0  0  0  0  0  0  0  0
   -9.4726   10.2358    5.8369 C   0  0  0  0  0  0  0  0  0  0  0  0
  -10.2964   10.0260    7.0835 C   0  0  0  0  0  0  0  0  0  0  0  0
  -10.8110   11.4562    7.3117 C   0  0  0  0  0  0  0  0  0  0  0  0
   -9.2952    9.9169    8.2605 C   0  0  0  0  0  0  0  0  0  0  0  0
    1.3239   -3.6125   -7.8073 H   0  0  0  0  0  0  0  0  0  0  0  0
    0.7004   -7.6452  -11.2420 H   0  0  0  0  0  0  0  0  0  0  0  0
    3.0627   -9.6653   -7.2438 H   0  0  0  0  0  0  0  0  0  0  0  0
    3.2980  -11.7398   -9.9545 H   0  0  0  0  0  0  0  0  0  0  0  0
    1.4574  -12.7463   -8.3120 H   0  0  0  0  0  0  0  0  0  0  0  0
    1.7772  -14.4002  -10.3281 H   0  0  0  0  0  0  0  0  0  0  0  0
    0.5475  -13.3720  -12.4458 H   0  0  0  0  0  0  0  0  0  0  0  0
   -0.5340  -11.0835  -11.7304 H   0  0  0  0  0  0  0  0  0  0  0  0
   -0.9035  -12.3764   -9.4561 H   0  0  0  0  0  0  0  0  0  0  0  0
   -0.2127  -10.7808   -9.0937 H   0  0  0  0  0  0  0  0  0  0  0  0
    2.0927  -10.7264  -12.0246 H   0  0  0  0  0  0  0  0  0  0  0  0
   -0.9044   -7.5848   -3.2306 H   0  0  0  0  0  0  0  0  0  0  0  0
   -0.5046   -8.9145   -1.1968 H   0  0  0  0  0  0  0  0  0  0  0  0
    3.7999   -8.2944    1.0820 H   0  0  0  0  0  0  0  0  0  0  0  0
    3.6532   -9.9940    1.5784 H   0  0  0  0  0  0  0  0  0  0  0  0
    4.0440   -9.6107   -0.1134 H   0  0  0  0  0  0  0  0  0  0  0  0
    3.5382   -7.5141   -1.0920 H   0  0  0  0  0  0  0  0  0  0  0  0
    3.1412   -6.2037   -3.0928 H   0  0  0  0  0  0  0  0  0  0  0  0
    0.8888   -8.6558   -5.1704 H   0  0  0  0  0  0  0  0  0  0  0  0
   -0.3733   -9.6815   -7.0080 H   0  0  0  0  0  0  0  0  0  0  0  0
   -2.6017   -7.6352  -11.0759 H   0  0  0  0  0  0  0  0  0  0  0  0
   -3.3164   -6.6955   -9.7512 H   0  0  0  0  0  0  0  0  0  0  0  0
   -1.5683   -6.5425  -10.1212 H   0  0  0  0  0  0  0  0  0  0  0  0
   -2.1867   -5.9035   -7.8648 H   0  0  0  0  0  0  0  0  0  0  0  0
   -0.9858   -4.9034   -6.0081 H   0  0  0  0  0  0  0  0  0  0  0  0
    4.0391   -1.4850   -3.4273 H   0  0  0  0  0  0  0  0  0  0  0  0
    5.6252   -0.5682   -5.0197 H   0  0  0  0  0  0  0  0  0  0  0  0
    7.2986    1.0695   -7.8304 H   0  0  0  0  0  0  0  0  0  0  0  0
    6.1433   -0.1840   -7.3222 H   0  0  0  0  0  0  0  0  0  0  0  0
    7.3827    0.4251   -6.1775 H   0  0  0  0  0  0  0  0  0  0  0  0
    3.1799    2.9148   -5.4546 H   0  0  0  0  0  0  0  0  0  0  0  0
    1.5595    1.9733   -3.8609 H   0  0  0  0  0  0  0  0  0  0  0  0
   -0.7770   -0.8347   -2.0779 H   0  0  0  0  0  0  0  0  0  0  0  0
   -2.2049    0.5031   -0.5887 H   0  0  0  0  0  0  0  0  0  0  0  0
   -1.7340    5.0080    1.7091 H   0  0  0  0  0  0  0  0  0  0  0  0
   -0.1084    4.3078    1.7863 H   0  0  0  0  0  0  0  0  0  0  0  0
   -0.7840    4.8436    0.2122 H   0  0  0  0  0  0  0  0  0  0  0  0
    1.0511    3.1822    0.1155 H   0  0  0  0  0  0  0  0  0  0  0  0
    2.4563    1.8747   -1.3696 H   0  0  0  0  0  0  0  0  0  0  0  0
    4.5968    0.3630    0.5101 H   0  0  0  0  0  0  0  0  0  0  0  0
    4.2478    0.4106   -1.2331 H   0  0  0  0  0  0  0  0  0  0  0  0
    5.7812   -1.5136   -1.5982 H   0  0  0  0  0  0  0  0  0  0  0  0
    6.6263   -0.1460   -0.8594 H   0  0  0  0  0  0  0  0  0  0  0  0
    6.1695   -1.5492    0.1204 H   0  0  0  0  0  0  0  0  0  0  0  0
    2.9320   -0.3054    4.0181 H   0  0  0  0  0  0  0  0  0  0  0  0
    4.3728    0.6933    3.7058 H   0  0  0  0  0  0  0  0  0  0  0  0
    3.9618   -2.1655    2.6690 H   0  0  0  0  0  0  0  0  0  0  0  0
    4.9333   -1.7312    4.0816 H   0  0  0  0  0  0  0  0  0  0  0  0
    5.4240   -1.1901    2.4721 H   0  0  0  0  0  0  0  0  0  0  0  0
   -1.3214    0.3449    3.7209 H   0  0  0  0  0  0  0  0  0  0  0  0
   -3.2776    2.6287    7.1302 H   0  0  0  0  0  0  0  0  0  0  0  0
   -5.3273    1.3038    7.3898 H   0  0  0  0  0  0  0  0  0  0  0  0
   -5.6822   -1.9773    4.4898 H   0  0  0  0  0  0  0  0  0  0  0  0
   -7.0903   -1.4034    3.5606 H   0  0  0  0  0  0  0  0  0  0  0  0
   -7.5005   -3.7048    4.4440 H   0  0  0  0  0  0  0  0  0  0  0  0
   -7.2129   -3.1264    6.0912 H   0  0  0  0  0  0  0  0  0  0  0  0
   -8.6111   -2.5457    5.1847 H   0  0  0  0  0  0  0  0  0  0  0  0
   -3.1572    1.5515    2.9837 H   0  0  0  0  0  0  0  0  0  0  0  0
    2.2555    4.7953    2.3933 H   0  0  0  0  0  0  0  0  0  0  0  0
    4.3501    5.9990    2.2799 H   0  0  0  0  0  0  0  0  0  0  0  0
    6.2852    6.8802    2.1111 H   0  0  0  0  0  0  0  0  0  0  0  0
    7.2616    8.2342    2.6952 H   0  0  0  0  0  0  0  0  0  0  0  0
    4.2731    8.4341    2.0363 H   0  0  0  0  0  0  0  0  0  0  0  0
    5.3034    9.7512    2.5961 H   0  0  0  0  0  0  0  0  0  0  0  0
    5.5830    9.0276    1.0078 H   0  0  0  0  0  0  0  0  0  0  0  0
    1.9274    5.7303    6.5624 H   0  0  0  0  0  0  0  0  0  0  0  0
    0.0932    7.0815    5.5427 H   0  0  0  0  0  0  0  0  0  0  0  0
   -1.5001    8.6121    6.3806 H   0  0  0  0  0  0  0  0  0  0  0  0
   -7.5297    7.3075    7.5948 H   0  0  0  0  0  0  0  0  0  0  0  0
   -5.6258   11.9947    7.8436 H   0  0  0  0  0  0  0  0  0  0  0  0
   -8.7452   11.8887    9.2741 H   0  0  0  0  0  0  0  0  0  0  0  0
   -9.3540   13.1755    7.2314 H   0  0  0  0  0  0  0  0  0  0  0  0
   -8.2717   11.9212    5.2087 H   0  0  0  0  0  0  0  0  0  0  0  0
   -9.3100    9.4790    5.0920 H   0  0  0  0  0  0  0  0  0  0  0  0
  -11.0338    9.2286    7.0428 H   0  0  0  0  0  0  0  0  0  0  0  0
  -11.2659   11.6030    8.2902 H   0  0  0  0  0  0  0  0  0  0  0  0
  -11.4976   11.7855    6.5334 H   0  0  0  0  0  0  0  0  0  0  0  0
   -9.7547    9.5139    9.1608 H   0  0  0  0  0  0  0  0  0  0  0  0
  1  2  2  0  0  0  0
  2  3  1  0  0  0  0
  3  4  2  0  0  0  0
  3  5  1  0  0  0  0
  5  6  2  0  0  0  0
  6  7  1  0  0  0  0
  7  8  2  0  0  0  0
  8  9  1  0  0  0  0
  9 10  2  0  0  0  0
 10 11  1  0  0  0  0
 11 12  2  0  0  0  0
 12 13  1  0  0  0  0
 13 14  3  0  0  0  0
 12 15  1  0  0  0  0
 15 16  3  0  0  0  0
  8 17  1  0  0  0  0
 17 18  1  0  0  0  0
 18 19  1  0  0  0  0
 19 20  2  0  0  0  0
 20 21  1  0  0  0  0
 21 22  1  0  0  0  0
 21 23  1  0  0  0  0
  1 24  1  0  0  0  0
 24 25  2  0  0  0  0
 25 26  1  0  0  0  0
 26 27  1  0  0  0  0
 27 28  2  0  0  0  0
 28 29  1  0  0  0  0
 29 30  2  0  0  0  0
 30 31  1  0  0  0  0
 31 32  1  0  0  0  0
 30 33  1  0  0  0  0
 33 34  2  0  0  0  0
 26 35  1  0  0  0  0
 35 36  2  0  0  0  0
 36 37  1  0  0  0  0
 37 38  2  0  0  0  0
 38 39  1  0  0  0  0
 39 40  1  0  0  0  0
 38 41  1  0  0  0  0
 41 42  2  0  0  0  0
 25 43  1  0  0  0  0
 43 44  1  0  0  0  0
 44 45  1  0  0  0  0
 45 46  2  0  0  0  0
 46 47  1  0  0  0  0
 47 48  1  0  0  0  0
 48 49  2  0  0  0  0
 49 50  1  0  0  0  0
 50 51  2  0  0  0  0
 51 52  1  0  0  0  0
 52 53  1  0  0  0  0
 51 54  1  0  0  0  0
 54 55  2  0  0  0  0
 47 56  1  0  0  0  0
 56 57  2  0  0  0  0
 57 58  1  0  0  0  0
 58 59  2  0  0  0  0
 59 60  1  0  0  0  0
 60 61  1  0  0  0  0
 59 62  1  0  0  0  0
 62 63  2  0  0  0  0
 46 64  1  0  0  0  0
 64 65  1  0  0  0  0
 45 66  1  0  0  0  0
 66 67  2  0  0  0  0
 67 68  1  0  0  0  0
 68 69  1  0  0  0  0
 69 70  1  0  0  0  0
 67 71  1  0  0  0  0
 71 72  1  0  0  0  0
 72 73  1  0  0  0  0
 73 74  1  0  0  0  0
 71 75  2  0  0  0  0
 75 76  1  0  0  0  0
 76 77  1  0  0  0  0
 77 78  2  0  0  0  0
 78 79  1  0  0  0  0
 79 80  1  0  0  0  0
 75 81  1  0  0  0  0
 81 82  2  0  0  0  0
 82 83  1  0  0  0  0
 83 84  2  0  0  0  0
 84 85  1  0  0  0  0
 85 86  2  0  0  0  0
 86 87  1  0  0  0  0
 87 88  2  0  0  0  0
 88 89  1  0  0  0  0
 89 90  1  0  0  0  0
 90 91  1  0  0  0  0
 88 92  1  0  0  0  0
 92 93  1  0  0  0  0
 92 94  2  0  0  0  0
 84 95  1  0  0  0  0
 95 96  2  0  0  0  0
 96 97  1  0  0  0  0
 97 98  1  0  0  0  0
 98 99  2  0  0  0  0
 99100  1  0  0  0  0
100101  2  0  0  0  0
101102  1  0  0  0  0
102103  1  0  0  0  0
103104  1  0  0  0  0
101105  1  0  0  0  0
105106  2  0  0  0  0
105107  1  0  0  0  0
 97108  2  0  0  0  0
108109  1  0  0  0  0
 96110  1  0  0  0  0
110111  2  0  0  0  0
111112  1  0  0  0  0
111113  1  0  0  0  0
113114  2  0  0  0  0
114115  1  0  0  0  0
115116  2  0  0  0  0
115117  1  0  0  0  0
117118  2  0  0  0  0
118119  1  0  0  0  0
119120  2  0  0  0  0
120121  1  0  0  0  0
121122  2  0  0  0  0
122123  1  0  0  0  0
123124  2  0  0  0  0
124125  1  0  0  0  0
125126  3  0  0  0  0
124127  1  0  0  0  0
127128  3  0  0  0  0
120129  1  0  0  0  0
129130  1  0  0  0  0
130131  1  0  0  0  0
131132  2  0  0  0  0
132133  1  0  0  0  0
133134  1  0  0  0  0
133135  1  0  0  0  0
 11  2  1  0  0  0  0
 23 17  1  0  0  0  0
 65 24  1  0  0  0  0
 77 66  1  0  0  0  0
109 81  1  0  0  0  0
123114  1  0  0  0  0
135129  1  0  0  0  0
 10  5  1  0  0  0  0
 22 18  1  0  0  0  0
 34 27  1  0  0  0  0
 42 35  1  0  0  0  0
 64 43  2  0  0  0  0
 80 76  2  0  0  0  0
108 83  1  0  0  0  0
122117  1  0  0  0  0
134130  1  0  0  0  0
 23  7  1  0  0  0  0
 55 48  1  0  0  0  0
 63 56  1  0  0  0  0
 94 85  1  0  0  0  0
112 95  1  0  0  0  0
135119  1  0  0  0  0
106 98  1  0  0  0  0
  1136  1  0  0  0  0
  6137  1  0  0  0  0
  9138  1  0  0  0  0
 17139  1  0  0  0  0
 18140  1  0  0  0  0
 19141  1  0  0  0  0
 20142  1  0  0  0  0
 21143  1  0  0  0  0
 22144  1  0  0  0  0
 22145  1  0  0  0  0
 23146  1  0  0  0  0
 28147  1  0  0  0  0
 29148  1  0  0  0  0
 32149  1  0  0  0  0
 32150  1  0  0  0  0
 32151  1  0  0  0  0
 33152  1  0  0  0  0
 34153  1  0  0  0  0
 36154  1  0  0  0  0
 37155  1  0  0  0  0
 40156  1  0  0  0  0
 40157  1  0  0  0  0
 40158  1  0  0  0  0
 41159  1  0  0  0  0
 42160  1  0  0  0  0
 49161  1  0  0  0  0
 50162  1  0  0  0  0
 53163  1  0  0  0  0
 53164  1  0  0  0  0
 53165  1  0  0  0  0
 54166  1  0  0  0  0
 55167  1  0  0  0  0
 57168  1  0  0  0  0
 58169  1  0  0  0  0
 61170  1  0  0  0  0
 61171  1  0  0  0  0
 61172  1  0  0  0  0
 62173  1  0  0  0  0
 63174  1  0  0  0  0
 69175  1  0  0  0  0
 69176  1  0  0  0  0
 70177  1  0  0  0  0
 70178  1  0  0  0  0
 70179  1  0  0  0  0
 73180  1  0  0  0  0
 73181  1  0  0  0  0
 74182  1  0  0  0  0
 74183  1  0  0  0  0
 74184  1  0  0  0  0
 82185  1  0  0  0  0
 86186  1  0  0  0  0
 87187  1  0  0  0  0
 90188  1  0  0  0  0
 90189  1  0  0  0  0
 91190  1  0  0  0  0
 91191  1  0  0  0  0
 91192  1  0  0  0  0
 94193  1  0  0  0  0
 99194  1  0  0  0  0
100195  1  0  0  0  0
103196  1  0  0  0  0
103197  1  0  0  0  0
104198  1  0  0  0  0
104199  1  0  0  0  0
104200  1  0  0  0  0
106201  1  0  0  0  0
110202  1  0  0  0  0
113203  1  0  0  0  0
118204  1  0  0  0  0
121205  1  0  0  0  0
129206  1  0  0  0  0
130207  1  0  0  0  0
131208  1  0  0  0  0
132209  1  0  0  0  0
133210  1  0  0  0  0
134211  1  0  0  0  0
134212  1  0  0  0  0
135213  1  0  0  0  0
M  END
