
  xtb     02082217383D
 energy: -356.712501791898 gnorm: 0.000875889292 xtb: 6.4.1 (unknown)
216238  0     0  0            999 V2000
   -0.7819   -6.0848   -3.7706 C   0  0  0  0  0  0  0  0  0  0  0  0
    0.4271   -5.5168   -3.5650 C   0  0  0  0  0  0  0  0  0  0  0  0
    0.6777   -4.5839   -2.4255 C   0  0  0  0  0  0  0  0  0  0  0  0
   -0.0724   -4.3457   -1.5030 O   0  0  0  0  0  0  0  0  0  0  0  0
    2.0563   -4.1146   -2.5909 C   0  0  0  0  0  0  0  0  0  0  0  0
    2.7096   -3.1675   -1.8065 C   0  0  0  0  0  0  0  0  0  0  0  0
    3.9772   -2.8600   -2.2327 C   0  0  0  0  0  0  0  0  0  0  0  0
    4.5538   -3.4514   -3.3670 C   0  0  0  0  0  0  0  0  0  0  0  0
    3.9309   -4.4046   -4.1364 C   0  0  0  0  0  0  0  0  0  0  0  0
    2.6410   -4.7417   -3.7110 C   0  0  0  0  0  0  0  0  0  0  0  0
    1.6846   -5.6842   -4.2795 C   0  0  0  0  0  0  0  0  0  0  0  0
    1.9111   -6.5417   -5.3204 C   0  0  0  0  0  0  0  0  0  0  0  0
    3.1432   -6.6706   -5.9963 C   0  0  0  0  0  0  0  0  0  0  0  0
    4.1159   -6.8258   -6.5852 N   0  0  0  0  0  0  0  0  0  0  0  0
    0.9478   -7.4331   -5.8390 C   0  0  0  0  0  0  0  0  0  0  0  0
    0.2074   -8.1749   -6.3070 N   0  0  0  0  0  0  0  0  0  0  0  0
    5.8226   -2.6457   -3.2359 C   0  0  0  0  0  0  0  0  0  0  0  0
    7.0787   -3.3537   -2.6716 C   0  0  0  0  0  0  0  0  0  0  0  0
    6.5763   -4.4779   -1.8005 C   0  0  0  0  0  0  0  0  0  0  0  0
    6.0282   -3.9374   -0.7205 C   0  0  0  0  0  0  0  0  0  0  0  0
    6.1525   -2.4387   -0.8393 C   0  0  0  0  0  0  0  0  0  0  0  0
    7.4870   -2.3360   -1.5944 C   0  0  0  0  0  0  0  0  0  0  0  0
    5.1843   -2.0002   -1.9656 C   0  0  0  0  0  0  0  0  0  0  0  0
   -1.9375   -5.4754   -3.1521 C   0  0  0  0  0  0  0  0  0  0  0  0
   -2.3729   -4.1974   -3.4388 C   0  0  0  0  0  0  0  0  0  0  0  0
   -1.7964   -3.3939   -4.4417 N   0  0  0  0  0  0  0  0  0  0  0  0
   -0.7427   -2.5451   -4.0739 C   0  0  0  0  0  0  0  0  0  0  0  0
   -0.7648   -1.8876   -2.8448 C   0  0  0  0  0  0  0  0  0  0  0  0
    0.2515   -1.0276   -2.4860 C   0  0  0  0  0  0  0  0  0  0  0  0
    1.3095   -0.7978   -3.3537 C   0  0  0  0  0  0  0  0  0  0  0  0
    2.5924    0.3551   -2.9479 S   0  0  0  0  0  0  0  0  0  0  0  0
    1.6338    1.6905   -2.1606 C   0  0  0  0  0  0  0  0  0  0  0  0
    1.3719   -1.4913   -4.5562 C   0  0  0  0  0  0  0  0  0  0  0  0
    0.3612   -2.3623   -4.9087 C   0  0  0  0  0  0  0  0  0  0  0  0
   -2.4187   -3.3435   -5.6867 C   0  0  0  0  0  0  0  0  0  0  0  0
   -3.3502   -4.3235   -6.0411 C   0  0  0  0  0  0  0  0  0  0  0  0
   -4.0094   -4.2643   -7.2487 C   0  0  0  0  0  0  0  0  0  0  0  0
   -3.7588   -3.2285   -8.1441 C   0  0  0  0  0  0  0  0  0  0  0  0
   -4.6854   -3.2410   -9.6508 S   0  0  0  0  0  0  0  0  0  0  0  0
   -4.0149   -1.8363  -10.5843 C   0  0  0  0  0  0  0  0  0  0  0  0
   -2.8314   -2.2549   -7.8032 C   0  0  0  0  0  0  0  0  0  0  0  0
   -2.1729   -2.3112   -6.5909 C   0  0  0  0  0  0  0  0  0  0  0  0
   -3.4356   -3.8189   -2.5928 C   0  0  0  0  0  0  0  0  0  0  0  0
   -4.2767   -2.3328   -2.3375 S   0  0  0  0  0  0  0  0  0  0  0  0
   -4.8732   -2.9357   -0.7974 C   0  0  0  0  0  0  0  0  0  0  0  0
   -4.5809   -4.2786   -0.5923 C   0  0  0  0  0  0  0  0  0  0  0  0
   -4.9985   -5.0320    0.4863 N   0  0  0  0  0  0  0  0  0  0  0  0
   -4.1136   -5.9916    1.0107 C   0  0  0  0  0  0  0  0  0  0  0  0
   -4.5640   -7.2567    1.3719 C   0  0  0  0  0  0  0  0  0  0  0  0
   -3.6874   -8.1972    1.8769 C   0  0  0  0  0  0  0  0  0  0  0  0
   -2.3410   -7.8878    2.0196 C   0  0  0  0  0  0  0  0  0  0  0  0
   -1.1253   -9.0033    2.6441 S   0  0  0  0  0  0  0  0  0  0  0  0
   -2.0534  -10.5265    2.9798 C   0  0  0  0  0  0  0  0  0  0  0  0
   -1.8871   -6.6209    1.6576 C   0  0  0  0  0  0  0  0  0  0  0  0
   -2.7619   -5.6804    1.1637 C   0  0  0  0  0  0  0  0  0  0  0  0
   -6.2757   -4.8630    1.0341 C   0  0  0  0  0  0  0  0  0  0  0  0
   -6.4962   -5.0931    2.3942 C   0  0  0  0  0  0  0  0  0  0  0  0
   -7.7500   -4.9203    2.9351 C   0  0  0  0  0  0  0  0  0  0  0  0
   -8.8161   -4.5066    2.1384 C   0  0  0  0  0  0  0  0  0  0  0  0
  -10.3730   -4.3160    2.9474 S   0  0  0  0  0  0  0  0  0  0  0  0
  -11.4753   -3.7054    1.6411 C   0  0  0  0  0  0  0  0  0  0  0  0
   -8.6022   -4.2778    0.7860 C   0  0  0  0  0  0  0  0  0  0  0  0
   -7.3459   -4.4572    0.2418 C   0  0  0  0  0  0  0  0  0  0  0  0
   -3.7518   -4.7724   -1.6326 C   0  0  0  0  0  0  0  0  0  0  0  0
   -2.8489   -6.2315   -1.8737 S   0  0  0  0  0  0  0  0  0  0  0  0
   -5.1807   -1.8874    0.1276 C   0  0  0  0  0  0  0  0  0  0  0  0
   -4.9857   -1.9666    1.5259 C   0  0  0  0  0  0  0  0  0  0  0  0
   -4.6515   -0.7982    2.1559 C   0  0  0  0  0  0  0  0  0  0  0  0
   -4.5941    0.3834    1.3833 C   0  0  0  0  0  0  0  0  0  0  0  0
   -5.1699    0.4043    0.1750 N   0  0  0  0  0  0  0  0  0  0  0  0
   -5.4206   -0.6964   -0.4335 N   0  0  0  0  0  0  0  0  0  0  0  0
   -3.8385    1.5288    1.7942 C   0  0  0  0  0  0  0  0  0  0  0  0
   -3.6358    2.7339    1.1349 C   0  0  0  0  0  0  0  0  0  0  0  0
   -4.2883    3.1692   -0.0112 N   0  0  0  0  0  0  0  0  0  0  0  0
   -4.7190    4.4957   -0.0453 C   0  0  0  0  0  0  0  0  0  0  0  0
   -4.6837    5.2494   -1.2161 C   0  0  0  0  0  0  0  0  0  0  0  0
   -5.1086    6.5636   -1.2243 C   0  0  0  0  0  0  0  0  0  0  0  0
   -5.5665    7.1578   -0.0566 C   0  0  0  0  0  0  0  0  0  0  0  0
   -6.1245    8.8297    0.0599 S   0  0  0  0  0  0  0  0  0  0  0  0
   -5.9522    9.4697   -1.6296 C   0  0  0  0  0  0  0  0  0  0  0  0
   -5.5999    6.4109    1.1193 C   0  0  0  0  0  0  0  0  0  0  0  0
   -5.1880    5.0984    1.1253 C   0  0  0  0  0  0  0  0  0  0  0  0
   -4.1779    2.4011   -1.1814 C   0  0  0  0  0  0  0  0  0  0  0  0
   -2.9945    1.7170   -1.4535 C   0  0  0  0  0  0  0  0  0  0  0  0
   -2.8798    0.9635   -2.6005 C   0  0  0  0  0  0  0  0  0  0  0  0
   -3.9412    0.8792   -3.4934 C   0  0  0  0  0  0  0  0  0  0  0  0
   -3.6851   -0.1100   -4.9363 S   0  0  0  0  0  0  0  0  0  0  0  0
   -5.3662   -0.6284   -5.3814 C   0  0  0  0  0  0  0  0  0  0  0  0
   -5.1133    1.5786   -3.2389 C   0  0  0  0  0  0  0  0  0  0  0  0
   -5.2285    2.3353   -2.0919 C   0  0  0  0  0  0  0  0  0  0  0  0
   -2.5825    3.4685    1.7318 C   0  0  0  0  0  0  0  0  0  0  0  0
   -1.7546    4.9149    1.2775 S   0  0  0  0  0  0  0  0  0  0  0  0
   -0.4775    4.5462    2.4063 C   0  0  0  0  0  0  0  0  0  0  0  0
   -0.7255    3.4110    3.1548 C   0  0  0  0  0  0  0  0  0  0  0  0
    0.1379    2.9563    4.1741 N   0  0  0  0  0  0  0  0  0  0  0  0
    1.1840    2.1145    3.7482 C   0  0  0  0  0  0  0  0  0  0  0  0
    0.8902    1.0041    2.9616 C   0  0  0  0  0  0  0  0  0  0  0  0
    1.8977    0.2062    2.4568 C   0  0  0  0  0  0  0  0  0  0  0  0
    3.2236    0.4918    2.7468 C   0  0  0  0  0  0  0  0  0  0  0  0
    4.5676   -0.4746    2.1208 S   0  0  0  0  0  0  0  0  0  0  0  0
    3.8321   -2.1378    2.0394 C   0  0  0  0  0  0  0  0  0  0  0  0
    3.5273    1.5969    3.5335 C   0  0  0  0  0  0  0  0  0  0  0  0
    2.5216    2.4045    4.0202 C   0  0  0  0  0  0  0  0  0  0  0  0
    0.2510    3.7197    5.3398 C   0  0  0  0  0  0  0  0  0  0  0  0
   -0.4102    4.9376    5.4912 C   0  0  0  0  0  0  0  0  0  0  0  0
   -0.2231    5.7111    6.6192 C   0  0  0  0  0  0  0  0  0  0  0  0
    0.6247    5.2824    7.6287 C   0  0  0  0  0  0  0  0  0  0  0  0
    0.9971    6.2640    9.0478 S   0  0  0  0  0  0  0  0  0  0  0  0
    0.7416    7.9498    8.4167 C   0  0  0  0  0  0  0  0  0  0  0  0
    1.1969    4.0163    7.5379 C   0  0  0  0  0  0  0  0  0  0  0  0
    1.0022    3.2406    6.4179 C   0  0  0  0  0  0  0  0  0  0  0  0
   -1.9438    2.8138    2.7755 C   0  0  0  0  0  0  0  0  0  0  0  0
   -2.7343    1.3259    3.1552 S   0  0  0  0  0  0  0  0  0  0  0  0
    0.6937    5.3763    2.5508 C   0  0  0  0  0  0  0  0  0  0  0  0
    1.9247    4.8885    2.2773 C   0  0  0  0  0  0  0  0  0  0  0  0
    2.1501    3.6979    1.4058 C   0  0  0  0  0  0  0  0  0  0  0  0
    1.3045    2.9725    0.9260 O   0  0  0  0  0  0  0  0  0  0  0  0
    3.5956    3.6693    1.1444 C   0  0  0  0  0  0  0  0  0  0  0  0
    4.2824    2.7519    0.3497 C   0  0  0  0  0  0  0  0  0  0  0  0
    5.6375    2.9639    0.2931 C   0  0  0  0  0  0  0  0  0  0  0  0
    6.2705    4.0187    0.9674 C   0  0  0  0  0  0  0  0  0  0  0  0
    5.6076    4.9350    1.7477 C   0  0  0  0  0  0  0  0  0  0  0  0
    4.2250    4.7327    1.8283 C   0  0  0  0  0  0  0  0  0  0  0  0
    3.2194    5.4720    2.5779 C   0  0  0  0  0  0  0  0  0  0  0  0
    3.4446    6.4468    3.5135 C   0  0  0  0  0  0  0  0  0  0  0  0
    4.7162    6.9700    3.8294 C   0  0  0  0  0  0  0  0  0  0  0  0
    5.7206    7.4416    4.1227 N   0  0  0  0  0  0  0  0  0  0  0  0
    2.4424    7.0229    4.3209 C   0  0  0  0  0  0  0  0  0  0  0  0
    1.6903    7.5194    5.0332 N   0  0  0  0  0  0  0  0  0  0  0  0
    7.6374    3.6215    0.4687 C   0  0  0  0  0  0  0  0  0  0  0  0
    8.5472    2.8836    1.4742 C   0  0  0  0  0  0  0  0  0  0  0  0
    9.5804    2.2098    0.6000 C   0  0  0  0  0  0  0  0  0  0  0  0
    8.9809    1.2128   -0.0385 C   0  0  0  0  0  0  0  0  0  0  0  0
    7.5327    1.1967    0.3923 C   0  0  0  0  0  0  0  0  0  0  0  0
    7.6840    1.6703    1.8426 C   0  0  0  0  0  0  0  0  0  0  0  0
    6.9309    2.4473   -0.2826 C   0  0  0  0  0  0  0  0  0  0  0  0
   -0.9293   -6.9317   -4.4267 H   0  0  0  0  0  0  0  0  0  0  0  0
    2.2103   -2.7230   -0.9602 H   0  0  0  0  0  0  0  0  0  0  0  0
    4.3899   -4.8518   -5.0027 H   0  0  0  0  0  0  0  0  0  0  0  0
    6.0517   -1.9917   -4.0743 H   0  0  0  0  0  0  0  0  0  0  0  0
    7.8220   -3.6200   -3.4181 H   0  0  0  0  0  0  0  0  0  0  0  0
    6.6174   -5.5149   -2.0778 H   0  0  0  0  0  0  0  0  0  0  0  0
    5.5182   -4.4380    0.0821 H   0  0  0  0  0  0  0  0  0  0  0  0
    6.0547   -1.8741    0.0841 H   0  0  0  0  0  0  0  0  0  0  0  0
    8.3353   -2.6690   -0.9983 H   0  0  0  0  0  0  0  0  0  0  0  0
    7.6819   -1.3413   -1.9925 H   0  0  0  0  0  0  0  0  0  0  0  0
    5.0060   -0.9274   -1.9716 H   0  0  0  0  0  0  0  0  0  0  0  0
   -1.5822   -2.0474   -2.1615 H   0  0  0  0  0  0  0  0  0  0  0  0
    0.2078   -0.5243   -1.5320 H   0  0  0  0  0  0  0  0  0  0  0  0
    1.4523    1.4836   -1.1095 H   0  0  0  0  0  0  0  0  0  0  0  0
    2.2337    2.5908   -2.2536 H   0  0  0  0  0  0  0  0  0  0  0  0
    0.6982    1.8129   -2.6973 H   0  0  0  0  0  0  0  0  0  0  0  0
    2.2171   -1.3433   -5.2109 H   0  0  0  0  0  0  0  0  0  0  0  0
    0.4188   -2.9034   -5.8419 H   0  0  0  0  0  0  0  0  0  0  0  0
   -3.5660   -5.1363   -5.3647 H   0  0  0  0  0  0  0  0  0  0  0  0
   -4.7299   -5.0238   -7.5108 H   0  0  0  0  0  0  0  0  0  0  0  0
   -4.2224   -0.9069  -10.0617 H   0  0  0  0  0  0  0  0  0  0  0  0
   -2.9488   -1.9721  -10.7407 H   0  0  0  0  0  0  0  0  0  0  0  0
   -4.5326   -1.8459  -11.5385 H   0  0  0  0  0  0  0  0  0  0  0  0
   -2.6176   -1.4302   -8.4633 H   0  0  0  0  0  0  0  0  0  0  0  0
   -1.4852   -1.5213   -6.3372 H   0  0  0  0  0  0  0  0  0  0  0  0
   -5.6080   -7.5059    1.2525 H   0  0  0  0  0  0  0  0  0  0  0  0
   -4.0683   -9.1692    2.1447 H   0  0  0  0  0  0  0  0  0  0  0  0
   -2.8157  -10.3411    3.7309 H   0  0  0  0  0  0  0  0  0  0  0  0
   -1.3238  -11.2328    3.3634 H   0  0  0  0  0  0  0  0  0  0  0  0
   -2.4867  -10.9078    2.0598 H   0  0  0  0  0  0  0  0  0  0  0  0
   -0.8408   -6.3834    1.7701 H   0  0  0  0  0  0  0  0  0  0  0  0
   -2.3995   -4.7012    0.8882 H   0  0  0  0  0  0  0  0  0  0  0  0
   -5.6764   -5.4047    3.0249 H   0  0  0  0  0  0  0  0  0  0  0  0
   -7.9180   -5.0957    3.9866 H   0  0  0  0  0  0  0  0  0  0  0  0
  -11.0977   -2.7666    1.2465 H   0  0  0  0  0  0  0  0  0  0  0  0
  -12.4348   -3.5440    2.1223 H   0  0  0  0  0  0  0  0  0  0  0  0
  -11.5773   -4.4523    0.8591 H   0  0  0  0  0  0  0  0  0  0  0  0
   -9.4056   -3.9663    0.1385 H   0  0  0  0  0  0  0  0  0  0  0  0
   -7.1978   -4.2844   -0.8134 H   0  0  0  0  0  0  0  0  0  0  0  0
   -5.0421   -2.8995    2.0604 H   0  0  0  0  0  0  0  0  0  0  0  0
   -4.4171   -0.7720    3.2094 H   0  0  0  0  0  0  0  0  0  0  0  0
   -4.3101    4.8062   -2.1267 H   0  0  0  0  0  0  0  0  0  0  0  0
   -5.0644    7.1146   -2.1499 H   0  0  0  0  0  0  0  0  0  0  0  0
   -4.9098    9.4417   -1.9338 H   0  0  0  0  0  0  0  0  0  0  0  0
   -6.5786    8.8994   -2.3093 H   0  0  0  0  0  0  0  0  0  0  0  0
   -6.2958   10.4987   -1.5878 H   0  0  0  0  0  0  0  0  0  0  0  0
   -5.9612    6.8738    2.0247 H   0  0  0  0  0  0  0  0  0  0  0  0
   -5.2344    4.5248    2.0392 H   0  0  0  0  0  0  0  0  0  0  0  0
   -2.1652    1.7783   -0.7630 H   0  0  0  0  0  0  0  0  0  0  0  0
   -1.9686    0.4298   -2.8209 H   0  0  0  0  0  0  0  0  0  0  0  0
   -5.8915   -0.9273   -4.4798 H   0  0  0  0  0  0  0  0  0  0  0  0
   -5.2472   -1.4779   -6.0476 H   0  0  0  0  0  0  0  0  0  0  0  0
   -5.8884    0.1739   -5.8948 H   0  0  0  0  0  0  0  0  0  0  0  0
   -5.9416    1.5335   -3.9281 H   0  0  0  0  0  0  0  0  0  0  0  0
   -6.1438    2.8668   -1.8829 H   0  0  0  0  0  0  0  0  0  0  0  0
   -0.1352    0.7693    2.7274 H   0  0  0  0  0  0  0  0  0  0  0  0
    1.6390   -0.6347    1.8325 H   0  0  0  0  0  0  0  0  0  0  0  0
    4.6607   -2.8385    2.0531 H   0  0  0  0  0  0  0  0  0  0  0  0
    3.2030   -2.2906    2.9104 H   0  0  0  0  0  0  0  0  0  0  0  0
    3.2672   -2.2585    1.1201 H   0  0  0  0  0  0  0  0  0  0  0  0
    4.5597    1.8283    3.7496 H   0  0  0  0  0  0  0  0  0  0  0  0
    2.7762    3.2741    4.6086 H   0  0  0  0  0  0  0  0  0  0  0  0
   -1.0824    5.2991    4.7294 H   0  0  0  0  0  0  0  0  0  0  0  0
   -0.7384    6.6543    6.6922 H   0  0  0  0  0  0  0  0  0  0  0  0
   -0.3158    8.1989    8.4245 H   0  0  0  0  0  0  0  0  0  0  0  0
    1.1552    8.0179    7.4149 H   0  0  0  0  0  0  0  0  0  0  0  0
    1.2775    8.6077    9.0935 H   0  0  0  0  0  0  0  0  0  0  0  0
    1.8041    3.6514    8.3521 H   0  0  0  0  0  0  0  0  0  0  0  0
    1.4441    2.2571    6.3661 H   0  0  0  0  0  0  0  0  0  0  0  0
    0.5555    6.3921    2.9000 H   0  0  0  0  0  0  0  0  0  0  0  0
    3.7668    1.9506   -0.1535 H   0  0  0  0  0  0  0  0  0  0  0  0
    6.1027    5.7485    2.2518 H   0  0  0  0  0  0  0  0  0  0  0  0
    8.1672    4.3726   -0.1139 H   0  0  0  0  0  0  0  0  0  0  0  0
    8.9209    3.5010    2.2864 H   0  0  0  0  0  0  0  0  0  0  0  0
   10.5941    2.5505    0.4990 H   0  0  0  0  0  0  0  0  0  0  0  0
    9.3961    0.5541   -0.7785 H   0  0  0  0  0  0  0  0  0  0  0  0
    6.9764    0.2803    0.2257 H   0  0  0  0  0  0  0  0  0  0  0  0
    6.7399    1.9191    2.3220 H   0  0  0  0  0  0  0  0  0  0  0  0
    8.2225    0.9498    2.4549 H   0  0  0  0  0  0  0  0  0  0  0  0
    6.9852    2.4140   -1.3690 H   0  0  0  0  0  0  0  0  0  0  0  0
  1  2  2  0  0  0  0
  2  3  1  0  0  0  0
  3  4  2  0  0  0  0
  3  5  1  0  0  0  0
  5  6  2  0  0  0  0
  6  7  1  0  0  0  0
  7  8  2  0  0  0  0
  8  9  1  0  0  0  0
  9 10  2  0  0  0  0
 10 11  1  0  0  0  0
 11 12  2  0  0  0  0
 12 13  1  0  0  0  0
 13 14  3  0  0  0  0
 12 15  1  0  0  0  0
 15 16  3  0  0  0  0
  8 17  1  0  0  0  0
 17 18  1  0  0  0  0
 18 19  1  0  0  0  0
 19 20  2  0  0  0  0
 20 21  1  0  0  0  0
 21 22  1  0  0  0  0
 21 23  1  0  0  0  0
  1 24  1  0  0  0  0
 24 25  2  0  0  0  0
 25 26  1  0  0  0  0
 26 27  1  0  0  0  0
 27 28  2  0  0  0  0
 28 29  1  0  0  0  0
 29 30  2  0  0  0  0
 30 31  1  0  0  0  0
 31 32  1  0  0  0  0
 30 33  1  0  0  0  0
 33 34  2  0  0  0  0
 26 35  1  0  0  0  0
 35 36  2  0  0  0  0
 36 37  1  0  0  0  0
 37 38  2  0  0  0  0
 38 39  1  0  0  0  0
 39 40  1  0  0  0  0
 38 41  1  0  0  0  0
 41 42  2  0  0  0  0
 25 43  1  0  0  0  0
 43 44  1  0  0  0  0
 44 45  1  0  0  0  0
 45 46  2  0  0  0  0
 46 47  1  0  0  0  0
 47 48  1  0  0  0  0
 48 49  2  0  0  0  0
 49 50  1  0  0  0  0
 50 51  2  0  0  0  0
 51 52  1  0  0  0  0
 52 53  1  0  0  0  0
 51 54  1  0  0  0  0
 54 55  2  0  0  0  0
 47 56  1  0  0  0  0
 56 57  2  0  0  0  0
 57 58  1  0  0  0  0
 58 59  2  0  0  0  0
 59 60  1  0  0  0  0
 60 61  1  0  0  0  0
 59 62  1  0  0  0  0
 62 63  2  0  0  0  0
 46 64  1  0  0  0  0
 64 65  1  0  0  0  0
 45 66  1  0  0  0  0
 66 67  2  0  0  0  0
 67 68  1  0  0  0  0
 68 69  2  0  0  0  0
 69 70  1  0  0  0  0
 70 71  2  0  0  0  0
 69 72  1  0  0  0  0
 72 73  2  0  0  0  0
 73 74  1  0  0  0  0
 74 75  1  0  0  0  0
 75 76  2  0  0  0  0
 76 77  1  0  0  0  0
 77 78  2  0  0  0  0
 78 79  1  0  0  0  0
 79 80  1  0  0  0  0
 78 81  1  0  0  0  0
 81 82  2  0  0  0  0
 74 83  1  0  0  0  0
 83 84  2  0  0  0  0
 84 85  1  0  0  0  0
 85 86  2  0  0  0  0
 86 87  1  0  0  0  0
 87 88  1  0  0  0  0
 86 89  1  0  0  0  0
 89 90  2  0  0  0  0
 73 91  1  0  0  0  0
 91 92  1  0  0  0  0
 92 93  1  0  0  0  0
 93 94  2  0  0  0  0
 94 95  1  0  0  0  0
 95 96  1  0  0  0  0
 96 97  2  0  0  0  0
 97 98  1  0  0  0  0
 98 99  2  0  0  0  0
 99100  1  0  0  0  0
100101  1  0  0  0  0
 99102  1  0  0  0  0
102103  2  0  0  0  0
 95104  1  0  0  0  0
104105  2  0  0  0  0
105106  1  0  0  0  0
106107  2  0  0  0  0
107108  1  0  0  0  0
108109  1  0  0  0  0
107110  1  0  0  0  0
110111  2  0  0  0  0
 94112  1  0  0  0  0
112113  1  0  0  0  0
 93114  1  0  0  0  0
114115  2  0  0  0  0
115116  1  0  0  0  0
116117  2  0  0  0  0
116118  1  0  0  0  0
118119  2  0  0  0  0
119120  1  0  0  0  0
120121  2  0  0  0  0
121122  1  0  0  0  0
122123  2  0  0  0  0
123124  1  0  0  0  0
124125  2  0  0  0  0
125126  1  0  0  0  0
126127  3  0  0  0  0
125128  1  0  0  0  0
128129  3  0  0  0  0
121130  1  0  0  0  0
130131  1  0  0  0  0
131132  1  0  0  0  0
132133  2  0  0  0  0
133134  1  0  0  0  0
134135  1  0  0  0  0
134136  1  0  0  0  0
 11  2  1  0  0  0  0
 23 17  1  0  0  0  0
 65 24  1  0  0  0  0
 71 66  1  0  0  0  0
113 72  1  0  0  0  0
124115  1  0  0  0  0
136130  1  0  0  0  0
 10  5  1  0  0  0  0
 22 18  1  0  0  0  0
 34 27  1  0  0  0  0
 42 35  1  0  0  0  0
 64 43  2  0  0  0  0
 82 75  1  0  0  0  0
 90 83  1  0  0  0  0
112 91  2  0  0  0  0
123118  1  0  0  0  0
135131  1  0  0  0  0
 23  7  1  0  0  0  0
 55 48  1  0  0  0  0
 63 56  1  0  0  0  0
103 96  1  0  0  0  0
111104  1  0  0  0  0
136120  1  0  0  0  0
  1137  1  0  0  0  0
  6138  1  0  0  0  0
  9139  1  0  0  0  0
 17140  1  0  0  0  0
 18141  1  0  0  0  0
 19142  1  0  0  0  0
 20143  1  0  0  0  0
 21144  1  0  0  0  0
 22145  1  0  0  0  0
 22146  1  0  0  0  0
 23147  1  0  0  0  0
 28148  1  0  0  0  0
 29149  1  0  0  0  0
 32150  1  0  0  0  0
 32151  1  0  0  0  0
 32152  1  0  0  0  0
 33153  1  0  0  0  0
 34154  1  0  0  0  0
 36155  1  0  0  0  0
 37156  1  0  0  0  0
 40157  1  0  0  0  0
 40158  1  0  0  0  0
 40159  1  0  0  0  0
 41160  1  0  0  0  0
 42161  1  0  0  0  0
 49162  1  0  0  0  0
 50163  1  0  0  0  0
 53164  1  0  0  0  0
 53165  1  0  0  0  0
 53166  1  0  0  0  0
 54167  1  0  0  0  0
 55168  1  0  0  0  0
 57169  1  0  0  0  0
 58170  1  0  0  0  0
 61171  1  0  0  0  0
 61172  1  0  0  0  0
 61173  1  0  0  0  0
 62174  1  0  0  0  0
 63175  1  0  0  0  0
 67176  1  0  0  0  0
 68177  1  0  0  0  0
 76178  1  0  0  0  0
 77179  1  0  0  0  0
 80180  1  0  0  0  0
 80181  1  0  0  0  0
 80182  1  0  0  0  0
 81183  1  0  0  0  0
 82184  1  0  0  0  0
 84185  1  0  0  0  0
 85186  1  0  0  0  0
 88187  1  0  0  0  0
 88188  1  0  0  0  0
 88189  1  0  0  0  0
 89190  1  0  0  0  0
 90191  1  0  0  0  0
 97192  1  0  0  0  0
 98193  1  0  0  0  0
101194  1  0  0  0  0
101195  1  0  0  0  0
101196  1  0  0  0  0
102197  1  0  0  0  0
103198  1  0  0  0  0
105199  1  0  0  0  0
106200  1  0  0  0  0
109201  1  0  0  0  0
109202  1  0  0  0  0
109203  1  0  0  0  0
110204  1  0  0  0  0
111205  1  0  0  0  0
114206  1  0  0  0  0
119207  1  0  0  0  0
122208  1  0  0  0  0
130209  1  0  0  0  0
131210  1  0  0  0  0
132211  1  0  0  0  0
133212  1  0  0  0  0
134213  1  0  0  0  0
135214  1  0  0  0  0
135215  1  0  0  0  0
136216  1  0  0  0  0
M  END
