208

C         -3.51990       -3.93110        6.21660
C         -4.70660       -3.30820        6.54400
C         -4.87600       -1.85910        6.72380
O         -4.01120       -1.00350        6.65460
C         -6.28890       -1.67200        7.11840
C         -6.94970       -0.46730        7.33340
C         -8.29280       -0.60220        7.59520
C         -8.93060       -1.84660        7.66120
C         -8.28560       -3.04580        7.47380
C         -6.92410       -2.92820        7.18880
C         -5.94870       -3.95870        6.84230
C         -6.21740       -5.29120        6.62230
C         -5.29880       -6.20090        6.06540
N         -4.62820       -6.98550        5.55750
C         -7.47170       -5.89550        6.81490
N         -8.47430       -6.44870        6.91900
C        -10.27900       -1.23230        7.94100
C        -10.80820       -1.27050        9.39540
C         -9.59550       -1.32690       10.29070
C         -8.99100       -0.14810       10.22860
C         -9.78440        0.72720        9.29040
C        -11.20330        0.20500        9.56720
C         -9.56840        0.15600        7.86740
C         -2.48480       -3.39980        5.45200
C         -2.42420       -2.31600        4.54950
N         -3.44550       -1.53310        4.09040
C         -3.10230       -0.27960        3.52480
C         -2.41580        0.66600        4.27700
C         -2.05050        1.87340        3.71120
C         -2.36810        2.14450        2.38540
S         -1.92340        3.62420        1.54060
C         -1.46240        4.76530        2.87450
C         -3.07320        1.19950        1.63890
C         -3.44350        0.00050        2.20280
C         -4.78170       -1.92400        3.99720
C         -5.78240       -0.95050        4.09840
C         -7.10850       -1.30460        4.05170
C         -7.48320       -2.64110        3.90130
S         -9.20910       -2.97340        3.94460
C         -9.33480       -4.76880        3.71580
C         -6.49630       -3.60440        3.73820
C         -5.16130       -3.24840        3.78710
C         -1.11860       -2.21170        4.00900
S         -0.37890       -1.11220        2.90320
C          1.07830       -2.10450        2.83610
C          1.00000       -3.21100        3.67090
N          1.93720       -4.21490        3.83170
C          3.31100       -3.99740        3.87390
C          3.85100       -2.75430        4.20870
C          5.21650       -2.58150        4.26790
C          6.07630       -3.64660        4.01920
S          7.81630       -3.33370        4.11620
C          8.49620       -4.96830        4.53070
C          5.54660       -4.88610        3.68590
C          4.18040       -5.05430        3.60320
C          1.41520       -5.49640        4.12320
C          1.85600       -6.22160        5.22840
C          1.24580       -7.41060        5.55950
C          0.17660       -7.89340        4.80580
S         -0.58690       -9.38200        5.35760
C         -2.22880       -9.32790        4.58290
C         -0.22930       -7.19860        3.67350
C          0.39160       -6.01310        3.33420
C         -0.24930       -3.23550        4.34900
S         -0.96950       -4.31780        5.48260
C          2.03930       -1.65340        1.88510
C          2.04260       -0.38010        1.38540
C          2.89360       -0.19440        0.27850
C          3.00120        0.96090       -0.52170
C          2.45330        2.21830       -0.06470
C          2.49480        2.69060        1.22130
C          1.90610        3.96490        1.37990
O          1.80620        4.69090        2.52210
C          2.47450        4.19410        3.66880
C          2.32840        5.22730        4.77440
C          1.40940        4.44200        0.19240
Cl         0.62260        5.93780       -0.04030
S          1.66610        3.34570       -1.12190
C          3.64340        0.80210       -1.74220
C          4.28850       -0.40140       -2.12350
C          4.30980       -1.51280       -1.24800
C          5.03520       -2.73360       -1.52750
C          5.74860       -3.46590       -0.61620
C          6.35460       -4.62040       -1.16400
O          7.12150       -5.54030       -0.53140
C          7.70560       -5.16490        0.70340
C          8.79950       -4.11580        0.54150
C          6.06490       -4.75910       -2.50000
S          5.06480       -3.48250       -3.09620
Cl         6.58730       -6.03180       -3.51070
C          3.56500       -1.38660       -0.07960
S          3.18950       -2.67760        1.04430
C          4.83860       -0.29600       -3.42030
C          4.59240        0.90610       -4.03290
S          3.72480        2.01090       -2.99140
C          4.85090        1.28530       -5.39090
C          5.44060        0.47060       -6.35100
F          5.99280       -0.70460       -6.01400
C          5.44490        0.80600       -7.70790
F          5.97010       -0.07640       -8.56860
C          4.85120        1.95870       -8.20150
C          4.38070        2.88930       -7.23060
N          3.95090        4.10380       -7.60730
C          3.44170        4.92660       -6.72400
C          3.04820        6.28230       -7.22550
C          4.16400        7.29550       -6.95710
C          3.32420        4.53440       -5.36060
N          3.82670        3.38780       -4.97820
C          4.36900        2.54300       -5.85960
C          2.60500        5.32750       -4.31840
C          1.12660        4.92500       -4.31370
C          4.73000        2.20690       -9.61090
C          3.74500        2.90850      -10.21690
C          3.93860        3.44950      -11.59370
O          4.77050        3.10560      -12.39940
C          2.94320        4.53210      -11.72220
C          2.81900        5.44050      -12.77200
C          1.81220        6.36030      -12.60280
C          0.97800        6.37350      -11.47590
C          1.08290        5.48170      -10.43670
C          2.10830        4.54290      -10.58420
C          2.49490        3.44420       -9.70660
C          1.70940        2.89880       -8.72570
C          2.00020        1.69040       -8.06120
N          2.16410        0.70230       -7.50000
C          0.54030        3.49810       -8.21920
N         -0.37630        3.97250       -7.71490
C          0.20420        7.57240      -11.96210
C          0.51650        8.94050      -11.30710
C          1.93950        8.86130      -10.81250
C          2.73640        8.85200      -11.87270
C          1.86670        8.92630      -13.10340
C          0.71530        9.79370      -12.56970
C          1.13780        7.56330      -13.21350
H         -3.35890       -4.94450        6.56450
H         -6.42510        0.47310        7.26530
H         -8.78720       -3.99770        7.53220
H        -11.05440       -1.44580        7.20810
H        -11.57490       -2.01870        9.57770
H         -9.27870       -2.20940       10.81510
H         -8.06810        0.15090       10.69030
H         -9.61960        1.79810        9.37770
H        -11.93960        0.54380        8.83960
H        -11.54800        0.43490       10.57430
H         -9.88570        0.84790        7.08940
H         -2.18720        0.44690        5.30880
H         -1.51580        2.59260        4.31060
H         -2.25020        4.79110        3.62110
H         -0.50870        4.47810        3.30420
H         -1.36240        5.73760        2.40230
H         -3.31820        1.42100        0.61190
H         -3.98810       -0.73120        1.62480
H         -5.50240        0.08120        4.24390
H         -7.87800       -0.55540        4.15470
H        -10.39880       -4.98320        3.69710
H         -8.88600       -5.05460        2.76930
H         -8.87450       -5.28890        4.55060
H         -6.74920       -4.64160        3.58470
H         -4.40990       -4.01180        3.65100
H          3.19770       -1.92670        4.43910
H          5.63260       -1.61970        4.52570
H          9.50940       -4.78890        4.87660
H          8.51640       -5.60820        3.65340
H          7.90450       -5.41080        5.32590
H          6.18870       -5.72940        3.48640
H          3.77950       -6.01710        3.32600
H          2.65720       -5.83190        5.83850
H          1.56820       -7.96640        6.42630
H         -2.70440       -8.37490        4.79380
H         -2.15040       -9.51050        3.51510
H         -2.79420      -10.12960        5.04780
H         -1.03130       -7.56770        3.05530
H          0.06820       -5.46620        2.46010
H          1.38900        0.38720        1.75950
H          2.97610        2.14990        2.01520
H          3.53610        4.03010        3.44190
H          2.03110        3.23580        3.97690
H          2.75470        6.17330        4.45300
H          1.27900        5.38570        5.00930
H          2.84540        4.88690        5.66690
H          5.85560       -3.15970        0.40860
H          8.12790       -6.09790        1.08730
H          6.93190       -4.81160        1.39500
H          9.57990       -4.48900       -0.11690
H          8.39120       -3.20330        0.11320
H          9.23100       -3.88020        1.51010
H          5.37210       -1.09750       -3.89320
H          2.12330        6.60640       -6.74760
H          2.88440        6.21220       -8.30210
H          5.07310        6.99170       -7.47040
H          3.87290        8.27770       -7.32110
H          4.37850        7.36960       -5.89340
H          3.03670        5.08460       -3.34730
H          2.70090        6.39710       -4.50000
H          0.59250        5.49200       -3.55640
H          0.66380        5.10700       -5.28160
H          1.03460        3.86730       -4.08210
H          5.52650        1.83760      -10.24790
H          3.47610        5.39310      -13.62610
H          0.44050        5.50560       -9.57180
H         -0.86150        7.41970      -12.11980
H         -0.22490        9.27600      -10.58690
H          2.20900        8.76380       -9.77700
H          3.80500        8.74540      -11.90000
H          2.35600        9.25120      -14.01770
H         -0.15520        9.80970      -13.22380
H          1.02530       10.81310      -12.34490
H          0.68200        7.41460      -14.19020
