
  xtb     02062212073D
 energy: -334.488423361832 gnorm: 0.000398339484 xtb: 6.4.1 (unknown)
191213  0     0  0            999 V2000
    7.4746    5.1420    1.3545 C   0  0  0  0  0  0  0  0  0  0  0  0
    8.3574    5.1389    0.3172 C   0  0  0  0  0  0  0  0  0  0  0  0
    8.2438    4.3384   -0.9301 C   0  0  0  0  0  0  0  0  0  0  0  0
    7.5046    3.4003   -1.1450 O   0  0  0  0  0  0  0  0  0  0  0  0
    9.3157    4.8188   -1.8165 C   0  0  0  0  0  0  0  0  0  0  0  0
    9.5318    4.4457   -3.1411 C   0  0  0  0  0  0  0  0  0  0  0  0
   10.6199    5.0525   -3.7199 C   0  0  0  0  0  0  0  0  0  0  0  0
   11.4366    5.9603   -3.0305 C   0  0  0  0  0  0  0  0  0  0  0  0
   11.2339    6.3356   -1.7240 C   0  0  0  0  0  0  0  0  0  0  0  0
   10.1305    5.7303   -1.1139 C   0  0  0  0  0  0  0  0  0  0  0  0
    9.6023    5.8871    0.2388 C   0  0  0  0  0  0  0  0  0  0  0  0
   10.1899    6.6132    1.2414 C   0  0  0  0  0  0  0  0  0  0  0  0
    9.6918    6.7573    2.5533 C   0  0  0  0  0  0  0  0  0  0  0  0
    9.3604    6.9248    3.6404 N   0  0  0  0  0  0  0  0  0  0  0  0
   11.4125    7.3066    1.1146 C   0  0  0  0  0  0  0  0  0  0  0  0
   12.4008    7.8904    1.0915 N   0  0  0  0  0  0  0  0  0  0  0  0
   12.3403    6.1715   -4.2192 C   0  0  0  0  0  0  0  0  0  0  0  0
   13.7152    5.4584   -4.2168 C   0  0  0  0  0  0  0  0  0  0  0  0
   13.5604    4.2293   -3.3557 C   0  0  0  0  0  0  0  0  0  0  0  0
   12.7864    3.3725   -4.0084 C   0  0  0  0  0  0  0  0  0  0  0  0
   12.4038    4.0067   -5.3230 C   0  0  0  0  0  0  0  0  0  0  0  0
   13.6770    4.8172   -5.6134 C   0  0  0  0  0  0  0  0  0  0  0  0
   11.4292    5.1626   -4.9870 C   0  0  0  0  0  0  0  0  0  0  0  0
    6.1707    4.5827    1.3716 C   0  0  0  0  0  0  0  0  0  0  0  0
    5.3966    4.2909    2.4775 C   0  0  0  0  0  0  0  0  0  0  0  0
    4.1944    3.7288    1.9983 C   0  0  0  0  0  0  0  0  0  0  0  0
    3.0645    3.1632    2.6343 C   0  0  0  0  0  0  0  0  0  0  0  0
    2.8678    3.0969    4.0584 C   0  0  0  0  0  0  0  0  0  0  0  0
    2.0379    2.2514    4.7505 C   0  0  0  0  0  0  0  0  0  0  0  0
    2.0786    2.4867    6.1341 C   0  0  0  0  0  0  0  0  0  0  0  0
    1.3768    1.7436    7.0084 F   0  0  0  0  0  0  0  0  0  0  0  0
    2.9004    3.5004    6.5355 C   0  0  0  0  0  0  0  0  0  0  0  0
    3.1007    4.0316    7.9114 C   0  0  0  0  0  0  0  0  0  0  0  0
    2.1719    5.2198    8.1764 C   0  0  0  0  0  0  0  0  0  0  0  0
    3.6698    4.1928    5.1535 S   0  0  0  0  0  0  0  0  0  0  0  0
    2.1331    2.6412    1.7425 C   0  0  0  0  0  0  0  0  0  0  0  0
    2.2146    2.7391    0.3282 C   0  0  0  0  0  0  0  0  0  0  0  0
    3.3313    3.3142   -0.3101 C   0  0  0  0  0  0  0  0  0  0  0  0
    3.4917    3.4099   -1.7377 C   0  0  0  0  0  0  0  0  0  0  0  0
    2.1339    3.3316   -2.8324 S   0  0  0  0  0  0  0  0  0  0  0  0
    3.1443    3.5248   -4.2212 C   0  0  0  0  0  0  0  0  0  0  0  0
    2.5922    3.5579   -5.6036 C   0  0  0  0  0  0  0  0  0  0  0  0
    1.7335    4.8016   -5.8379 C   0  0  0  0  0  0  0  0  0  0  0  0
    4.4429    3.6469   -3.8209 C   0  0  0  0  0  0  0  0  0  0  0  0
    4.6578    3.5886   -2.4343 C   0  0  0  0  0  0  0  0  0  0  0  0
    5.4531    3.8117   -4.6953 F   0  0  0  0  0  0  0  0  0  0  0  0
    4.3145    3.7544    0.5801 C   0  0  0  0  0  0  0  0  0  0  0  0
    5.5043    4.2754    0.2296 O   0  0  0  0  0  0  0  0  0  0  0  0
    1.0564    2.0875   -0.1606 C   0  0  0  0  0  0  0  0  0  0  0  0
    0.3859    1.6016    0.9337 C   0  0  0  0  0  0  0  0  0  0  0  0
    1.0143    1.9664    2.0889 O   0  0  0  0  0  0  0  0  0  0  0  0
   -0.7788    0.8062    1.0919 C   0  0  0  0  0  0  0  0  0  0  0  0
   -1.4877    0.0005    0.2014 C   0  0  0  0  0  0  0  0  0  0  0  0
   -1.1259   -0.3689   -1.0722 N   0  0  0  0  0  0  0  0  0  0  0  0
    0.2082   -0.4088   -1.5076 C   0  0  0  0  0  0  0  0  0  0  0  0
    1.2619   -0.7097   -0.6494 C   0  0  0  0  0  0  0  0  0  0  0  0
    2.5711   -0.6144   -1.0804 C   0  0  0  0  0  0  0  0  0  0  0  0
    2.8490   -0.2149   -2.3803 C   0  0  0  0  0  0  0  0  0  0  0  0
    4.4819    0.0765   -2.9804 S   0  0  0  0  0  0  0  0  0  0  0  0
    5.4318    0.3710   -1.4615 C   0  0  0  0  0  0  0  0  0  0  0  0
    1.7948   -0.0160   -3.2709 C   0  0  0  0  0  0  0  0  0  0  0  0
    0.4904   -0.1130   -2.8430 C   0  0  0  0  0  0  0  0  0  0  0  0
   -2.0855   -1.0271   -1.8840 C   0  0  0  0  0  0  0  0  0  0  0  0
   -1.8693   -2.3508   -2.2660 C   0  0  0  0  0  0  0  0  0  0  0  0
   -2.8416   -3.0409   -2.9528 C   0  0  0  0  0  0  0  0  0  0  0  0
   -4.0441   -2.4175   -3.2858 C   0  0  0  0  0  0  0  0  0  0  0  0
   -5.2468   -3.4182   -4.0998 S   0  0  0  0  0  0  0  0  0  0  0  0
   -6.7989   -2.5007   -3.8749 C   0  0  0  0  0  0  0  0  0  0  0  0
   -4.2306   -1.0771   -2.9758 C   0  0  0  0  0  0  0  0  0  0  0  0
   -3.2566   -0.3873   -2.2736 C   0  0  0  0  0  0  0  0  0  0  0  0
   -2.6609   -0.4803    0.8390 C   0  0  0  0  0  0  0  0  0  0  0  0
   -4.0038   -1.4057    0.3003 S   0  0  0  0  0  0  0  0  0  0  0  0
   -4.7522   -1.3717    1.9057 C   0  0  0  0  0  0  0  0  0  0  0  0
   -3.8996   -0.7669    2.8394 C   0  0  0  0  0  0  0  0  0  0  0  0
   -3.9907   -0.7440    4.2157 N   0  0  0  0  0  0  0  0  0  0  0  0
   -4.3401   -1.8605    4.9679 C   0  0  0  0  0  0  0  0  0  0  0  0
   -4.2634   -3.1500    4.4360 C   0  0  0  0  0  0  0  0  0  0  0  0
   -4.6988   -4.2386    5.1584 C   0  0  0  0  0  0  0  0  0  0  0  0
   -5.2074   -4.0643    6.4407 C   0  0  0  0  0  0  0  0  0  0  0  0
   -5.8684   -5.3846    7.4005 S   0  0  0  0  0  0  0  0  0  0  0  0
   -6.3021   -6.6143    6.1359 C   0  0  0  0  0  0  0  0  0  0  0  0
   -5.1854   -2.7923    7.0187 C   0  0  0  0  0  0  0  0  0  0  0  0
   -4.7549   -1.7055    6.2970 C   0  0  0  0  0  0  0  0  0  0  0  0
   -3.4265    0.3785    4.8601 C   0  0  0  0  0  0  0  0  0  0  0  0
   -3.8098    1.6583    4.4732 C   0  0  0  0  0  0  0  0  0  0  0  0
   -3.2003    2.7716    5.0199 C   0  0  0  0  0  0  0  0  0  0  0  0
   -2.1948    2.6157    5.9649 C   0  0  0  0  0  0  0  0  0  0  0  0
   -1.2987    3.9495    6.6852 S   0  0  0  0  0  0  0  0  0  0  0  0
   -1.8768    5.4118    5.7768 C   0  0  0  0  0  0  0  0  0  0  0  0
   -1.8397    1.3345    6.3876 C   0  0  0  0  0  0  0  0  0  0  0  0
   -2.4456    0.2271    5.8408 C   0  0  0  0  0  0  0  0  0  0  0  0
   -2.7779   -0.1810    2.1843 C   0  0  0  0  0  0  0  0  0  0  0  0
   -1.4543    0.7945    2.7187 S   0  0  0  0  0  0  0  0  0  0  0  0
   -6.0430   -1.9774    1.9206 C   0  0  0  0  0  0  0  0  0  0  0  0
   -6.6111   -2.3344    0.6889 C   0  0  0  0  0  0  0  0  0  0  0  0
   -7.6323   -3.2482    0.5834 C   0  0  0  0  0  0  0  0  0  0  0  0
   -8.0838   -3.4958   -0.6719 F   0  0  0  0  0  0  0  0  0  0  0  0
   -8.1941   -3.9286    1.6652 C   0  0  0  0  0  0  0  0  0  0  0  0
   -7.8628   -3.3565    2.9163 C   0  0  0  0  0  0  0  0  0  0  0  0
   -6.8361   -2.3436    3.0409 C   0  0  0  0  0  0  0  0  0  0  0  0
   -6.7480   -1.8881    4.2850 N   0  0  0  0  0  0  0  0  0  0  0  0
   -7.7753   -2.6989    5.2218 S   0  0  0  0  0  0  0  0  0  0  0  0
   -8.4137   -3.6524    4.0891 N   0  0  0  0  0  0  0  0  0  0  0  0
   -9.0030   -5.1003    1.4861 C   0  0  0  0  0  0  0  0  0  0  0  0
   -8.7732   -5.9911    0.4883 C   0  0  0  0  0  0  0  0  0  0  0  0
   -9.8253   -6.8880   -0.0621 C   0  0  0  0  0  0  0  0  0  0  0  0
  -10.8413   -7.2509    0.4826 O   0  0  0  0  0  0  0  0  0  0  0  0
   -9.3897   -7.1635   -1.4507 C   0  0  0  0  0  0  0  0  0  0  0  0
  -10.1253   -7.7780   -2.4629 C   0  0  0  0  0  0  0  0  0  0  0  0
   -9.4792   -7.8260   -3.6759 C   0  0  0  0  0  0  0  0  0  0  0  0
   -8.1914   -7.3083   -3.8763 C   0  0  0  0  0  0  0  0  0  0  0  0
   -7.4467   -6.7087   -2.8903 C   0  0  0  0  0  0  0  0  0  0  0  0
   -8.0909   -6.6472   -1.6520 C   0  0  0  0  0  0  0  0  0  0  0  0
   -7.6238   -6.0788   -0.3988 C   0  0  0  0  0  0  0  0  0  0  0  0
   -6.3186   -5.8524   -0.0514 C   0  0  0  0  0  0  0  0  0  0  0  0
   -5.9163   -5.5330    1.2602 C   0  0  0  0  0  0  0  0  0  0  0  0
   -5.5279   -5.3304    2.3223 N   0  0  0  0  0  0  0  0  0  0  0  0
   -5.2216   -5.9533   -0.9302 C   0  0  0  0  0  0  0  0  0  0  0  0
   -4.2849   -5.9812   -1.5936 N   0  0  0  0  0  0  0  0  0  0  0  0
   -8.1858   -7.6657   -5.3404 C   0  0  0  0  0  0  0  0  0  0  0  0
   -8.4260   -6.5026   -6.3259 C   0  0  0  0  0  0  0  0  0  0  0  0
   -8.8448   -7.1922   -7.6040 C   0  0  0  0  0  0  0  0  0  0  0  0
  -10.0647   -7.6801   -7.4181 C   0  0  0  0  0  0  0  0  0  0  0  0
  -10.4918   -7.3273   -6.0113 C   0  0  0  0  0  0  0  0  0  0  0  0
   -9.7869   -5.9736   -5.8542 C   0  0  0  0  0  0  0  0  0  0  0  0
   -9.6219   -8.2404   -5.1204 C   0  0  0  0  0  0  0  0  0  0  0  0
    7.7483    5.6299    2.2798 H   0  0  0  0  0  0  0  0  0  0  0  0
    8.8738    3.7495   -3.6374 H   0  0  0  0  0  0  0  0  0  0  0  0
   11.8679    7.0402   -1.2123 H   0  0  0  0  0  0  0  0  0  0  0  0
   12.4030    7.1911   -4.5944 H   0  0  0  0  0  0  0  0  0  0  0  0
   14.5577    6.1041   -3.9844 H   0  0  0  0  0  0  0  0  0  0  0  0
   13.9702    4.1360   -2.3671 H   0  0  0  0  0  0  0  0  0  0  0  0
   12.4196    2.4198   -3.6741 H   0  0  0  0  0  0  0  0  0  0  0  0
   12.0520    3.3308   -6.0979 H   0  0  0  0  0  0  0  0  0  0  0  0
   14.5421    4.1859   -5.8106 H   0  0  0  0  0  0  0  0  0  0  0  0
   13.5572    5.5396   -6.4196 H   0  0  0  0  0  0  0  0  0  0  0  0
   10.8943    5.5227   -5.8636 H   0  0  0  0  0  0  0  0  0  0  0  0
    5.6910    4.4375    3.4959 H   0  0  0  0  0  0  0  0  0  0  0  0
    1.4331    1.4867    4.3030 H   0  0  0  0  0  0  0  0  0  0  0  0
    4.1394    4.3438    8.0382 H   0  0  0  0  0  0  0  0  0  0  0  0
    2.8835    3.2350    8.6265 H   0  0  0  0  0  0  0  0  0  0  0  0
    1.1335    4.9168    8.0607 H   0  0  0  0  0  0  0  0  0  0  0  0
    2.3818    6.0260    7.4766 H   0  0  0  0  0  0  0  0  0  0  0  0
    2.3182    5.5888    9.1879 H   0  0  0  0  0  0  0  0  0  0  0  0
    3.4281    3.5447   -6.3062 H   0  0  0  0  0  0  0  0  0  0  0  0
    1.9848    2.6652   -5.7749 H   0  0  0  0  0  0  0  0  0  0  0  0
    0.8979    4.8182   -5.1414 H   0  0  0  0  0  0  0  0  0  0  0  0
    2.3240    5.7033   -5.6922 H   0  0  0  0  0  0  0  0  0  0  0  0
    1.3433    4.8024   -6.8524 H   0  0  0  0  0  0  0  0  0  0  0  0
    5.6321    3.6317   -1.9864 H   0  0  0  0  0  0  0  0  0  0  0  0
    0.7545    1.9930   -1.1798 H   0  0  0  0  0  0  0  0  0  0  0  0
    1.0585   -1.0190    0.3646 H   0  0  0  0  0  0  0  0  0  0  0  0
    3.3673   -0.8443   -0.3905 H   0  0  0  0  0  0  0  0  0  0  0  0
    6.3215    0.9164   -1.7607 H   0  0  0  0  0  0  0  0  0  0  0  0
    4.8438    0.9822   -0.7837 H   0  0  0  0  0  0  0  0  0  0  0  0
    5.7109   -0.5730   -1.0016 H   0  0  0  0  0  0  0  0  0  0  0  0
    2.0172    0.2440   -4.2940 H   0  0  0  0  0  0  0  0  0  0  0  0
   -0.3228    0.0739   -3.5283 H   0  0  0  0  0  0  0  0  0  0  0  0
   -0.9485   -2.8400   -1.9859 H   0  0  0  0  0  0  0  0  0  0  0  0
   -2.7017   -4.0797   -3.2065 H   0  0  0  0  0  0  0  0  0  0  0  0
   -7.5860   -3.1694   -4.2097 H   0  0  0  0  0  0  0  0  0  0  0  0
   -6.9390   -2.2728   -2.8232 H   0  0  0  0  0  0  0  0  0  0  0  0
   -6.8016   -1.5993   -4.4805 H   0  0  0  0  0  0  0  0  0  0  0  0
   -5.1345   -0.5619   -3.2594 H   0  0  0  0  0  0  0  0  0  0  0  0
   -3.4134    0.6478   -2.0075 H   0  0  0  0  0  0  0  0  0  0  0  0
   -3.8857   -3.3068    3.4378 H   0  0  0  0  0  0  0  0  0  0  0  0
   -4.6513   -5.2114    4.7000 H   0  0  0  0  0  0  0  0  0  0  0  0
   -6.9566   -7.3272    6.6276 H   0  0  0  0  0  0  0  0  0  0  0  0
   -5.4104   -7.1207    5.7781 H   0  0  0  0  0  0  0  0  0  0  0  0
   -6.8274   -6.1246    5.3215 H   0  0  0  0  0  0  0  0  0  0  0  0
   -5.5380   -2.6706    8.0312 H   0  0  0  0  0  0  0  0  0  0  0  0
   -4.7887   -0.7207    6.7354 H   0  0  0  0  0  0  0  0  0  0  0  0
   -4.5826    1.7768    3.7278 H   0  0  0  0  0  0  0  0  0  0  0  0
   -3.5152    3.7498    4.6945 H   0  0  0  0  0  0  0  0  0  0  0  0
   -2.9273    5.5923    5.9860 H   0  0  0  0  0  0  0  0  0  0  0  0
   -1.2823    6.2414    6.1472 H   0  0  0  0  0  0  0  0  0  0  0  0
   -1.7005    5.2769    4.7137 H   0  0  0  0  0  0  0  0  0  0  0  0
   -1.0643    1.2216    7.1281 H   0  0  0  0  0  0  0  0  0  0  0  0
   -2.1457   -0.7630    6.1489 H   0  0  0  0  0  0  0  0  0  0  0  0
   -6.2166   -1.9347   -0.2319 H   0  0  0  0  0  0  0  0  0  0  0  0
   -9.8520   -5.2469    2.1402 H   0  0  0  0  0  0  0  0  0  0  0  0
  -11.1150   -8.1640   -2.2749 H   0  0  0  0  0  0  0  0  0  0  0  0
   -6.4656   -6.2927   -3.0534 H   0  0  0  0  0  0  0  0  0  0  0  0
   -7.3962   -8.3413   -5.6627 H   0  0  0  0  0  0  0  0  0  0  0  0
   -7.6064   -5.7924   -6.3962 H   0  0  0  0  0  0  0  0  0  0  0  0
   -8.2095   -7.2996   -8.4635 H   0  0  0  0  0  0  0  0  0  0  0  0
  -10.6521   -8.2766   -8.0912 H   0  0  0  0  0  0  0  0  0  0  0  0
  -11.5571   -7.3650   -5.7996 H   0  0  0  0  0  0  0  0  0  0  0  0
  -10.1915   -5.2194   -6.5275 H   0  0  0  0  0  0  0  0  0  0  0  0
   -9.7861   -5.5896   -4.8355 H   0  0  0  0  0  0  0  0  0  0  0  0
   -9.7936   -9.2999   -5.3004 H   0  0  0  0  0  0  0  0  0  0  0  0
  1  2  2  0  0  0  0
  2  3  1  0  0  0  0
  3  4  2  0  0  0  0
  3  5  1  0  0  0  0
  5  6  2  0  0  0  0
  6  7  1  0  0  0  0
  7  8  2  0  0  0  0
  8  9  1  0  0  0  0
  9 10  2  0  0  0  0
 10 11  1  0  0  0  0
 11 12  2  0  0  0  0
 12 13  1  0  0  0  0
 13 14  3  0  0  0  0
 12 15  1  0  0  0  0
 15 16  3  0  0  0  0
  8 17  1  0  0  0  0
 17 18  1  0  0  0  0
 18 19  1  0  0  0  0
 19 20  2  0  0  0  0
 20 21  1  0  0  0  0
 21 22  1  0  0  0  0
 21 23  1  0  0  0  0
  1 24  1  0  0  0  0
 24 25  2  0  0  0  0
 25 26  1  0  0  0  0
 26 27  2  0  0  0  0
 27 28  1  0  0  0  0
 28 29  2  0  0  0  0
 29 30  1  0  0  0  0
 30 31  1  0  0  0  0
 30 32  2  0  0  0  0
 32 33  1  0  0  0  0
 33 34  1  0  0  0  0
 32 35  1  0  0  0  0
 27 36  1  0  0  0  0
 36 37  2  0  0  0  0
 37 38  1  0  0  0  0
 38 39  1  0  0  0  0
 39 40  1  0  0  0  0
 40 41  1  0  0  0  0
 41 42  1  0  0  0  0
 42 43  1  0  0  0  0
 41 44  2  0  0  0  0
 44 45  1  0  0  0  0
 44 46  1  0  0  0  0
 38 47  2  0  0  0  0
 47 48  1  0  0  0  0
 37 49  1  0  0  0  0
 49 50  2  0  0  0  0
 50 51  1  0  0  0  0
 50 52  1  0  0  0  0
 52 53  2  0  0  0  0
 53 54  1  0  0  0  0
 54 55  1  0  0  0  0
 55 56  2  0  0  0  0
 56 57  1  0  0  0  0
 57 58  2  0  0  0  0
 58 59  1  0  0  0  0
 59 60  1  0  0  0  0
 58 61  1  0  0  0  0
 61 62  2  0  0  0  0
 54 63  1  0  0  0  0
 63 64  2  0  0  0  0
 64 65  1  0  0  0  0
 65 66  2  0  0  0  0
 66 67  1  0  0  0  0
 67 68  1  0  0  0  0
 66 69  1  0  0  0  0
 69 70  2  0  0  0  0
 53 71  1  0  0  0  0
 71 72  1  0  0  0  0
 72 73  1  0  0  0  0
 73 74  2  0  0  0  0
 74 75  1  0  0  0  0
 75 76  1  0  0  0  0
 76 77  2  0  0  0  0
 77 78  1  0  0  0  0
 78 79  2  0  0  0  0
 79 80  1  0  0  0  0
 80 81  1  0  0  0  0
 79 82  1  0  0  0  0
 82 83  2  0  0  0  0
 75 84  1  0  0  0  0
 84 85  2  0  0  0  0
 85 86  1  0  0  0  0
 86 87  2  0  0  0  0
 87 88  1  0  0  0  0
 88 89  1  0  0  0  0
 87 90  1  0  0  0  0
 90 91  2  0  0  0  0
 74 92  1  0  0  0  0
 92 93  1  0  0  0  0
 73 94  1  0  0  0  0
 94 95  2  0  0  0  0
 95 96  1  0  0  0  0
 96 97  1  0  0  0  0
 96 98  2  0  0  0  0
 98 99  1  0  0  0  0
 99100  1  0  0  0  0
100101  2  0  0  0  0
101102  1  0  0  0  0
102103  1  0  0  0  0
 98104  1  0  0  0  0
104105  2  0  0  0  0
105106  1  0  0  0  0
106107  2  0  0  0  0
106108  1  0  0  0  0
108109  2  0  0  0  0
109110  1  0  0  0  0
110111  2  0  0  0  0
111112  1  0  0  0  0
112113  2  0  0  0  0
113114  1  0  0  0  0
114115  2  0  0  0  0
115116  1  0  0  0  0
116117  3  0  0  0  0
115118  1  0  0  0  0
118119  3  0  0  0  0
111120  1  0  0  0  0
120121  1  0  0  0  0
121122  1  0  0  0  0
122123  2  0  0  0  0
123124  1  0  0  0  0
124125  1  0  0  0  0
124126  1  0  0  0  0
 11  2  1  0  0  0  0
 23 17  1  0  0  0  0
 48 24  1  0  0  0  0
 93 52  1  0  0  0  0
100 94  1  0  0  0  0
114105  1  0  0  0  0
126120  1  0  0  0  0
 10  5  1  0  0  0  0
 22 18  1  0  0  0  0
 47 26  1  0  0  0  0
 62 55  1  0  0  0  0
 70 63  1  0  0  0  0
 92 71  2  0  0  0  0
103 99  2  0  0  0  0
113108  1  0  0  0  0
125121  1  0  0  0  0
 23  7  1  0  0  0  0
 35 28  1  0  0  0  0
 51 36  1  0  0  0  0
 83 76  1  0  0  0  0
 91 84  1  0  0  0  0
126110  1  0  0  0  0
 45 39  2  0  0  0  0
  1127  1  0  0  0  0
  6128  1  0  0  0  0
  9129  1  0  0  0  0
 17130  1  0  0  0  0
 18131  1  0  0  0  0
 19132  1  0  0  0  0
 20133  1  0  0  0  0
 21134  1  0  0  0  0
 22135  1  0  0  0  0
 22136  1  0  0  0  0
 23137  1  0  0  0  0
 25138  1  0  0  0  0
 29139  1  0  0  0  0
 33140  1  0  0  0  0
 33141  1  0  0  0  0
 34142  1  0  0  0  0
 34143  1  0  0  0  0
 34144  1  0  0  0  0
 42145  1  0  0  0  0
 42146  1  0  0  0  0
 43147  1  0  0  0  0
 43148  1  0  0  0  0
 43149  1  0  0  0  0
 45150  1  0  0  0  0
 49151  1  0  0  0  0
 56152  1  0  0  0  0
 57153  1  0  0  0  0
 60154  1  0  0  0  0
 60155  1  0  0  0  0
 60156  1  0  0  0  0
 61157  1  0  0  0  0
 62158  1  0  0  0  0
 64159  1  0  0  0  0
 65160  1  0  0  0  0
 68161  1  0  0  0  0
 68162  1  0  0  0  0
 68163  1  0  0  0  0
 69164  1  0  0  0  0
 70165  1  0  0  0  0
 77166  1  0  0  0  0
 78167  1  0  0  0  0
 81168  1  0  0  0  0
 81169  1  0  0  0  0
 81170  1  0  0  0  0
 82171  1  0  0  0  0
 83172  1  0  0  0  0
 85173  1  0  0  0  0
 86174  1  0  0  0  0
 89175  1  0  0  0  0
 89176  1  0  0  0  0
 89177  1  0  0  0  0
 90178  1  0  0  0  0
 91179  1  0  0  0  0
 95180  1  0  0  0  0
104181  1  0  0  0  0
109182  1  0  0  0  0
112183  1  0  0  0  0
120184  1  0  0  0  0
121185  1  0  0  0  0
122186  1  0  0  0  0
123187  1  0  0  0  0
124188  1  0  0  0  0
125189  1  0  0  0  0
125190  1  0  0  0  0
126191  1  0  0  0  0
M  END
