
  xtb     02162201333D
 energy: -361.018066236339 gnorm: 0.000753229416 xtb: 6.4.1 (unknown)
216235  0     0  0            999 V2000
   -4.7615    4.0310    3.0387 C   0  0  0  0  0  0  0  0  0  0  0  0
   -6.0053    3.7973    3.5830 C   0  0  0  0  0  0  0  0  0  0  0  0
   -6.6459    2.4987    3.7865 C   0  0  0  0  0  0  0  0  0  0  0  0
   -6.1477    1.3885    3.6725 O   0  0  0  0  0  0  0  0  0  0  0  0
   -8.0308    2.7752    4.2023 C   0  0  0  0  0  0  0  0  0  0  0  0
   -9.0232    1.8408    4.4890 C   0  0  0  0  0  0  0  0  0  0  0  0
  -10.2296    2.3999    4.8369 C   0  0  0  0  0  0  0  0  0  0  0  0
  -10.4327    3.7845    4.8962 C   0  0  0  0  0  0  0  0  0  0  0  0
   -9.4573    4.7162    4.6256 C   0  0  0  0  0  0  0  0  0  0  0  0
   -8.2218    4.1693    4.2698 C   0  0  0  0  0  0  0  0  0  0  0  0
   -6.9516    4.8237    3.9539 C   0  0  0  0  0  0  0  0  0  0  0  0
   -6.7183    6.1751    4.0419 C   0  0  0  0  0  0  0  0  0  0  0  0
   -7.7056    7.1473    4.2969 C   0  0  0  0  0  0  0  0  0  0  0  0
   -8.4469    8.0076    4.4709 N   0  0  0  0  0  0  0  0  0  0  0  0
   -5.4591    6.7964    3.9562 C   0  0  0  0  0  0  0  0  0  0  0  0
   -4.4744    7.3911    3.9642 N   0  0  0  0  0  0  0  0  0  0  0  0
  -11.8788    3.6356    5.3003 C   0  0  0  0  0  0  0  0  0  0  0  0
  -12.9327    3.8707    4.1976 C   0  0  0  0  0  0  0  0  0  0  0  0
  -14.1758    3.2007    4.7374 C   0  0  0  0  0  0  0  0  0  0  0  0
  -13.9829    1.8890    4.6838 C   0  0  0  0  0  0  0  0  0  0  0  0
  -12.6061    1.6504    4.1073 C   0  0  0  0  0  0  0  0  0  0  0  0
  -12.5146    2.8391    3.1419 C   0  0  0  0  0  0  0  0  0  0  0  0
  -11.6510    2.0911    5.2367 C   0  0  0  0  0  0  0  0  0  0  0  0
   -3.8142    3.1451    2.5264 C   0  0  0  0  0  0  0  0  0  0  0  0
   -2.5932    3.5470    1.9304 C   0  0  0  0  0  0  0  0  0  0  0  0
   -2.1954    4.8311    1.6613 N   0  0  0  0  0  0  0  0  0  0  0  0
   -0.8135    5.1041    1.6763 C   0  0  0  0  0  0  0  0  0  0  0  0
   -0.2132    5.8207    0.6422 C   0  0  0  0  0  0  0  0  0  0  0  0
    1.1476    6.0224    0.6442 C   0  0  0  0  0  0  0  0  0  0  0  0
    1.9387    5.5082    1.6712 C   0  0  0  0  0  0  0  0  0  0  0  0
    3.6747    5.7682    1.5194 S   0  0  0  0  0  0  0  0  0  0  0  0
    4.3730    4.9351    2.9744 C   0  0  0  0  0  0  0  0  0  0  0  0
    1.3389    4.8307    2.7244 C   0  0  0  0  0  0  0  0  0  0  0  0
   -0.0281    4.6361    2.7260 C   0  0  0  0  0  0  0  0  0  0  0  0
   -3.0822    5.8338    1.2382 C   0  0  0  0  0  0  0  0  0  0  0  0
   -4.1789    5.5260    0.4302 C   0  0  0  0  0  0  0  0  0  0  0  0
   -5.0792    6.5078    0.0864 C   0  0  0  0  0  0  0  0  0  0  0  0
   -4.8920    7.8205    0.5186 C   0  0  0  0  0  0  0  0  0  0  0  0
   -6.1403    8.9937    0.0974 S   0  0  0  0  0  0  0  0  0  0  0  0
   -5.9073   10.2942    1.3431 C   0  0  0  0  0  0  0  0  0  0  0  0
   -3.7580    8.1440    1.2500 C   0  0  0  0  0  0  0  0  0  0  0  0
   -2.8663    7.1554    1.6170 C   0  0  0  0  0  0  0  0  0  0  0  0
   -1.7931    2.4304    1.6287 C   0  0  0  0  0  0  0  0  0  0  0  0
   -0.2547    2.2465    0.8663 S   0  0  0  0  0  0  0  0  0  0  0  0
   -0.3865    0.4887    0.9672 C   0  0  0  0  0  0  0  0  0  0  0  0
   -1.5856    0.0805    1.5362 C   0  0  0  0  0  0  0  0  0  0  0  0
   -2.0300   -1.2215    1.6859 N   0  0  0  0  0  0  0  0  0  0  0  0
   -1.7363   -2.2242    0.7538 C   0  0  0  0  0  0  0  0  0  0  0  0
   -1.7166   -3.5556    1.1658 C   0  0  0  0  0  0  0  0  0  0  0  0
   -1.4797   -4.5779    0.2709 C   0  0  0  0  0  0  0  0  0  0  0  0
   -1.2449   -4.2877   -1.0666 C   0  0  0  0  0  0  0  0  0  0  0  0
   -0.8601   -5.5061   -2.2856 S   0  0  0  0  0  0  0  0  0  0  0  0
   -1.0814   -7.0823   -1.4126 C   0  0  0  0  0  0  0  0  0  0  0  0
   -1.2646   -2.9598   -1.4879 C   0  0  0  0  0  0  0  0  0  0  0  0
   -1.5119   -1.9402   -0.5936 C   0  0  0  0  0  0  0  0  0  0  0  0
   -3.0070   -1.4771    2.6686 C   0  0  0  0  0  0  0  0  0  0  0  0
   -4.1168   -2.2736    2.3886 C   0  0  0  0  0  0  0  0  0  0  0  0
   -5.0936   -2.4656    3.3407 C   0  0  0  0  0  0  0  0  0  0  0  0
   -4.9911   -1.8559    4.5859 C   0  0  0  0  0  0  0  0  0  0  0  0
   -6.3044   -2.0854    5.7482 S   0  0  0  0  0  0  0  0  0  0  0  0
   -6.3912   -0.4293    6.4963 C   0  0  0  0  0  0  0  0  0  0  0  0
   -3.8768   -1.0860    4.8816 C   0  0  0  0  0  0  0  0  0  0  0  0
   -2.8954   -0.8977    3.9297 C   0  0  0  0  0  0  0  0  0  0  0  0
   -2.3705    1.2043    1.9199 C   0  0  0  0  0  0  0  0  0  0  0  0
   -3.9467    1.3842    2.6093 S   0  0  0  0  0  0  0  0  0  0  0  0
    0.7287   -0.1919    0.3778 C   0  0  0  0  0  0  0  0  0  0  0  0
    1.5012   -1.2761    0.7654 C   0  0  0  0  0  0  0  0  0  0  0  0
    1.2753   -2.1195    1.8466 N   0  0  0  0  0  0  0  0  0  0  0  0
    0.8397   -1.6283    3.0804 C   0  0  0  0  0  0  0  0  0  0  0  0
    0.1482   -2.4570    3.9620 C   0  0  0  0  0  0  0  0  0  0  0  0
   -0.2562   -2.0028    5.2003 C   0  0  0  0  0  0  0  0  0  0  0  0
    0.0016   -0.6916    5.5786 C   0  0  0  0  0  0  0  0  0  0  0  0
   -0.5215    0.0186    7.1087 S   0  0  0  0  0  0  0  0  0  0  0  0
   -1.2547   -1.3762    8.0086 C   0  0  0  0  0  0  0  0  0  0  0  0
    0.6827    0.1469    4.6987 C   0  0  0  0  0  0  0  0  0  0  0  0
    1.1053   -0.3147    3.4714 C   0  0  0  0  0  0  0  0  0  0  0  0
    1.6783   -3.4551    1.6984 C   0  0  0  0  0  0  0  0  0  0  0  0
    1.5410   -4.0722    0.4558 C   0  0  0  0  0  0  0  0  0  0  0  0
    2.0086   -5.3504    0.2397 C   0  0  0  0  0  0  0  0  0  0  0  0
    2.6237   -6.0447    1.2701 C   0  0  0  0  0  0  0  0  0  0  0  0
    3.3288   -7.6489    1.0231 S   0  0  0  0  0  0  0  0  0  0  0  0
    3.9558   -7.4883   -0.6792 C   0  0  0  0  0  0  0  0  0  0  0  0
    2.7215   -5.4581    2.5278 C   0  0  0  0  0  0  0  0  0  0  0  0
    2.2650   -4.1741    2.7398 C   0  0  0  0  0  0  0  0  0  0  0  0
    2.6272   -1.4251   -0.0891 C   0  0  0  0  0  0  0  0  0  0  0  0
    3.9437   -2.5441   -0.1603 S   0  0  0  0  0  0  0  0  0  0  0  0
    4.6156   -1.7195   -1.5720 C   0  0  0  0  0  0  0  0  0  0  0  0
    3.7985   -0.6627   -1.9949 C   0  0  0  0  0  0  0  0  0  0  0  0
    3.9286    0.1087   -3.1324 N   0  0  0  0  0  0  0  0  0  0  0  0
    3.5070    1.4491   -3.0700 C   0  0  0  0  0  0  0  0  0  0  0  0
    2.7426    1.9976   -4.0948 C   0  0  0  0  0  0  0  0  0  0  0  0
    2.3251    3.3121   -4.0353 C   0  0  0  0  0  0  0  0  0  0  0  0
    2.6590    4.0991   -2.9410 C   0  0  0  0  0  0  0  0  0  0  0  0
    2.1887    5.7876   -2.7651 S   0  0  0  0  0  0  0  0  0  0  0  0
    1.2490    6.1512   -4.2756 C   0  0  0  0  0  0  0  0  0  0  0  0
    3.4194    3.5531   -1.9079 C   0  0  0  0  0  0  0  0  0  0  0  0
    3.8434    2.2449   -1.9737 C   0  0  0  0  0  0  0  0  0  0  0  0
    4.3304   -0.4307   -4.3568 C   0  0  0  0  0  0  0  0  0  0  0  0
    4.0703   -1.7623   -4.6755 C   0  0  0  0  0  0  0  0  0  0  0  0
    4.5917   -2.3289   -5.8221 C   0  0  0  0  0  0  0  0  0  0  0  0
    5.3638   -1.5630   -6.6843 C   0  0  0  0  0  0  0  0  0  0  0  0
    6.1844   -2.2030   -8.1101 S   0  0  0  0  0  0  0  0  0  0  0  0
    6.0459   -4.0028   -7.9154 C   0  0  0  0  0  0  0  0  0  0  0  0
    5.5382   -0.2048   -6.4229 C   0  0  0  0  0  0  0  0  0  0  0  0
    5.0359    0.3550   -5.2727 C   0  0  0  0  0  0  0  0  0  0  0  0
    2.7070   -0.4943   -1.1091 C   0  0  0  0  0  0  0  0  0  0  0  0
    1.3975    0.6263   -1.0374 S   0  0  0  0  0  0  0  0  0  0  0  0
    5.8104   -2.2379   -2.1129 C   0  0  0  0  0  0  0  0  0  0  0  0
    6.3611   -3.4816   -1.7647 C   0  0  0  0  0  0  0  0  0  0  0  0
    5.8684   -4.2350   -0.7220 O   0  0  0  0  0  0  0  0  0  0  0  0
    6.6806   -4.1360    0.4520 C   0  0  0  0  0  0  0  0  0  0  0  0
    6.1000   -5.0362    1.5249 C   0  0  0  0  0  0  0  0  0  0  0  0
    7.4338   -3.8447   -2.5787 C   0  0  0  0  0  0  0  0  0  0  0  0
    8.1216   -4.9990   -2.5940 O   0  0  0  0  0  0  0  0  0  0  0  0
    7.4522   -6.2070   -2.2369 C   0  0  0  0  0  0  0  0  0  0  0  0
    8.1700   -7.3458   -2.9426 C   0  0  0  0  0  0  0  0  0  0  0  0
    7.7555   -2.8538   -3.5372 C   0  0  0  0  0  0  0  0  0  0  0  0
    6.7791   -1.4298   -3.3038 S   0  0  0  0  0  0  0  0  0  0  0  0
    8.5561   -3.1338   -4.6363 C   0  0  0  0  0  0  0  0  0  0  0  0
    8.8435   -2.3231   -5.7151 C   0  0  0  0  0  0  0  0  0  0  0  0
    8.6496   -0.8781   -5.7378 C   0  0  0  0  0  0  0  0  0  0  0  0
    8.1680   -0.1770   -4.8623 O   0  0  0  0  0  0  0  0  0  0  0  0
    9.1996   -0.4182   -7.0312 C   0  0  0  0  0  0  0  0  0  0  0  0
    9.2598    0.8626   -7.5356 C   0  0  0  0  0  0  0  0  0  0  0  0
    9.8169    1.0279   -8.7993 C   0  0  0  0  0  0  0  0  0  0  0  0
    9.9104    2.6088   -9.4814 Cl  0  0  0  0  0  0  0  0  0  0  0  0
   10.2982   -0.0548   -9.5230 C   0  0  0  0  0  0  0  0  0  0  0  0
   10.2300   -1.3415   -9.0066 C   0  0  0  0  0  0  0  0  0  0  0  0
    9.6747   -1.5283   -7.7518 C   0  0  0  0  0  0  0  0  0  0  0  0
    9.4283   -2.7354   -6.9636 C   0  0  0  0  0  0  0  0  0  0  0  0
    9.6110   -4.0271   -7.3984 C   0  0  0  0  0  0  0  0  0  0  0  0
   10.1611   -4.3697   -8.6484 C   0  0  0  0  0  0  0  0  0  0  0  0
   10.6036   -4.7163   -9.6504 N   0  0  0  0  0  0  0  0  0  0  0  0
    9.2035   -5.1742   -6.6916 C   0  0  0  0  0  0  0  0  0  0  0  0
    8.8492   -6.1507   -6.1980 N   0  0  0  0  0  0  0  0  0  0  0  0
   -4.4732    5.0720    2.9674 H   0  0  0  0  0  0  0  0  0  0  0  0
   -8.8243    0.7820    4.4300 H   0  0  0  0  0  0  0  0  0  0  0  0
   -9.6285    5.7783    4.6824 H   0  0  0  0  0  0  0  0  0  0  0  0
  -12.1536    4.0832    6.2536 H   0  0  0  0  0  0  0  0  0  0  0  0
  -13.0332    4.9040    3.8770 H   0  0  0  0  0  0  0  0  0  0  0  0
  -15.0170    3.7330    5.1411 H   0  0  0  0  0  0  0  0  0  0  0  0
  -14.6305    1.1067    5.0341 H   0  0  0  0  0  0  0  0  0  0  0  0
  -12.4090    0.6606    3.7043 H   0  0  0  0  0  0  0  0  0  0  0  0
  -11.5198    3.0021    2.7316 H   0  0  0  0  0  0  0  0  0  0  0  0
  -13.2360    2.7661    2.3297 H   0  0  0  0  0  0  0  0  0  0  0  0
  -11.7729    1.5090    6.1484 H   0  0  0  0  0  0  0  0  0  0  0  0
   -0.8172    6.2000   -0.1679 H   0  0  0  0  0  0  0  0  0  0  0  0
    1.6204    6.5595   -0.1623 H   0  0  0  0  0  0  0  0  0  0  0  0
    4.0236    5.4161    3.8833 H   0  0  0  0  0  0  0  0  0  0  0  0
    5.4490    5.0511    2.8884 H   0  0  0  0  0  0  0  0  0  0  0  0
    4.1134    3.8806    2.9586 H   0  0  0  0  0  0  0  0  0  0  0  0
    1.9191    4.4486    3.5485 H   0  0  0  0  0  0  0  0  0  0  0  0
   -0.4939    4.1076    3.5451 H   0  0  0  0  0  0  0  0  0  0  0  0
   -4.3327    4.5094    0.0997 H   0  0  0  0  0  0  0  0  0  0  0  0
   -5.9426    6.2710   -0.5162 H   0  0  0  0  0  0  0  0  0  0  0  0
   -5.0499   10.9115    1.0906 H   0  0  0  0  0  0  0  0  0  0  0  0
   -5.7907    9.8365    2.3208 H   0  0  0  0  0  0  0  0  0  0  0  0
   -6.8120   10.8935    1.3183 H   0  0  0  0  0  0  0  0  0  0  0  0
   -3.5718    9.1562    1.5676 H   0  0  0  0  0  0  0  0  0  0  0  0
   -2.0086    7.4053    2.2216 H   0  0  0  0  0  0  0  0  0  0  0  0
   -1.9023   -3.7921    2.2021 H   0  0  0  0  0  0  0  0  0  0  0  0
   -1.4693   -5.5924    0.6337 H   0  0  0  0  0  0  0  0  0  0  0  0
   -2.0980   -7.1556   -1.0380 H   0  0  0  0  0  0  0  0  0  0  0  0
   -0.9068   -7.8545   -2.1557 H   0  0  0  0  0  0  0  0  0  0  0  0
   -0.3571   -7.1724   -0.6076 H   0  0  0  0  0  0  0  0  0  0  0  0
   -1.0915   -2.7361   -2.5299 H   0  0  0  0  0  0  0  0  0  0  0  0
   -1.5583   -0.9224   -0.9484 H   0  0  0  0  0  0  0  0  0  0  0  0
   -4.2264   -2.7172    1.4102 H   0  0  0  0  0  0  0  0  0  0  0  0
   -5.9621   -3.0652    3.1168 H   0  0  0  0  0  0  0  0  0  0  0  0
   -5.6525   -0.3257    7.2861 H   0  0  0  0  0  0  0  0  0  0  0  0
   -6.2334    0.3027    5.7104 H   0  0  0  0  0  0  0  0  0  0  0  0
   -7.3885   -0.3316    6.9138 H   0  0  0  0  0  0  0  0  0  0  0  0
   -3.7744   -0.6099    5.8441 H   0  0  0  0  0  0  0  0  0  0  0  0
   -2.0427   -0.2782    4.1559 H   0  0  0  0  0  0  0  0  0  0  0  0
   -0.0727   -3.4733    3.6755 H   0  0  0  0  0  0  0  0  0  0  0  0
   -0.7888   -2.6776    5.8500 H   0  0  0  0  0  0  0  0  0  0  0  0
   -1.5566   -0.9753    8.9714 H   0  0  0  0  0  0  0  0  0  0  0  0
   -2.1232   -1.7529    7.4756 H   0  0  0  0  0  0  0  0  0  0  0  0
   -0.5116   -2.1553    8.1508 H   0  0  0  0  0  0  0  0  0  0  0  0
    0.8847    1.1652    4.9949 H   0  0  0  0  0  0  0  0  0  0  0  0
    1.6616    0.3413    2.8196 H   0  0  0  0  0  0  0  0  0  0  0  0
    1.0799   -3.5332   -0.3558 H   0  0  0  0  0  0  0  0  0  0  0  0
    1.9008   -5.7885   -0.7396 H   0  0  0  0  0  0  0  0  0  0  0  0
    3.1604   -7.6672   -1.3970 H   0  0  0  0  0  0  0  0  0  0  0  0
    4.7240   -8.2471   -0.7919 H   0  0  0  0  0  0  0  0  0  0  0  0
    4.3800   -6.4959   -0.8025 H   0  0  0  0  0  0  0  0  0  0  0  0
    3.1918   -6.0068    3.3294 H   0  0  0  0  0  0  0  0  0  0  0  0
    2.3975   -3.7134    3.7070 H   0  0  0  0  0  0  0  0  0  0  0  0
    2.4706    1.3868   -4.9428 H   0  0  0  0  0  0  0  0  0  0  0  0
    1.7336    3.7048   -4.8462 H   0  0  0  0  0  0  0  0  0  0  0  0
    0.9577    7.1937   -4.1924 H   0  0  0  0  0  0  0  0  0  0  0  0
    0.3634    5.5242   -4.3227 H   0  0  0  0  0  0  0  0  0  0  0  0
    1.8797    6.0148   -5.1491 H   0  0  0  0  0  0  0  0  0  0  0  0
    3.6780    4.1726   -1.0628 H   0  0  0  0  0  0  0  0  0  0  0  0
    4.4460    1.8290   -1.1800 H   0  0  0  0  0  0  0  0  0  0  0  0
    3.4803   -2.3696   -4.0050 H   0  0  0  0  0  0  0  0  0  0  0  0
    4.3948   -3.3692   -6.0252 H   0  0  0  0  0  0  0  0  0  0  0  0
    6.6666   -4.4323   -8.6962 H   0  0  0  0  0  0  0  0  0  0  0  0
    5.0162   -4.3188   -8.0551 H   0  0  0  0  0  0  0  0  0  0  0  0
    6.4210   -4.2980   -6.9391 H   0  0  0  0  0  0  0  0  0  0  0  0
    6.1088    0.3930   -7.1166 H   0  0  0  0  0  0  0  0  0  0  0  0
    5.2293    1.3920   -5.0494 H   0  0  0  0  0  0  0  0  0  0  0  0
    6.6922   -3.0927    0.7947 H   0  0  0  0  0  0  0  0  0  0  0  0
    7.7117   -4.4274    0.2112 H   0  0  0  0  0  0  0  0  0  0  0  0
    6.6989   -4.9570    2.4276 H   0  0  0  0  0  0  0  0  0  0  0  0
    6.0935   -6.0717    1.1955 H   0  0  0  0  0  0  0  0  0  0  0  0
    5.0799   -4.7336    1.7440 H   0  0  0  0  0  0  0  0  0  0  0  0
    6.4038   -6.1522   -2.5512 H   0  0  0  0  0  0  0  0  0  0  0  0
    7.4841   -6.3471   -1.1498 H   0  0  0  0  0  0  0  0  0  0  0  0
    8.1832   -7.1723   -4.0157 H   0  0  0  0  0  0  0  0  0  0  0  0
    7.6637   -8.2841   -2.7353 H   0  0  0  0  0  0  0  0  0  0  0  0
    9.1967   -7.4102   -2.5931 H   0  0  0  0  0  0  0  0  0  0  0  0
    8.9474   -4.1446   -4.6360 H   0  0  0  0  0  0  0  0  0  0  0  0
    8.8847    1.6989   -6.9671 H   0  0  0  0  0  0  0  0  0  0  0  0
   10.7274    0.1086  -10.4991 H   0  0  0  0  0  0  0  0  0  0  0  0
   10.6090   -2.1671   -9.5865 H   0  0  0  0  0  0  0  0  0  0  0  0
  1  2  2  0  0  0  0
  2  3  1  0  0  0  0
  3  4  2  0  0  0  0
  3  5  1  0  0  0  0
  5  6  2  0  0  0  0
  6  7  1  0  0  0  0
  7  8  2  0  0  0  0
  8  9  1  0  0  0  0
  9 10  2  0  0  0  0
 10 11  1  0  0  0  0
 11 12  2  0  0  0  0
 12 13  1  0  0  0  0
 13 14  3  0  0  0  0
 12 15  1  0  0  0  0
 15 16  3  0  0  0  0
  8 17  1  0  0  0  0
 17 18  1  0  0  0  0
 18 19  1  0  0  0  0
 19 20  2  0  0  0  0
 20 21  1  0  0  0  0
 21 22  1  0  0  0  0
 21 23  1  0  0  0  0
  1 24  1  0  0  0  0
 24 25  2  0  0  0  0
 25 26  1  0  0  0  0
 26 27  1  0  0  0  0
 27 28  2  0  0  0  0
 28 29  1  0  0  0  0
 29 30  2  0  0  0  0
 30 31  1  0  0  0  0
 31 32  1  0  0  0  0
 30 33  1  0  0  0  0
 33 34  2  0  0  0  0
 26 35  1  0  0  0  0
 35 36  2  0  0  0  0
 36 37  1  0  0  0  0
 37 38  2  0  0  0  0
 38 39  1  0  0  0  0
 39 40  1  0  0  0  0
 38 41  1  0  0  0  0
 41 42  2  0  0  0  0
 25 43  1  0  0  0  0
 43 44  1  0  0  0  0
 44 45  1  0  0  0  0
 45 46  2  0  0  0  0
 46 47  1  0  0  0  0
 47 48  1  0  0  0  0
 48 49  2  0  0  0  0
 49 50  1  0  0  0  0
 50 51  2  0  0  0  0
 51 52  1  0  0  0  0
 52 53  1  0  0  0  0
 51 54  1  0  0  0  0
 54 55  2  0  0  0  0
 47 56  1  0  0  0  0
 56 57  2  0  0  0  0
 57 58  1  0  0  0  0
 58 59  2  0  0  0  0
 59 60  1  0  0  0  0
 60 61  1  0  0  0  0
 59 62  1  0  0  0  0
 62 63  2  0  0  0  0
 46 64  1  0  0  0  0
 64 65  1  0  0  0  0
 45 66  1  0  0  0  0
 66 67  2  0  0  0  0
 67 68  1  0  0  0  0
 68 69  1  0  0  0  0
 69 70  2  0  0  0  0
 70 71  1  0  0  0  0
 71 72  2  0  0  0  0
 72 73  1  0  0  0  0
 73 74  1  0  0  0  0
 72 75  1  0  0  0  0
 75 76  2  0  0  0  0
 68 77  1  0  0  0  0
 77 78  2  0  0  0  0
 78 79  1  0  0  0  0
 79 80  2  0  0  0  0
 80 81  1  0  0  0  0
 81 82  1  0  0  0  0
 80 83  1  0  0  0  0
 83 84  2  0  0  0  0
 67 85  1  0  0  0  0
 85 86  1  0  0  0  0
 86 87  1  0  0  0  0
 87 88  2  0  0  0  0
 88 89  1  0  0  0  0
 89 90  1  0  0  0  0
 90 91  2  0  0  0  0
 91 92  1  0  0  0  0
 92 93  2  0  0  0  0
 93 94  1  0  0  0  0
 94 95  1  0  0  0  0
 93 96  1  0  0  0  0
 96 97  2  0  0  0  0
 89 98  1  0  0  0  0
 98 99  2  0  0  0  0
 99100  1  0  0  0  0
100101  2  0  0  0  0
101102  1  0  0  0  0
102103  1  0  0  0  0
101104  1  0  0  0  0
104105  2  0  0  0  0
 88106  1  0  0  0  0
106107  1  0  0  0  0
 87108  1  0  0  0  0
108109  2  0  0  0  0
109110  1  0  0  0  0
110111  1  0  0  0  0
111112  1  0  0  0  0
109113  1  0  0  0  0
113114  1  0  0  0  0
114115  1  0  0  0  0
115116  1  0  0  0  0
113117  2  0  0  0  0
117118  1  0  0  0  0
117119  1  0  0  0  0
119120  2  0  0  0  0
120121  1  0  0  0  0
121122  2  0  0  0  0
121123  1  0  0  0  0
123124  2  0  0  0  0
124125  1  0  0  0  0
125126  1  0  0  0  0
125127  2  0  0  0  0
127128  1  0  0  0  0
128129  2  0  0  0  0
129130  1  0  0  0  0
130131  2  0  0  0  0
131132  1  0  0  0  0
132133  3  0  0  0  0
131134  1  0  0  0  0
134135  3  0  0  0  0
 11  2  1  0  0  0  0
 23 17  1  0  0  0  0
 65 24  1  0  0  0  0
107 66  1  0  0  0  0
118108  1  0  0  0  0
130120  1  0  0  0  0
 10  5  1  0  0  0  0
 22 18  1  0  0  0  0
 34 27  1  0  0  0  0
 42 35  1  0  0  0  0
 64 43  2  0  0  0  0
 76 69  1  0  0  0  0
 84 77  1  0  0  0  0
106 85  2  0  0  0  0
129123  1  0  0  0  0
 23  7  1  0  0  0  0
 55 48  1  0  0  0  0
 63 56  1  0  0  0  0
 97 90  1  0  0  0  0
105 98  1  0  0  0  0
  1136  1  0  0  0  0
  6137  1  0  0  0  0
  9138  1  0  0  0  0
 17139  1  0  0  0  0
 18140  1  0  0  0  0
 19141  1  0  0  0  0
 20142  1  0  0  0  0
 21143  1  0  0  0  0
 22144  1  0  0  0  0
 22145  1  0  0  0  0
 23146  1  0  0  0  0
 28147  1  0  0  0  0
 29148  1  0  0  0  0
 32149  1  0  0  0  0
 32150  1  0  0  0  0
 32151  1  0  0  0  0
 33152  1  0  0  0  0
 34153  1  0  0  0  0
 36154  1  0  0  0  0
 37155  1  0  0  0  0
 40156  1  0  0  0  0
 40157  1  0  0  0  0
 40158  1  0  0  0  0
 41159  1  0  0  0  0
 42160  1  0  0  0  0
 49161  1  0  0  0  0
 50162  1  0  0  0  0
 53163  1  0  0  0  0
 53164  1  0  0  0  0
 53165  1  0  0  0  0
 54166  1  0  0  0  0
 55167  1  0  0  0  0
 57168  1  0  0  0  0
 58169  1  0  0  0  0
 61170  1  0  0  0  0
 61171  1  0  0  0  0
 61172  1  0  0  0  0
 62173  1  0  0  0  0
 63174  1  0  0  0  0
 70175  1  0  0  0  0
 71176  1  0  0  0  0
 74177  1  0  0  0  0
 74178  1  0  0  0  0
 74179  1  0  0  0  0
 75180  1  0  0  0  0
 76181  1  0  0  0  0
 78182  1  0  0  0  0
 79183  1  0  0  0  0
 82184  1  0  0  0  0
 82185  1  0  0  0  0
 82186  1  0  0  0  0
 83187  1  0  0  0  0
 84188  1  0  0  0  0
 91189  1  0  0  0  0
 92190  1  0  0  0  0
 95191  1  0  0  0  0
 95192  1  0  0  0  0
 95193  1  0  0  0  0
 96194  1  0  0  0  0
 97195  1  0  0  0  0
 99196  1  0  0  0  0
100197  1  0  0  0  0
103198  1  0  0  0  0
103199  1  0  0  0  0
103200  1  0  0  0  0
104201  1  0  0  0  0
105202  1  0  0  0  0
111203  1  0  0  0  0
111204  1  0  0  0  0
112205  1  0  0  0  0
112206  1  0  0  0  0
112207  1  0  0  0  0
115208  1  0  0  0  0
115209  1  0  0  0  0
116210  1  0  0  0  0
116211  1  0  0  0  0
116212  1  0  0  0  0
119213  1  0  0  0  0
124214  1  0  0  0  0
127215  1  0  0  0  0
128216  1  0  0  0  0
M  END
