
  xtb     02152207073D
 energy: -298.175501797050 gnorm: 0.000295999332 xtb: 6.4.1 (unknown)
177192  0     0  0            999 V2000
    2.9158   -4.0566   -5.3032 C   0  0  0  0  0  0  0  0  0  0  0  0
    2.0356   -4.6534   -6.1435 C   0  0  0  0  0  0  0  0  0  0  0  0
    2.5214   -5.6349   -7.1539 C   0  0  0  0  0  0  0  0  0  0  0  0
    3.6721   -5.8277   -7.4764 O   0  0  0  0  0  0  0  0  0  0  0  0
    1.3137   -6.3271   -7.6409 C   0  0  0  0  0  0  0  0  0  0  0  0
    1.2536   -7.3955   -8.5345 C   0  0  0  0  0  0  0  0  0  0  0  0
   -0.0213   -7.8371   -8.7957 C   0  0  0  0  0  0  0  0  0  0  0  0
   -1.1566   -7.2749   -8.1958 C   0  0  0  0  0  0  0  0  0  0  0  0
   -1.1146   -6.2215   -7.3147 C   0  0  0  0  0  0  0  0  0  0  0  0
    0.1718   -5.7402   -7.0550 C   0  0  0  0  0  0  0  0  0  0  0  0
    0.5927   -4.6032   -6.2433 C   0  0  0  0  0  0  0  0  0  0  0  0
   -0.2190   -3.5693   -5.8565 C   0  0  0  0  0  0  0  0  0  0  0  0
    0.2421   -2.3513   -5.3232 C   0  0  0  0  0  0  0  0  0  0  0  0
    0.5447   -1.3152   -4.9293 N   0  0  0  0  0  0  0  0  0  0  0  0
   -1.6198   -3.5529   -6.0111 C   0  0  0  0  0  0  0  0  0  0  0  0
   -2.7636   -3.4806   -6.0846 N   0  0  0  0  0  0  0  0  0  0  0  0
   -2.0982   -8.2082   -8.9143 C   0  0  0  0  0  0  0  0  0  0  0  0
   -2.8698   -7.6116  -10.1105 C   0  0  0  0  0  0  0  0  0  0  0  0
   -3.3169   -8.8241  -10.8944 C   0  0  0  0  0  0  0  0  0  0  0  0
   -2.2433   -9.3511  -11.4691 C   0  0  0  0  0  0  0  0  0  0  0  0
   -1.0523   -8.5035  -11.0833 C   0  0  0  0  0  0  0  0  0  0  0  0
   -1.7236   -7.1260  -11.0074 C   0  0  0  0  0  0  0  0  0  0  0  0
   -0.8340   -8.8298   -9.5900 C   0  0  0  0  0  0  0  0  0  0  0  0
    2.6496   -3.3278   -4.0962 C   0  0  0  0  0  0  0  0  0  0  0  0
    3.4495   -2.2473   -3.7209 C   0  0  0  0  0  0  0  0  0  0  0  0
    4.5022   -1.8634   -4.5132 O   0  0  0  0  0  0  0  0  0  0  0  0
    4.1794   -1.2632   -5.7636 C   0  0  0  0  0  0  0  0  0  0  0  0
    3.5098    0.0933   -5.5961 C   0  0  0  0  0  0  0  0  0  0  0  0
    3.1920   -1.4909   -2.5553 C   0  0  0  0  0  0  0  0  0  0  0  0
    3.8794   -0.3335   -2.3170 O   0  0  0  0  0  0  0  0  0  0  0  0
    5.2868   -0.3949   -2.1092 C   0  0  0  0  0  0  0  0  0  0  0  0
    5.6382   -1.0611   -0.7856 C   0  0  0  0  0  0  0  0  0  0  0  0
    2.1587   -1.8147   -1.6676 C   0  0  0  0  0  0  0  0  0  0  0  0
    1.3309   -2.9071   -2.0318 C   0  0  0  0  0  0  0  0  0  0  0  0
    1.5747   -3.6535   -3.2344 C   0  0  0  0  0  0  0  0  0  0  0  0
    0.6798   -4.6224   -3.4126 N   0  0  0  0  0  0  0  0  0  0  0  0
   -0.3886   -4.5735   -2.2074 S   0  0  0  0  0  0  0  0  0  0  0  0
    0.2404   -3.3339   -1.4016 N   0  0  0  0  0  0  0  0  0  0  0  0
    1.8832   -0.9900   -0.5294 C   0  0  0  0  0  0  0  0  0  0  0  0
    1.2110   -1.2919    0.6539 C   0  0  0  0  0  0  0  0  0  0  0  0
    0.8356   -2.5327    1.1297 N   0  0  0  0  0  0  0  0  0  0  0  0
    1.5764   -3.6887    0.9251 C   0  0  0  0  0  0  0  0  0  0  0  0
    2.9500   -3.6354    0.6966 C   0  0  0  0  0  0  0  0  0  0  0  0
    3.6744   -4.7838    0.4472 C   0  0  0  0  0  0  0  0  0  0  0  0
    3.0410   -6.0192    0.4366 C   0  0  0  0  0  0  0  0  0  0  0  0
    3.8514   -7.5521    0.1076 S   0  0  0  0  0  0  0  0  0  0  0  0
    5.5481   -7.0696   -0.3213 C   0  0  0  0  0  0  0  0  0  0  0  0
    1.6751   -6.0841    0.7093 C   0  0  0  0  0  0  0  0  0  0  0  0
    0.9525   -4.9394    0.9523 C   0  0  0  0  0  0  0  0  0  0  0  0
   -0.3770   -2.5648    1.8476 C   0  0  0  0  0  0  0  0  0  0  0  0
   -1.5197   -2.0063    1.2771 C   0  0  0  0  0  0  0  0  0  0  0  0
   -2.6809   -1.9108    2.0093 C   0  0  0  0  0  0  0  0  0  0  0  0
   -2.7177   -2.3568    3.3294 C   0  0  0  0  0  0  0  0  0  0  0  0
   -4.2210   -2.0856    4.2122 S   0  0  0  0  0  0  0  0  0  0  0  0
   -3.7441   -2.3427    5.9445 C   0  0  0  0  0  0  0  0  0  0  0  0
   -1.5994   -2.9720    3.8769 C   0  0  0  0  0  0  0  0  0  0  0  0
   -0.4367   -3.0780    3.1379 C   0  0  0  0  0  0  0  0  0  0  0  0
    0.9848   -0.1186    1.4148 C   0  0  0  0  0  0  0  0  0  0  0  0
    0.1476    0.2121    2.8921 S   0  0  0  0  0  0  0  0  0  0  0  0
    0.5233    1.9220    2.7453 C   0  0  0  0  0  0  0  0  0  0  0  0
    1.2399    2.2149    1.5922 C   0  0  0  0  0  0  0  0  0  0  0  0
    1.6114    3.4604    1.1147 N   0  0  0  0  0  0  0  0  0  0  0  0
    0.8751    4.6180    1.3563 C   0  0  0  0  0  0  0  0  0  0  0  0
   -0.5167    4.5845    1.4615 C   0  0  0  0  0  0  0  0  0  0  0  0
   -1.2123    5.6981    1.8758 C   0  0  0  0  0  0  0  0  0  0  0  0
   -0.5383    6.8790    2.1737 C   0  0  0  0  0  0  0  0  0  0  0  0
   -1.4858    8.2083    2.8483 S   0  0  0  0  0  0  0  0  0  0  0  0
   -0.2198    9.2172    3.6772 C   0  0  0  0  0  0  0  0  0  0  0  0
    0.8276    6.9578    1.9397 C   0  0  0  0  0  0  0  0  0  0  0  0
    1.5255    5.8387    1.5330 C   0  0  0  0  0  0  0  0  0  0  0  0
    2.8156    3.5220    0.3911 C   0  0  0  0  0  0  0  0  0  0  0  0
    3.9482    2.8618    0.8673 C   0  0  0  0  0  0  0  0  0  0  0  0
    5.0983    2.8289    0.1119 C   0  0  0  0  0  0  0  0  0  0  0  0
    5.1414    3.4605   -1.1288 C   0  0  0  0  0  0  0  0  0  0  0  0
    6.6442    3.3037   -2.0461 S   0  0  0  0  0  0  0  0  0  0  0  0
    6.1647    3.7943   -3.7277 C   0  0  0  0  0  0  0  0  0  0  0  0
    4.0355    4.1692   -1.5783 C   0  0  0  0  0  0  0  0  0  0  0  0
    2.8795    4.1964   -0.8232 C   0  0  0  0  0  0  0  0  0  0  0  0
    1.5015    1.0347    0.8509 C   0  0  0  0  0  0  0  0  0  0  0  0
    2.3500    0.7001   -0.6172 S   0  0  0  0  0  0  0  0  0  0  0  0
    0.0353    2.8311    3.7486 C   0  0  0  0  0  0  0  0  0  0  0  0
   -1.2225    2.6923    4.3274 C   0  0  0  0  0  0  0  0  0  0  0  0
   -2.0025    1.6038    3.9901 O   0  0  0  0  0  0  0  0  0  0  0  0
   -2.6813    1.6642    2.7407 C   0  0  0  0  0  0  0  0  0  0  0  0
   -3.7244    2.7703    2.6505 C   0  0  0  0  0  0  0  0  0  0  0  0
   -1.7599    3.6512    5.2358 C   0  0  0  0  0  0  0  0  0  0  0  0
   -2.9831    3.5314    5.7850 O   0  0  0  0  0  0  0  0  0  0  0  0
   -3.5091    2.2704    6.1972 C   0  0  0  0  0  0  0  0  0  0  0  0
   -2.5132    1.4157    6.9691 C   0  0  0  0  0  0  0  0  0  0  0  0
   -1.1021    4.8745    5.4411 C   0  0  0  0  0  0  0  0  0  0  0  0
    0.2083    4.9963    4.9185 C   0  0  0  0  0  0  0  0  0  0  0  0
    0.8126    3.9428    4.1602 C   0  0  0  0  0  0  0  0  0  0  0  0
    2.0985    4.1683    3.9150 N   0  0  0  0  0  0  0  0  0  0  0  0
    2.5032    5.5899    4.5512 S   0  0  0  0  0  0  0  0  0  0  0  0
    1.0627    5.9885    5.1623 N   0  0  0  0  0  0  0  0  0  0  0  0
   -1.6974    6.0409    6.0242 C   0  0  0  0  0  0  0  0  0  0  0  0
   -2.5590    6.1520    7.0761 C   0  0  0  0  0  0  0  0  0  0  0  0
   -2.6806    5.0594    8.0619 C   0  0  0  0  0  0  0  0  0  0  0  0
   -1.8469    4.1826    8.1792 O   0  0  0  0  0  0  0  0  0  0  0  0
   -3.7665    5.1094    8.9110 N   0  0  0  0  0  0  0  0  0  0  0  0
   -3.9537    3.9984    9.8380 C   0  0  0  0  0  0  0  0  0  0  0  0
   -3.2067    4.2396   11.1435 C   0  0  0  0  0  0  0  0  0  0  0  0
   -4.6377    6.1818    9.0363 C   0  0  0  0  0  0  0  0  0  0  0  0
   -5.5933    6.1279    9.7811 O   0  0  0  0  0  0  0  0  0  0  0  0
   -4.2938    7.3637    8.2349 C   0  0  0  0  0  0  0  0  0  0  0  0
   -3.2943    7.3663    7.3076 C   0  0  0  0  0  0  0  0  0  0  0  0
   -3.0102    8.5887    6.4948 C   0  0  0  0  0  0  0  0  0  0  0  0
   -5.0860    8.5075    8.4716 C   0  0  0  0  0  0  0  0  0  0  0  0
   -5.7178    9.4446    8.6669 N   0  0  0  0  0  0  0  0  0  0  0  0
    3.9655   -4.1902   -5.5512 H   0  0  0  0  0  0  0  0  0  0  0  0
    2.1521   -7.8086   -8.9656 H   0  0  0  0  0  0  0  0  0  0  0  0
   -1.9929   -5.8029   -6.8521 H   0  0  0  0  0  0  0  0  0  0  0  0
   -2.7160   -8.8422   -8.2814 H   0  0  0  0  0  0  0  0  0  0  0  0
   -3.6367   -6.8902   -9.8424 H   0  0  0  0  0  0  0  0  0  0  0  0
   -4.3256   -9.1931  -10.9051 H   0  0  0  0  0  0  0  0  0  0  0  0
   -2.1761  -10.2486  -12.0556 H   0  0  0  0  0  0  0  0  0  0  0  0
   -0.1652   -8.5952  -11.7041 H   0  0  0  0  0  0  0  0  0  0  0  0
   -2.0776   -6.7870  -11.9795 H   0  0  0  0  0  0  0  0  0  0  0  0
   -1.1038   -6.3533  -10.5564 H   0  0  0  0  0  0  0  0  0  0  0  0
   -0.6101   -9.8800   -9.4127 H   0  0  0  0  0  0  0  0  0  0  0  0
    5.1450   -1.1661   -6.2662 H   0  0  0  0  0  0  0  0  0  0  0  0
    3.5360   -1.9309   -6.3509 H   0  0  0  0  0  0  0  0  0  0  0  0
    2.5200   -0.0279   -5.1608 H   0  0  0  0  0  0  0  0  0  0  0  0
    4.1043    0.7266   -4.9419 H   0  0  0  0  0  0  0  0  0  0  0  0
    3.4116    0.5720   -6.5666 H   0  0  0  0  0  0  0  0  0  0  0  0
    5.7709   -0.9171   -2.9391 H   0  0  0  0  0  0  0  0  0  0  0  0
    5.6017    0.6507   -2.1010 H   0  0  0  0  0  0  0  0  0  0  0  0
    6.7126   -1.0170   -0.6312 H   0  0  0  0  0  0  0  0  0  0  0  0
    5.1421   -0.5467    0.0346 H   0  0  0  0  0  0  0  0  0  0  0  0
    5.3258   -2.1041   -0.7930 H   0  0  0  0  0  0  0  0  0  0  0  0
    3.4589   -2.6844    0.7209 H   0  0  0  0  0  0  0  0  0  0  0  0
    4.7352   -4.7008    0.2718 H   0  0  0  0  0  0  0  0  0  0  0  0
    6.0359   -6.6145    0.5358 H   0  0  0  0  0  0  0  0  0  0  0  0
    6.0552   -7.9926   -0.5848 H   0  0  0  0  0  0  0  0  0  0  0  0
    5.5371   -6.3982   -1.1750 H   0  0  0  0  0  0  0  0  0  0  0  0
    1.1882   -7.0473    0.7146 H   0  0  0  0  0  0  0  0  0  0  0  0
   -0.1090   -4.9995    1.1372 H   0  0  0  0  0  0  0  0  0  0  0  0
   -1.4753   -1.6454    0.2609 H   0  0  0  0  0  0  0  0  0  0  0  0
   -3.5710   -1.4837    1.5722 H   0  0  0  0  0  0  0  0  0  0  0  0
   -3.5693   -3.3975    6.1368 H   0  0  0  0  0  0  0  0  0  0  0  0
   -4.5870   -1.9988    6.5358 H   0  0  0  0  0  0  0  0  0  0  0  0
   -2.8641   -1.7468    6.1666 H   0  0  0  0  0  0  0  0  0  0  0  0
   -1.6151   -3.3591    4.8828 H   0  0  0  0  0  0  0  0  0  0  0  0
    0.4392   -3.5378    3.5709 H   0  0  0  0  0  0  0  0  0  0  0  0
   -1.0461    3.6731    1.2338 H   0  0  0  0  0  0  0  0  0  0  0  0
   -2.2856    5.6673    1.9851 H   0  0  0  0  0  0  0  0  0  0  0  0
    0.3682    9.7622    2.9444 H   0  0  0  0  0  0  0  0  0  0  0  0
    0.4075    8.5742    4.2889 H   0  0  0  0  0  0  0  0  0  0  0  0
   -0.7630    9.9216    4.2997 H   0  0  0  0  0  0  0  0  0  0  0  0
    1.3652    7.8789    2.0981 H   0  0  0  0  0  0  0  0  0  0  0  0
    2.5953    5.8946    1.3973 H   0  0  0  0  0  0  0  0  0  0  0  0
    3.9076    2.3716    1.8282 H   0  0  0  0  0  0  0  0  0  0  0  0
    5.9745    2.3087    0.4676 H   0  0  0  0  0  0  0  0  0  0  0  0
    6.0079    4.8680   -3.7784 H   0  0  0  0  0  0  0  0  0  0  0  0
    5.2722    3.2509   -4.0232 H   0  0  0  0  0  0  0  0  0  0  0  0
    6.9989    3.5165   -4.3645 H   0  0  0  0  0  0  0  0  0  0  0  0
    4.0550    4.6915   -2.5211 H   0  0  0  0  0  0  0  0  0  0  0  0
    2.0118    4.7282   -1.1846 H   0  0  0  0  0  0  0  0  0  0  0  0
   -1.9557    1.7735    1.9243 H   0  0  0  0  0  0  0  0  0  0  0  0
   -3.1488    0.6813    2.6540 H   0  0  0  0  0  0  0  0  0  0  0  0
   -4.5315    2.6095    3.3603 H   0  0  0  0  0  0  0  0  0  0  0  0
   -4.1428    2.7827    1.6475 H   0  0  0  0  0  0  0  0  0  0  0  0
   -3.2728    3.7390    2.8544 H   0  0  0  0  0  0  0  0  0  0  0  0
   -3.9032    1.7102    5.3445 H   0  0  0  0  0  0  0  0  0  0  0  0
   -4.3451    2.5606    6.8417 H   0  0  0  0  0  0  0  0  0  0  0  0
   -1.7981    0.9538    6.2936 H   0  0  0  0  0  0  0  0  0  0  0  0
   -1.9755    2.0365    7.6820 H   0  0  0  0  0  0  0  0  0  0  0  0
   -3.0503    0.6351    7.5019 H   0  0  0  0  0  0  0  0  0  0  0  0
   -1.4179    6.9478    5.5029 H   0  0  0  0  0  0  0  0  0  0  0  0
   -5.0260    3.9119   10.0245 H   0  0  0  0  0  0  0  0  0  0  0  0
   -3.5818    3.0963    9.3503 H   0  0  0  0  0  0  0  0  0  0  0  0
   -3.5731    5.1442   11.6233 H   0  0  0  0  0  0  0  0  0  0  0  0
   -3.3623    3.4005   11.8160 H   0  0  0  0  0  0  0  0  0  0  0  0
   -2.1413    4.3432   10.9508 H   0  0  0  0  0  0  0  0  0  0  0  0
   -3.6194    9.4219    6.8359 H   0  0  0  0  0  0  0  0  0  0  0  0
   -1.9591    8.8608    6.5841 H   0  0  0  0  0  0  0  0  0  0  0  0
   -3.2276    8.4087    5.4423 H   0  0  0  0  0  0  0  0  0  0  0  0
  1  2  2  0  0  0  0
  2  3  1  0  0  0  0
  3  4  2  0  0  0  0
  3  5  1  0  0  0  0
  5  6  2  0  0  0  0
  6  7  1  0  0  0  0
  7  8  2  0  0  0  0
  8  9  1  0  0  0  0
  9 10  2  0  0  0  0
 10 11  1  0  0  0  0
 11 12  2  0  0  0  0
 12 13  1  0  0  0  0
 13 14  3  0  0  0  0
 12 15  1  0  0  0  0
 15 16  3  0  0  0  0
  8 17  1  0  0  0  0
 17 18  1  0  0  0  0
 18 19  1  0  0  0  0
 19 20  2  0  0  0  0
 20 21  1  0  0  0  0
 21 22  1  0  0  0  0
 21 23  1  0  0  0  0
  1 24  1  0  0  0  0
 24 25  2  0  0  0  0
 25 26  1  0  0  0  0
 26 27  1  0  0  0  0
 27 28  1  0  0  0  0
 25 29  1  0  0  0  0
 29 30  1  0  0  0  0
 30 31  1  0  0  0  0
 31 32  1  0  0  0  0
 29 33  2  0  0  0  0
 33 34  1  0  0  0  0
 34 35  1  0  0  0  0
 35 36  2  0  0  0  0
 36 37  1  0  0  0  0
 37 38  1  0  0  0  0
 33 39  1  0  0  0  0
 39 40  2  0  0  0  0
 40 41  1  0  0  0  0
 41 42  1  0  0  0  0
 42 43  2  0  0  0  0
 43 44  1  0  0  0  0
 44 45  2  0  0  0  0
 45 46  1  0  0  0  0
 46 47  1  0  0  0  0
 45 48  1  0  0  0  0
 48 49  2  0  0  0  0
 41 50  1  0  0  0  0
 50 51  2  0  0  0  0
 51 52  1  0  0  0  0
 52 53  2  0  0  0  0
 53 54  1  0  0  0  0
 54 55  1  0  0  0  0
 53 56  1  0  0  0  0
 56 57  2  0  0  0  0
 40 58  1  0  0  0  0
 58 59  1  0  0  0  0
 59 60  1  0  0  0  0
 60 61  2  0  0  0  0
 61 62  1  0  0  0  0
 62 63  1  0  0  0  0
 63 64  2  0  0  0  0
 64 65  1  0  0  0  0
 65 66  2  0  0  0  0
 66 67  1  0  0  0  0
 67 68  1  0  0  0  0
 66 69  1  0  0  0  0
 69 70  2  0  0  0  0
 62 71  1  0  0  0  0
 71 72  2  0  0  0  0
 72 73  1  0  0  0  0
 73 74  2  0  0  0  0
 74 75  1  0  0  0  0
 75 76  1  0  0  0  0
 74 77  1  0  0  0  0
 77 78  2  0  0  0  0
 61 79  1  0  0  0  0
 79 80  1  0  0  0  0
 60 81  1  0  0  0  0
 81 82  2  0  0  0  0
 82 83  1  0  0  0  0
 83 84  1  0  0  0  0
 84 85  1  0  0  0  0
 82 86  1  0  0  0  0
 86 87  1  0  0  0  0
 87 88  1  0  0  0  0
 88 89  1  0  0  0  0
 86 90  2  0  0  0  0
 90 91  1  0  0  0  0
 91 92  1  0  0  0  0
 92 93  2  0  0  0  0
 93 94  1  0  0  0  0
 94 95  1  0  0  0  0
 90 96  1  0  0  0  0
 96 97  2  0  0  0  0
 97 98  1  0  0  0  0
 98 99  2  0  0  0  0
 98100  1  0  0  0  0
100101  1  0  0  0  0
101102  1  0  0  0  0
100103  1  0  0  0  0
103104  2  0  0  0  0
103105  1  0  0  0  0
105106  2  0  0  0  0
106107  1  0  0  0  0
105108  1  0  0  0  0
108109  3  0  0  0  0
 11  2  1  0  0  0  0
 23 17  1  0  0  0  0
 35 24  1  0  0  0  0
 80 39  1  0  0  0  0
 92 81  1  0  0  0  0
106 97  1  0  0  0  0
 10  5  1  0  0  0  0
 22 18  1  0  0  0  0
 38 34  2  0  0  0  0
 49 42  1  0  0  0  0
 57 50  1  0  0  0  0
 79 58  2  0  0  0  0
 95 91  2  0  0  0  0
 23  7  1  0  0  0  0
 70 63  1  0  0  0  0
 78 71  1  0  0  0  0
  1110  1  0  0  0  0
  6111  1  0  0  0  0
  9112  1  0  0  0  0
 17113  1  0  0  0  0
 18114  1  0  0  0  0
 19115  1  0  0  0  0
 20116  1  0  0  0  0
 21117  1  0  0  0  0
 22118  1  0  0  0  0
 22119  1  0  0  0  0
 23120  1  0  0  0  0
 27121  1  0  0  0  0
 27122  1  0  0  0  0
 28123  1  0  0  0  0
 28124  1  0  0  0  0
 28125  1  0  0  0  0
 31126  1  0  0  0  0
 31127  1  0  0  0  0
 32128  1  0  0  0  0
 32129  1  0  0  0  0
 32130  1  0  0  0  0
 43131  1  0  0  0  0
 44132  1  0  0  0  0
 47133  1  0  0  0  0
 47134  1  0  0  0  0
 47135  1  0  0  0  0
 48136  1  0  0  0  0
 49137  1  0  0  0  0
 51138  1  0  0  0  0
 52139  1  0  0  0  0
 55140  1  0  0  0  0
 55141  1  0  0  0  0
 55142  1  0  0  0  0
 56143  1  0  0  0  0
 57144  1  0  0  0  0
 64145  1  0  0  0  0
 65146  1  0  0  0  0
 68147  1  0  0  0  0
 68148  1  0  0  0  0
 68149  1  0  0  0  0
 69150  1  0  0  0  0
 70151  1  0  0  0  0
 72152  1  0  0  0  0
 73153  1  0  0  0  0
 76154  1  0  0  0  0
 76155  1  0  0  0  0
 76156  1  0  0  0  0
 77157  1  0  0  0  0
 78158  1  0  0  0  0
 84159  1  0  0  0  0
 84160  1  0  0  0  0
 85161  1  0  0  0  0
 85162  1  0  0  0  0
 85163  1  0  0  0  0
 88164  1  0  0  0  0
 88165  1  0  0  0  0
 89166  1  0  0  0  0
 89167  1  0  0  0  0
 89168  1  0  0  0  0
 96169  1  0  0  0  0
101170  1  0  0  0  0
101171  1  0  0  0  0
102172  1  0  0  0  0
102173  1  0  0  0  0
102174  1  0  0  0  0
107175  1  0  0  0  0
107176  1  0  0  0  0
107177  1  0  0  0  0
M  END
