218

C         -5.04280       -5.86780        2.85270
C         -4.56280       -6.89960        3.62370
C         -5.38010       -8.11250        3.83350
O         -6.52040       -8.30280        3.46030
C         -4.48610       -9.08530        4.49390
C         -4.76760      -10.41150        4.81170
C         -3.70920      -11.09390        5.36180
C         -2.46240      -10.49940        5.59020
C         -2.17740       -9.18580        5.30150
C         -3.23800       -8.47850        4.73250
C         -3.30350       -7.08780        4.28390
C         -2.41090       -6.10250        4.64650
C         -1.20660       -6.32530        5.33400
N         -0.18330       -6.39280        5.85690
C         -2.60140       -4.72090        4.46310
N         -2.68030       -3.57670        4.38410
C         -1.86980      -11.76850        6.15020
C         -1.72790      -11.84480        7.68500
C         -1.58780      -13.32400        7.96260
C         -2.76920      -13.88830        7.74750
C         -3.72790      -12.79990        7.32140
C         -3.17610      -11.62670        8.14180
C         -3.26190      -12.43150        5.89720
C         -4.33570       -4.87580        2.16660
C         -3.00070       -4.80650        1.71100
N         -2.11120       -5.83990        1.62400
C         -0.75740       -5.55570        1.25880
C          0.22070       -5.36900        2.22790
C          1.53050       -5.16670        1.84930
C          1.87960       -5.11370        0.50050
S          3.57420       -4.80520        0.14340
C          3.66040       -4.85730       -1.66670
C          0.90040       -5.30050       -0.46650
C         -0.40650       -5.53640       -0.08440
C         -2.46400       -7.19750        1.55670
C         -1.58350       -8.15940        2.05820
C         -1.93520       -9.49000        2.06440
C         -3.17430       -9.89640        1.57330
S         -3.58900      -11.59780        1.73770
C         -5.38180      -11.61420        1.44550
C         -4.01070       -8.95590        0.98470
C         -3.65400       -7.62320        0.97240
C         -2.68600       -3.48670        1.31900
S         -1.20880       -2.66490        0.93250
C         -2.04070       -1.12290        0.91300
C         -3.39410       -1.25310        1.17920
N         -4.24440       -0.15170        1.34940
C         -5.24430        0.10290        0.42110
C         -5.08970       -0.33070       -0.89620
C         -6.04330       -0.04850       -1.85180
C         -7.18760        0.65180       -1.50210
S         -8.43110        1.11060       -2.68410
C         -8.32940       -0.22190       -3.91320
C         -7.37070        1.05110       -0.18250
C         -6.41260        0.78290        0.76890
C         -4.08610        0.57520        2.54110
C         -4.25330        1.95610        2.55180
C         -4.09030        2.67750        3.71820
C         -3.75750        2.02570        4.89760
S         -3.51860        2.84110        6.44740
C         -4.10540        4.53270        6.14180
C         -3.57550        0.64500        4.88730
C         -3.72670       -0.07460        3.72250
C         -3.74880       -2.59270        1.40330
S         -5.20900       -3.35860        1.88660
C         -1.37050        0.06360        0.52090
C         -0.00320        0.30400        0.54490
N          0.91480       -0.48960        1.21370
C          0.64960       -0.86750        2.53980
C          1.10030       -2.08850        3.03210
C          0.82200       -2.47760        4.32730
C          0.08950       -1.64370        5.16120
S         -0.32700       -2.03370        6.82670
C          0.75350       -3.43660        7.23020
C         -0.35880       -0.41720        4.67380
C         -0.08950       -0.03440        3.38000
C          2.10500       -0.82400        0.56500
C          3.30180       -0.96410        1.26290
C          4.46400       -1.31130        0.60520
C          4.45490       -1.51410       -0.76770
S          5.88430       -1.97960       -1.69740
C          7.00450       -2.63740       -0.42800
C          3.26920       -1.34340       -1.47630
C          2.10610       -1.01270       -0.81840
C          0.31450        1.49200       -0.15110
S          1.79040        2.28990       -0.55270
C          0.89830        3.55370       -1.39980
C         -0.47690        3.32070       -1.41220
N         -1.44150        4.01870       -2.10790
C         -2.73830        4.08220       -1.55800
C         -3.85320        3.80230       -2.34190
C         -5.12540        3.88710       -1.81170
C         -5.30000        4.27820       -0.49020
S         -6.87290        4.44400        0.28650
C         -8.03270        4.52300       -1.10550
C         -4.18390        4.55710        0.29720
C         -2.91450        4.44910       -0.22490
C         -1.18890        4.66750       -3.32280
C         -1.84820        5.86350       -3.61760
C         -1.52130        6.57750       -4.74680
C         -0.52740        6.12210       -5.61170
S         -0.11420        7.16820       -6.96890
C          1.55370        6.62200       -7.42960
C          0.07450        4.89480       -5.36400
C         -0.25650        4.17500       -4.23250
C         -0.78780        2.15940       -0.66120
S         -2.26850        1.35760       -0.26010
C          1.63670        4.60040       -2.01350
S          3.27020        4.27920       -2.57900
C          3.35540        5.85250       -3.29260
C          4.29700        6.52370       -4.06010
C          3.83820        7.76700       -4.46590
S          2.20840        8.09560       -3.85670
C          2.17000        6.57040       -3.06540
C          1.21790        5.87930       -2.31800
C          4.40580        8.72230       -5.33070
C          5.70980        8.88150       -5.71190
C          6.91840        8.33010       -5.05540
O          7.00140        7.40990       -4.26910
C          8.03760        9.17260       -5.52470
C          9.36310        9.10710       -5.10260
C         10.18810       10.02650       -5.70500
C          9.73210       10.94450       -6.66090
C          8.42880       11.01560       -7.09250
C          7.57350       10.09040       -6.48850
C          6.14990        9.85350       -6.69290
C          5.38350       10.34580       -7.71810
C          5.83350       11.28270       -8.66940
N          6.14150       12.05300       -9.46330
C          4.07890        9.89210       -8.00050
N          3.04220        9.51200       -8.31770
C         11.09470       11.56920       -6.82740
C         11.35180       12.93470       -6.14350
C         10.41850       13.00440       -4.96030
C         10.84760       12.13580       -4.05460
C         12.07970       11.46390       -4.60850
C         12.67470       12.62130       -5.42640
C         11.60240       10.54700       -5.76210
H         -6.12310       -5.83800        2.74500
H         -5.74270      -10.83470        4.62600
H         -1.21120       -8.74080        5.47480
H         -1.00370      -12.16170        5.62120
H         -0.96650      -11.19290        8.10480
H         -0.66110      -13.80050        8.22410
H         -3.02640      -14.93030        7.79360
H         -4.78830      -13.01970        7.41220
H         -3.29740      -11.78000        9.21290
H         -3.58760      -10.65820        7.86380
H         -3.32100      -13.26250        5.19690
H         -0.04200       -5.38420        3.27340
H          2.30170       -5.05360        2.59600
H          4.69620       -4.65420       -1.92020
H          3.02740       -4.08020       -2.08390
H          3.37770       -5.84380       -2.02220
H          1.13990       -5.27260       -1.51670
H         -1.16610       -5.69830       -0.83520
H         -0.63270       -7.85550        2.46890
H         -1.26640      -10.22790        2.47920
H         -5.85140      -10.82630        2.02670
H         -5.72680      -12.58610        1.78410
H         -5.59150      -11.50110        0.38570
H         -4.94650       -9.24520        0.53580
H         -4.31250       -6.90760        0.50480
H         -4.19970       -0.87470       -1.17740
H         -5.87980       -0.37040       -2.86850
H         -9.24550       -0.16600       -4.49290
H         -7.47340       -0.07200       -4.56520
H         -8.26820       -1.17590       -3.39870
H         -8.27540        1.56980        0.09470
H         -6.57290        1.09060        1.79000
H         -4.50610        2.46650        1.63560
H         -4.22430        3.74690        3.69010
H         -4.08660        5.02730        7.10800
H         -3.43770        5.04510        5.45510
H         -5.12140        4.50590        5.75910
H         -3.32530        0.13680        5.80580
H         -3.57540       -1.14250        3.74170
H          1.66050       -2.74250        2.38260
H          1.17120       -3.43780        4.67150
H          0.43500       -4.33500        6.70820
H          1.78160       -3.18260        6.99040
H          0.64930       -3.58400        8.30070
H         -0.91460        0.23730        5.32570
H         -0.44560        0.92020        3.02130
H          3.32180       -0.79210        2.32830
H          5.37390       -1.41060        1.17430
H          7.79880       -3.14410       -0.96740
H          7.42330       -1.82700        0.16160
H          6.46440       -3.34340        0.19630
H          3.27110       -1.48250       -2.54730
H          1.18290       -0.91270       -1.37050
H         -3.71640        3.51480       -3.37370
H         -5.97200        3.64280       -2.43230
H         -8.12120        3.55300       -1.58620
H         -7.70270        5.28340       -1.80670
H         -8.98810        4.80570       -0.67470
H         -4.32920        4.87880        1.31680
H         -2.05190        4.66850        0.38740
H         -2.59250        6.24460       -2.93410
H         -2.00870        7.51620       -4.95900
H          2.13920        6.45120       -6.53120
H          1.98220        7.44260       -7.99900
H          1.50560        5.72590       -8.04170
H          0.80910        4.49300       -6.04400
H          0.22380        3.22570       -4.04680
H          5.25980        6.13450       -4.33000
H          0.27680        6.29180       -2.01000
H          3.69340        9.44640       -5.71220
H          9.67520        8.38320       -4.36610
H          8.08670       11.72770       -7.82530
H         11.52220       11.51860       -7.82680
H         11.33690       13.78680       -6.81770
H          9.53650       13.61700       -4.92860
H         10.39550       11.87760       -3.11490
H         12.72770       10.97760       -3.88400
H         13.02040       13.44390       -4.80220
H         13.47140       12.31130       -6.10120
H         12.36410        9.83100       -6.06480
