
  xtb     02172222193D
 energy: -327.424683899991 gnorm: 0.000631694151 xtb: 6.4.1 (unknown)
199217  0     0  0            999 V2000
   -1.9811    6.0661   -1.2100 C   0  0  0  0  0  0  0  0  0  0  0  0
   -3.3069    6.4068   -1.1383 C   0  0  0  0  0  0  0  0  0  0  0  0
   -3.9419    7.0932   -2.2891 C   0  0  0  0  0  0  0  0  0  0  0  0
   -3.3991    7.7904   -3.1185 O   0  0  0  0  0  0  0  0  0  0  0  0
   -5.3575    6.6586   -2.2520 C   0  0  0  0  0  0  0  0  0  0  0  0
   -6.3280    6.8425   -3.2331 C   0  0  0  0  0  0  0  0  0  0  0  0
   -7.5265    6.2238   -2.9611 C   0  0  0  0  0  0  0  0  0  0  0  0
   -7.7554    5.4868   -1.7921 C   0  0  0  0  0  0  0  0  0  0  0  0
   -6.8159    5.3159   -0.8032 C   0  0  0  0  0  0  0  0  0  0  0  0
   -5.5891    5.9228   -1.0702 C   0  0  0  0  0  0  0  0  0  0  0  0
   -4.3609    5.9261   -0.2828 C   0  0  0  0  0  0  0  0  0  0  0  0
   -4.2692    5.7248    1.0750 C   0  0  0  0  0  0  0  0  0  0  0  0
   -5.2947    5.1827    1.8643 C   0  0  0  0  0  0  0  0  0  0  0  0
   -6.0767    4.6850    2.5453 N   0  0  0  0  0  0  0  0  0  0  0  0
   -3.1078    6.0631    1.8006 C   0  0  0  0  0  0  0  0  0  0  0  0
   -2.1916    6.3748    2.4191 N   0  0  0  0  0  0  0  0  0  0  0  0
   -9.1563    5.1133   -2.2039 C   0  0  0  0  0  0  0  0  0  0  0  0
   -9.3890    3.6788   -2.7391 C   0  0  0  0  0  0  0  0  0  0  0  0
   -8.0774    3.2183   -3.3231 C   0  0  0  0  0  0  0  0  0  0  0  0
   -7.8606    3.9140   -4.4310 C   0  0  0  0  0  0  0  0  0  0  0  0
   -9.0233    4.8583   -4.6162 C   0  0  0  0  0  0  0  0  0  0  0  0
  -10.1594    4.0056   -4.0282 C   0  0  0  0  0  0  0  0  0  0  0  0
   -8.9028    5.9340   -3.5078 C   0  0  0  0  0  0  0  0  0  0  0  0
   -1.3685    4.9345   -0.6521 C   0  0  0  0  0  0  0  0  0  0  0  0
   -0.1028    4.4061   -0.9939 C   0  0  0  0  0  0  0  0  0  0  0  0
    0.8853    5.1447   -1.5822 N   0  0  0  0  0  0  0  0  0  0  0  0
    1.8314    4.5682   -2.4417 C   0  0  0  0  0  0  0  0  0  0  0  0
    3.1430    5.0465   -2.4511 C   0  0  0  0  0  0  0  0  0  0  0  0
    4.0525    4.5578   -3.3594 C   0  0  0  0  0  0  0  0  0  0  0  0
    3.6837    3.5704   -4.2731 C   0  0  0  0  0  0  0  0  0  0  0  0
    4.9053    3.0986   -5.4528 S   0  0  0  0  0  0  0  0  0  0  0  0
    4.1790    1.6665   -6.2903 C   0  0  0  0  0  0  0  0  0  0  0  0
    2.3930    3.0605   -4.2359 C   0  0  0  0  0  0  0  0  0  0  0  0
    1.4743    3.5602   -3.3327 C   0  0  0  0  0  0  0  0  0  0  0  0
    0.9709    6.5302   -1.3160 C   0  0  0  0  0  0  0  0  0  0  0  0
    1.2287    7.4265   -2.3474 C   0  0  0  0  0  0  0  0  0  0  0  0
    1.2932    8.7837   -2.0984 C   0  0  0  0  0  0  0  0  0  0  0  0
    1.0943    9.2640   -0.8105 C   0  0  0  0  0  0  0  0  0  0  0  0
    1.1420   10.9708   -0.3763 S   0  0  0  0  0  0  0  0  0  0  0  0
    1.1646   11.8250   -1.9786 C   0  0  0  0  0  0  0  0  0  0  0  0
    0.8529    8.3637    0.2273 C   0  0  0  0  0  0  0  0  0  0  0  0
    0.7957    7.0114   -0.0189 C   0  0  0  0  0  0  0  0  0  0  0  0
   -0.0027    3.0467   -0.6146 C   0  0  0  0  0  0  0  0  0  0  0  0
    1.1605    1.7629   -0.7625 S   0  0  0  0  0  0  0  0  0  0  0  0
    0.1266    0.6512    0.1459 C   0  0  0  0  0  0  0  0  0  0  0  0
   -1.0448    1.2626    0.5471 C   0  0  0  0  0  0  0  0  0  0  0  0
   -2.0046    0.7623    1.4620 N   0  0  0  0  0  0  0  0  0  0  0  0
   -3.3520    0.9166    1.1104 C   0  0  0  0  0  0  0  0  0  0  0  0
   -4.3515    0.6655    2.0520 C   0  0  0  0  0  0  0  0  0  0  0  0
   -5.6796    0.8842    1.7538 C   0  0  0  0  0  0  0  0  0  0  0  0
   -6.0434    1.3631    0.5026 C   0  0  0  0  0  0  0  0  0  0  0  0
   -7.7233    1.7302    0.0736 S   0  0  0  0  0  0  0  0  0  0  0  0
   -8.3890    2.3570    1.6436 C   0  0  0  0  0  0  0  0  0  0  0  0
   -5.0686    1.5204   -0.4719 C   0  0  0  0  0  0  0  0  0  0  0  0
   -3.7438    1.2787   -0.1794 C   0  0  0  0  0  0  0  0  0  0  0  0
   -1.6157    1.1351    2.7872 C   0  0  0  0  0  0  0  0  0  0  0  0
   -2.2640    2.1545    3.4777 C   0  0  0  0  0  0  0  0  0  0  0  0
   -1.8505    2.5345    4.7394 C   0  0  0  0  0  0  0  0  0  0  0  0
   -0.7607    1.9110    5.3313 C   0  0  0  0  0  0  0  0  0  0  0  0
   -0.1499    2.2999    6.9402 S   0  0  0  0  0  0  0  0  0  0  0  0
   -1.1237    3.7477    7.4375 C   0  0  0  0  0  0  0  0  0  0  0  0
   -0.0830    0.9181    4.6285 C   0  0  0  0  0  0  0  0  0  0  0  0
   -0.4993    0.5418    3.3692 C   0  0  0  0  0  0  0  0  0  0  0  0
   -1.1072    2.5917    0.0877 C   0  0  0  0  0  0  0  0  0  0  0  0
   -2.3187    3.7884    0.2826 S   0  0  0  0  0  0  0  0  0  0  0  0
    0.6353   -0.6524    0.4130 C   0  0  0  0  0  0  0  0  0  0  0  0
    0.0076   -1.8474    0.7605 C   0  0  0  0  0  0  0  0  0  0  0  0
   -1.3484   -2.1191    0.8190 N   0  0  0  0  0  0  0  0  0  0  0  0
   -2.2498   -1.7637   -0.1874 C   0  0  0  0  0  0  0  0  0  0  0  0
   -3.6191   -1.8810    0.0520 C   0  0  0  0  0  0  0  0  0  0  0  0
   -4.5433   -1.5877   -0.9286 C   0  0  0  0  0  0  0  0  0  0  0  0
   -4.1193   -1.1379   -2.1713 C   0  0  0  0  0  0  0  0  0  0  0  0
   -5.2066   -0.6695   -3.4794 S   0  0  0  0  0  0  0  0  0  0  0  0
   -6.8664   -0.8591   -2.7729 C   0  0  0  0  0  0  0  0  0  0  0  0
   -2.7536   -1.0195   -2.4183 C   0  0  0  0  0  0  0  0  0  0  0  0
   -1.8293   -1.3337   -1.4456 C   0  0  0  0  0  0  0  0  0  0  0  0
   -1.7337   -3.1168    1.7467 C   0  0  0  0  0  0  0  0  0  0  0  0
   -2.3559   -4.2923    1.3245 C   0  0  0  0  0  0  0  0  0  0  0  0
   -2.6870   -5.2666    2.2377 C   0  0  0  0  0  0  0  0  0  0  0  0
   -2.4015   -5.0949    3.5922 C   0  0  0  0  0  0  0  0  0  0  0  0
   -2.8535   -6.4231    4.6605 S   0  0  0  0  0  0  0  0  0  0  0  0
   -2.3940   -5.8341    6.3155 C   0  0  0  0  0  0  0  0  0  0  0  0
   -1.7879   -3.9248    4.0164 C   0  0  0  0  0  0  0  0  0  0  0  0
   -1.4597   -2.9450    3.0982 C   0  0  0  0  0  0  0  0  0  0  0  0
    0.9764   -2.8535    1.0239 C   0  0  0  0  0  0  0  0  0  0  0  0
    0.8849   -4.5056    1.5294 S   0  0  0  0  0  0  0  0  0  0  0  0
    2.6285   -4.6758    1.3813 C   0  0  0  0  0  0  0  0  0  0  0  0
    3.2497   -3.4872    1.0305 C   0  0  0  0  0  0  0  0  0  0  0  0
    4.6066   -3.2376    0.9439 N   0  0  0  0  0  0  0  0  0  0  0  0
    5.5456   -3.8999    1.7306 C   0  0  0  0  0  0  0  0  0  0  0  0
    6.8214   -4.1695    1.2297 C   0  0  0  0  0  0  0  0  0  0  0  0
    7.6990   -4.9518    1.9457 C   0  0  0  0  0  0  0  0  0  0  0  0
    7.3316   -5.4787    3.1814 C   0  0  0  0  0  0  0  0  0  0  0  0
    8.4813   -6.5630    3.9689 S   0  0  0  0  0  0  0  0  0  0  0  0
    7.4315   -7.4981    5.1180 C   0  0  0  0  0  0  0  0  0  0  0  0
    6.1038   -5.1309    3.7285 C   0  0  0  0  0  0  0  0  0  0  0  0
    5.2250   -4.3433    3.0126 C   0  0  0  0  0  0  0  0  0  0  0  0
    5.0081   -2.3394   -0.0619 C   0  0  0  0  0  0  0  0  0  0  0  0
    5.8965   -1.3060    0.2113 C   0  0  0  0  0  0  0  0  0  0  0  0
    6.2045   -0.3738   -0.7611 C   0  0  0  0  0  0  0  0  0  0  0  0
    5.6230   -0.4633   -2.0191 C   0  0  0  0  0  0  0  0  0  0  0  0
    5.8864    0.6941   -3.3199 S   0  0  0  0  0  0  0  0  0  0  0  0
    6.8397    2.0265   -2.5489 C   0  0  0  0  0  0  0  0  0  0  0  0
    4.7672   -1.5253   -2.3076 C   0  0  0  0  0  0  0  0  0  0  0  0
    4.4651   -2.4563   -1.3416 C   0  0  0  0  0  0  0  0  0  0  0  0
    2.2883   -2.4658    0.8195 C   0  0  0  0  0  0  0  0  0  0  0  0
    2.3900   -0.8139    0.3329 S   0  0  0  0  0  0  0  0  0  0  0  0
    3.2326   -5.9499    1.6572 C   0  0  0  0  0  0  0  0  0  0  0  0
    4.3444   -6.4199    0.9285 C   0  0  0  0  0  0  0  0  0  0  0  0
    4.9739   -5.9231   -0.1482 N   0  0  0  0  0  0  0  0  0  0  0  0
    5.9490   -6.7566   -0.3614 N   0  0  0  0  0  0  0  0  0  0  0  0
    6.8658   -6.5932   -1.4522 C   0  0  0  0  0  0  0  0  0  0  0  0
    6.7423   -7.7619   -2.4228 C   0  0  0  0  0  0  0  0  0  0  0  0
    6.0492   -7.7648    0.4546 N   0  0  0  0  0  0  0  0  0  0  0  0
    5.0218   -7.6190    1.2958 C   0  0  0  0  0  0  0  0  0  0  0  0
    4.5901   -8.4068    2.3859 C   0  0  0  0  0  0  0  0  0  0  0  0
    3.4525   -7.9419    3.0453 C   0  0  0  0  0  0  0  0  0  0  0  0
    2.7879   -6.7773    2.6823 C   0  0  0  0  0  0  0  0  0  0  0  0
    5.2505   -9.5924    2.8323 C   0  0  0  0  0  0  0  0  0  0  0  0
    6.1467  -10.3685    2.1643 C   0  0  0  0  0  0  0  0  0  0  0  0
    6.5466  -10.2963    0.8125 C   0  0  0  0  0  0  0  0  0  0  0  0
    6.8874  -10.4204   -0.2768 N   0  0  0  0  0  0  0  0  0  0  0  0
    6.7164  -11.4758    2.8381 C   0  0  0  0  0  0  0  0  0  0  0  0
    7.1757  -12.3605    3.4048 N   0  0  0  0  0  0  0  0  0  0  0  0
   -1.4049    6.6178   -1.9435 H   0  0  0  0  0  0  0  0  0  0  0  0
   -6.1177    7.4148   -4.1233 H   0  0  0  0  0  0  0  0  0  0  0  0
   -6.9899    4.7371    0.0882 H   0  0  0  0  0  0  0  0  0  0  0  0
   -9.9541    5.4436   -1.5413 H   0  0  0  0  0  0  0  0  0  0  0  0
   -9.8537    3.0007   -2.0286 H   0  0  0  0  0  0  0  0  0  0  0  0
   -7.4412    2.4951   -2.8495 H   0  0  0  0  0  0  0  0  0  0  0  0
   -7.0003    3.8892   -5.0743 H   0  0  0  0  0  0  0  0  0  0  0  0
   -9.1637    5.2566   -5.6180 H   0  0  0  0  0  0  0  0  0  0  0  0
  -10.3745    3.1212   -4.6261 H   0  0  0  0  0  0  0  0  0  0  0  0
  -11.0778    4.5656   -3.8562 H   0  0  0  0  0  0  0  0  0  0  0  0
   -9.5365    6.7984   -3.6975 H   0  0  0  0  0  0  0  0  0  0  0  0
    3.4364    5.8122   -1.7490 H   0  0  0  0  0  0  0  0  0  0  0  0
    5.0603    4.9434   -3.3806 H   0  0  0  0  0  0  0  0  0  0  0  0
    3.3085    1.9694   -6.8649 H   0  0  0  0  0  0  0  0  0  0  0  0
    3.9348    0.9075   -5.5536 H   0  0  0  0  0  0  0  0  0  0  0  0
    4.9514    1.2969   -6.9572 H   0  0  0  0  0  0  0  0  0  0  0  0
    2.0794    2.2911   -4.9222 H   0  0  0  0  0  0  0  0  0  0  0  0
    0.4605    3.1887   -3.3451 H   0  0  0  0  0  0  0  0  0  0  0  0
    1.3687    7.0590   -3.3534 H   0  0  0  0  0  0  0  0  0  0  0  0
    1.4899    9.4527   -2.9199 H   0  0  0  0  0  0  0  0  0  0  0  0
    1.0659   12.8811   -1.7474 H   0  0  0  0  0  0  0  0  0  0  0  0
    2.1078   11.6481   -2.4875 H   0  0  0  0  0  0  0  0  0  0  0  0
    0.3213   11.4972   -2.5790 H   0  0  0  0  0  0  0  0  0  0  0  0
    0.7088    8.7389    1.2282 H   0  0  0  0  0  0  0  0  0  0  0  0
    0.6006    6.3256    0.7914 H   0  0  0  0  0  0  0  0  0  0  0  0
   -4.0804    0.3029    3.0323 H   0  0  0  0  0  0  0  0  0  0  0  0
   -6.4274    0.6915    2.5069 H   0  0  0  0  0  0  0  0  0  0  0  0
   -7.6576    3.0172    2.1021 H   0  0  0  0  0  0  0  0  0  0  0  0
   -9.2883    2.9098    1.3895 H   0  0  0  0  0  0  0  0  0  0  0  0
   -8.6409    1.5313    2.3029 H   0  0  0  0  0  0  0  0  0  0  0  0
   -5.3461    1.8489   -1.4622 H   0  0  0  0  0  0  0  0  0  0  0  0
   -3.0157    1.3686   -0.9692 H   0  0  0  0  0  0  0  0  0  0  0  0
   -3.0992    2.6681    3.0249 H   0  0  0  0  0  0  0  0  0  0  0  0
   -2.3812    3.3301    5.2358 H   0  0  0  0  0  0  0  0  0  0  0  0
   -1.0003    4.5426    6.7080 H   0  0  0  0  0  0  0  0  0  0  0  0
   -2.1687    3.4745    7.5525 H   0  0  0  0  0  0  0  0  0  0  0  0
   -0.7173    4.0577    8.3953 H   0  0  0  0  0  0  0  0  0  0  0  0
    0.7801    0.4515    5.0789 H   0  0  0  0  0  0  0  0  0  0  0  0
    0.0605   -0.1987    2.8214 H   0  0  0  0  0  0  0  0  0  0  0  0
   -3.9664   -2.2042    1.0211 H   0  0  0  0  0  0  0  0  0  0  0  0
   -5.5911   -1.6943   -0.7013 H   0  0  0  0  0  0  0  0  0  0  0  0
   -7.0525   -1.9027   -2.5367 H   0  0  0  0  0  0  0  0  0  0  0  0
   -7.5503   -0.5291   -3.5490 H   0  0  0  0  0  0  0  0  0  0  0  0
   -6.9755   -0.2284   -1.8952 H   0  0  0  0  0  0  0  0  0  0  0  0
   -2.4244   -0.6819   -3.3895 H   0  0  0  0  0  0  0  0  0  0  0  0
   -0.7767   -1.2597   -1.6719 H   0  0  0  0  0  0  0  0  0  0  0  0
   -2.5670   -4.4373    0.2757 H   0  0  0  0  0  0  0  0  0  0  0  0
   -3.1601   -6.1806    1.9136 H   0  0  0  0  0  0  0  0  0  0  0  0
   -2.9401   -4.9256    6.5514 H   0  0  0  0  0  0  0  0  0  0  0  0
   -1.3208   -5.6771    6.3718 H   0  0  0  0  0  0  0  0  0  0  0  0
   -2.6862   -6.6266    6.9975 H   0  0  0  0  0  0  0  0  0  0  0  0
   -1.5590   -3.7575    5.0563 H   0  0  0  0  0  0  0  0  0  0  0  0
   -0.9889   -2.0357    3.4380 H   0  0  0  0  0  0  0  0  0  0  0  0
    7.0983   -3.7990    0.2544 H   0  0  0  0  0  0  0  0  0  0  0  0
    8.6719   -5.1905    1.5439 H   0  0  0  0  0  0  0  0  0  0  0  0
    8.0169   -8.3609    5.4208 H   0  0  0  0  0  0  0  0  0  0  0  0
    6.5332   -7.8195    4.5987 H   0  0  0  0  0  0  0  0  0  0  0  0
    7.1880   -6.8956    5.9887 H   0  0  0  0  0  0  0  0  0  0  0  0
    5.8183   -5.4711    4.7111 H   0  0  0  0  0  0  0  0  0  0  0  0
    4.2716   -4.0836    3.4472 H   0  0  0  0  0  0  0  0  0  0  0  0
    6.3339   -1.2246    1.1954 H   0  0  0  0  0  0  0  0  0  0  0  0
    6.8860    0.4255   -0.5192 H   0  0  0  0  0  0  0  0  0  0  0  0
    6.2870    2.4286   -1.7048 H   0  0  0  0  0  0  0  0  0  0  0  0
    6.9460    2.7840   -3.3194 H   0  0  0  0  0  0  0  0  0  0  0  0
    7.8185    1.6627   -2.2499 H   0  0  0  0  0  0  0  0  0  0  0  0
    4.3415   -1.6031   -3.2963 H   0  0  0  0  0  0  0  0  0  0  0  0
    3.8028   -3.2807   -1.5596 H   0  0  0  0  0  0  0  0  0  0  0  0
    7.8777   -6.5570   -1.0400 H   0  0  0  0  0  0  0  0  0  0  0  0
    6.6229   -5.6413   -1.9282 H   0  0  0  0  0  0  0  0  0  0  0  0
    7.4797   -7.6630   -3.2137 H   0  0  0  0  0  0  0  0  0  0  0  0
    6.9112   -8.6971   -1.8929 H   0  0  0  0  0  0  0  0  0  0  0  0
    5.7507   -7.7836   -2.8688 H   0  0  0  0  0  0  0  0  0  0  0  0
    3.0697   -8.5144    3.8786 H   0  0  0  0  0  0  0  0  0  0  0  0
    1.9172   -6.4742    3.2458 H   0  0  0  0  0  0  0  0  0  0  0  0
    4.9848   -9.9232    3.8318 H   0  0  0  0  0  0  0  0  0  0  0  0
  1  2  2  0  0  0  0
  2  3  1  0  0  0  0
  3  4  2  0  0  0  0
  3  5  1  0  0  0  0
  5  6  2  0  0  0  0
  6  7  1  0  0  0  0
  7  8  2  0  0  0  0
  8  9  1  0  0  0  0
  9 10  2  0  0  0  0
 10 11  1  0  0  0  0
 11 12  2  0  0  0  0
 12 13  1  0  0  0  0
 13 14  3  0  0  0  0
 12 15  1  0  0  0  0
 15 16  3  0  0  0  0
  8 17  1  0  0  0  0
 17 18  1  0  0  0  0
 18 19  1  0  0  0  0
 19 20  2  0  0  0  0
 20 21  1  0  0  0  0
 21 22  1  0  0  0  0
 21 23  1  0  0  0  0
  1 24  1  0  0  0  0
 24 25  2  0  0  0  0
 25 26  1  0  0  0  0
 26 27  1  0  0  0  0
 27 28  2  0  0  0  0
 28 29  1  0  0  0  0
 29 30  2  0  0  0  0
 30 31  1  0  0  0  0
 31 32  1  0  0  0  0
 30 33  1  0  0  0  0
 33 34  2  0  0  0  0
 26 35  1  0  0  0  0
 35 36  2  0  0  0  0
 36 37  1  0  0  0  0
 37 38  2  0  0  0  0
 38 39  1  0  0  0  0
 39 40  1  0  0  0  0
 38 41  1  0  0  0  0
 41 42  2  0  0  0  0
 25 43  1  0  0  0  0
 43 44  1  0  0  0  0
 44 45  1  0  0  0  0
 45 46  2  0  0  0  0
 46 47  1  0  0  0  0
 47 48  1  0  0  0  0
 48 49  2  0  0  0  0
 49 50  1  0  0  0  0
 50 51  2  0  0  0  0
 51 52  1  0  0  0  0
 52 53  1  0  0  0  0
 51 54  1  0  0  0  0
 54 55  2  0  0  0  0
 47 56  1  0  0  0  0
 56 57  2  0  0  0  0
 57 58  1  0  0  0  0
 58 59  2  0  0  0  0
 59 60  1  0  0  0  0
 60 61  1  0  0  0  0
 59 62  1  0  0  0  0
 62 63  2  0  0  0  0
 46 64  1  0  0  0  0
 64 65  1  0  0  0  0
 45 66  1  0  0  0  0
 66 67  2  0  0  0  0
 67 68  1  0  0  0  0
 68 69  1  0  0  0  0
 69 70  2  0  0  0  0
 70 71  1  0  0  0  0
 71 72  2  0  0  0  0
 72 73  1  0  0  0  0
 73 74  1  0  0  0  0
 72 75  1  0  0  0  0
 75 76  2  0  0  0  0
 68 77  1  0  0  0  0
 77 78  2  0  0  0  0
 78 79  1  0  0  0  0
 79 80  2  0  0  0  0
 80 81  1  0  0  0  0
 81 82  1  0  0  0  0
 80 83  1  0  0  0  0
 83 84  2  0  0  0  0
 67 85  1  0  0  0  0
 85 86  1  0  0  0  0
 86 87  1  0  0  0  0
 87 88  2  0  0  0  0
 88 89  1  0  0  0  0
 89 90  1  0  0  0  0
 90 91  2  0  0  0  0
 91 92  1  0  0  0  0
 92 93  2  0  0  0  0
 93 94  1  0  0  0  0
 94 95  1  0  0  0  0
 93 96  1  0  0  0  0
 96 97  2  0  0  0  0
 89 98  1  0  0  0  0
 98 99  2  0  0  0  0
 99100  1  0  0  0  0
100101  2  0  0  0  0
101102  1  0  0  0  0
102103  1  0  0  0  0
101104  1  0  0  0  0
104105  2  0  0  0  0
 88106  1  0  0  0  0
106107  1  0  0  0  0
 87108  1  0  0  0  0
108109  1  0  0  0  0
109110  2  0  0  0  0
110111  1  0  0  0  0
111112  1  0  0  0  0
112113  1  0  0  0  0
111114  1  0  0  0  0
114115  2  0  0  0  0
115116  1  0  0  0  0
116117  2  0  0  0  0
117118  1  0  0  0  0
116119  1  0  0  0  0
119120  2  0  0  0  0
120121  1  0  0  0  0
121122  3  0  0  0  0
120123  1  0  0  0  0
123124  3  0  0  0  0
 11  2  1  0  0  0  0
 23 17  1  0  0  0  0
 65 24  1  0  0  0  0
107 66  1  0  0  0  0
118108  2  0  0  0  0
 10  5  1  0  0  0  0
 22 18  1  0  0  0  0
 34 27  1  0  0  0  0
 42 35  1  0  0  0  0
 64 43  2  0  0  0  0
 76 69  1  0  0  0  0
 84 77  1  0  0  0  0
106 85  2  0  0  0  0
115109  1  0  0  0  0
 23  7  1  0  0  0  0
 55 48  1  0  0  0  0
 63 56  1  0  0  0  0
 97 90  1  0  0  0  0
105 98  1  0  0  0  0
  1125  1  0  0  0  0
  6126  1  0  0  0  0
  9127  1  0  0  0  0
 17128  1  0  0  0  0
 18129  1  0  0  0  0
 19130  1  0  0  0  0
 20131  1  0  0  0  0
 21132  1  0  0  0  0
 22133  1  0  0  0  0
 22134  1  0  0  0  0
 23135  1  0  0  0  0
 28136  1  0  0  0  0
 29137  1  0  0  0  0
 32138  1  0  0  0  0
 32139  1  0  0  0  0
 32140  1  0  0  0  0
 33141  1  0  0  0  0
 34142  1  0  0  0  0
 36143  1  0  0  0  0
 37144  1  0  0  0  0
 40145  1  0  0  0  0
 40146  1  0  0  0  0
 40147  1  0  0  0  0
 41148  1  0  0  0  0
 42149  1  0  0  0  0
 49150  1  0  0  0  0
 50151  1  0  0  0  0
 53152  1  0  0  0  0
 53153  1  0  0  0  0
 53154  1  0  0  0  0
 54155  1  0  0  0  0
 55156  1  0  0  0  0
 57157  1  0  0  0  0
 58158  1  0  0  0  0
 61159  1  0  0  0  0
 61160  1  0  0  0  0
 61161  1  0  0  0  0
 62162  1  0  0  0  0
 63163  1  0  0  0  0
 70164  1  0  0  0  0
 71165  1  0  0  0  0
 74166  1  0  0  0  0
 74167  1  0  0  0  0
 74168  1  0  0  0  0
 75169  1  0  0  0  0
 76170  1  0  0  0  0
 78171  1  0  0  0  0
 79172  1  0  0  0  0
 82173  1  0  0  0  0
 82174  1  0  0  0  0
 82175  1  0  0  0  0
 83176  1  0  0  0  0
 84177  1  0  0  0  0
 91178  1  0  0  0  0
 92179  1  0  0  0  0
 95180  1  0  0  0  0
 95181  1  0  0  0  0
 95182  1  0  0  0  0
 96183  1  0  0  0  0
 97184  1  0  0  0  0
 99185  1  0  0  0  0
100186  1  0  0  0  0
103187  1  0  0  0  0
103188  1  0  0  0  0
103189  1  0  0  0  0
104190  1  0  0  0  0
105191  1  0  0  0  0
112192  1  0  0  0  0
112193  1  0  0  0  0
113194  1  0  0  0  0
113195  1  0  0  0  0
113196  1  0  0  0  0
117197  1  0  0  0  0
118198  1  0  0  0  0
119199  1  0  0  0  0
M  END
