
  xtb     02062205043D
 energy: -389.546812211165 gnorm: 0.000778139993 xtb: 6.4.1 (unknown)
234257  0     0  0            999 V2000
    6.7150    0.0389   -3.9838 C   0  0  0  0  0  0  0  0  0  0  0  0
    7.3820    1.1381   -3.4946 C   0  0  0  0  0  0  0  0  0  0  0  0
    6.7283    2.3223   -2.9129 C   0  0  0  0  0  0  0  0  0  0  0  0
    5.5336    2.5009   -2.7541 O   0  0  0  0  0  0  0  0  0  0  0  0
    7.8036    3.3158   -2.7124 C   0  0  0  0  0  0  0  0  0  0  0  0
    7.6795    4.5966   -2.1819 C   0  0  0  0  0  0  0  0  0  0  0  0
    8.8586    5.3028   -2.1368 C   0  0  0  0  0  0  0  0  0  0  0  0
   10.0707    4.7821   -2.6065 C   0  0  0  0  0  0  0  0  0  0  0  0
   10.2092    3.5184   -3.1291 C   0  0  0  0  0  0  0  0  0  0  0  0
    9.0249    2.7803   -3.1669 C   0  0  0  0  0  0  0  0  0  0  0  0
    8.7900    1.4130   -3.6207 C   0  0  0  0  0  0  0  0  0  0  0  0
    9.7550    0.4927   -3.9441 C   0  0  0  0  0  0  0  0  0  0  0  0
    9.4887   -0.8713   -4.1792 C   0  0  0  0  0  0  0  0  0  0  0  0
    9.3458   -2.0007   -4.3338 N   0  0  0  0  0  0  0  0  0  0  0  0
   11.1332    0.7712   -4.0225 C   0  0  0  0  0  0  0  0  0  0  0  0
   12.2666    0.9318   -4.1157 N   0  0  0  0  0  0  0  0  0  0  0  0
   10.8339    6.0399   -2.2735 C   0  0  0  0  0  0  0  0  0  0  0  0
   11.7345    6.0214   -1.0154 C   0  0  0  0  0  0  0  0  0  0  0  0
   11.1434    4.9875   -0.0904 C   0  0  0  0  0  0  0  0  0  0  0  0
    9.9996    5.4723    0.3751 C   0  0  0  0  0  0  0  0  0  0  0  0
    9.7952    6.8384   -0.2298 C   0  0  0  0  0  0  0  0  0  0  0  0
   11.2542    7.3102   -0.3299 C   0  0  0  0  0  0  0  0  0  0  0  0
    9.4869    6.6140   -1.7318 C   0  0  0  0  0  0  0  0  0  0  0  0
    5.4595   -0.4229   -3.5718 C   0  0  0  0  0  0  0  0  0  0  0  0
    4.7458   -0.2460   -2.3728 C   0  0  0  0  0  0  0  0  0  0  0  0
    5.1453    0.3833   -1.2244 N   0  0  0  0  0  0  0  0  0  0  0  0
    6.4717    0.5149   -0.8182 C   0  0  0  0  0  0  0  0  0  0  0  0
    6.8511    1.6313   -0.0703 C   0  0  0  0  0  0  0  0  0  0  0  0
    8.1597    1.8024    0.3271 C   0  0  0  0  0  0  0  0  0  0  0  0
    9.1202    0.8574   -0.0106 C   0  0  0  0  0  0  0  0  0  0  0  0
   10.8224    1.0372    0.4207 S   0  0  0  0  0  0  0  0  0  0  0  0
   10.7185    1.8638    2.0412 C   0  0  0  0  0  0  0  0  0  0  0  0
    8.7461   -0.2693   -0.7370 C   0  0  0  0  0  0  0  0  0  0  0  0
    7.4381   -0.4419   -1.1348 C   0  0  0  0  0  0  0  0  0  0  0  0
    4.1300    0.8732   -0.3667 C   0  0  0  0  0  0  0  0  0  0  0  0
    4.0905    0.4850    0.9709 C   0  0  0  0  0  0  0  0  0  0  0  0
    3.0683    0.9233    1.7838 C   0  0  0  0  0  0  0  0  0  0  0  0
    2.0742    1.7627    1.2809 C   0  0  0  0  0  0  0  0  0  0  0  0
    0.7922    2.2271    2.4001 S   0  0  0  0  0  0  0  0  0  0  0  0
   -0.0635    3.5863    1.5591 C   0  0  0  0  0  0  0  0  0  0  0  0
    2.1293    2.1710   -0.0461 C   0  0  0  0  0  0  0  0  0  0  0  0
    3.1510    1.7276   -0.8630 C   0  0  0  0  0  0  0  0  0  0  0  0
    3.5068   -0.9289   -2.4378 C   0  0  0  0  0  0  0  0  0  0  0  0
    2.2354   -1.1570   -1.2943 S   0  0  0  0  0  0  0  0  0  0  0  0
    1.3919   -2.2156   -2.4168 C   0  0  0  0  0  0  0  0  0  0  0  0
    2.0818   -2.4083   -3.5926 C   0  0  0  0  0  0  0  0  0  0  0  0
    1.6806   -3.2586   -4.6076 N   0  0  0  0  0  0  0  0  0  0  0  0
    1.9174   -2.8952   -5.9382 C   0  0  0  0  0  0  0  0  0  0  0  0
    2.1800   -3.8622   -6.9091 C   0  0  0  0  0  0  0  0  0  0  0  0
    2.4024   -3.4895   -8.2156 C   0  0  0  0  0  0  0  0  0  0  0  0
    2.3897   -2.1444   -8.5842 C   0  0  0  0  0  0  0  0  0  0  0  0
    2.6662   -1.7920  -10.2920 S   0  0  0  0  0  0  0  0  0  0  0  0
    2.4584    0.0069  -10.4045 C   0  0  0  0  0  0  0  0  0  0  0  0
    2.1531   -1.1781   -7.6172 C   0  0  0  0  0  0  0  0  0  0  0  0
    1.9078   -1.5537   -6.3112 C   0  0  0  0  0  0  0  0  0  0  0  0
    1.0590   -4.4702   -4.2689 C   0  0  0  0  0  0  0  0  0  0  0  0
    1.4694   -5.1765   -3.1409 C   0  0  0  0  0  0  0  0  0  0  0  0
    0.8377   -6.3449   -2.7640 C   0  0  0  0  0  0  0  0  0  0  0  0
   -0.2139   -6.8419   -3.5207 C   0  0  0  0  0  0  0  0  0  0  0  0
   -1.1152   -8.3019   -3.1072 S   0  0  0  0  0  0  0  0  0  0  0  0
   -0.0523   -9.1194   -1.8864 C   0  0  0  0  0  0  0  0  0  0  0  0
   -0.6074   -6.1583   -4.6695 C   0  0  0  0  0  0  0  0  0  0  0  0
    0.0203   -4.9902   -5.0412 C   0  0  0  0  0  0  0  0  0  0  0  0
    3.2882   -1.6558   -3.5961 C   0  0  0  0  0  0  0  0  0  0  0  0
    4.6137   -1.5112   -4.6888 S   0  0  0  0  0  0  0  0  0  0  0  0
    0.1056   -2.6793   -1.9532 C   0  0  0  0  0  0  0  0  0  0  0  0
   -1.0865   -2.0267   -2.1552 C   0  0  0  0  0  0  0  0  0  0  0  0
   -1.2412   -0.8252   -2.8605 N   0  0  0  0  0  0  0  0  0  0  0  0
   -1.1800   -0.7437   -4.2429 C   0  0  0  0  0  0  0  0  0  0  0  0
   -0.9387    0.4807   -4.8699 C   0  0  0  0  0  0  0  0  0  0  0  0
   -0.8797    0.5556   -6.2433 C   0  0  0  0  0  0  0  0  0  0  0  0
   -1.0543   -0.5854   -7.0234 C   0  0  0  0  0  0  0  0  0  0  0  0
   -0.9537   -0.3731   -8.7750 S   0  0  0  0  0  0  0  0  0  0  0  0
   -1.0280   -2.0608   -9.4332 C   0  0  0  0  0  0  0  0  0  0  0  0
   -1.2940   -1.8029   -6.4051 C   0  0  0  0  0  0  0  0  0  0  0  0
   -1.3549   -1.8802   -5.0276 C   0  0  0  0  0  0  0  0  0  0  0  0
   -1.7787    0.1874   -2.0369 C   0  0  0  0  0  0  0  0  0  0  0  0
   -1.2611    0.3252   -0.7443 C   0  0  0  0  0  0  0  0  0  0  0  0
   -1.9383    1.0534    0.2055 C   0  0  0  0  0  0  0  0  0  0  0  0
   -3.1217    1.7125   -0.1268 C   0  0  0  0  0  0  0  0  0  0  0  0
   -3.9539    2.5352    1.1959 S   0  0  0  0  0  0  0  0  0  0  0  0
   -5.6167    2.8415    0.5471 C   0  0  0  0  0  0  0  0  0  0  0  0
   -3.5674    1.6840   -1.4421 C   0  0  0  0  0  0  0  0  0  0  0  0
   -2.9098    0.9166   -2.3871 C   0  0  0  0  0  0  0  0  0  0  0  0
   -2.0770   -2.4671   -1.2353 C   0  0  0  0  0  0  0  0  0  0  0  0
   -3.6345   -1.8505   -0.8209 S   0  0  0  0  0  0  0  0  0  0  0  0
   -3.4837   -2.5135    0.8090 C   0  0  0  0  0  0  0  0  0  0  0  0
   -2.3641   -3.3106    0.9377 C   0  0  0  0  0  0  0  0  0  0  0  0
   -1.9368   -3.9511    2.1016 N   0  0  0  0  0  0  0  0  0  0  0  0
   -1.5527   -5.2879    2.0104 C   0  0  0  0  0  0  0  0  0  0  0  0
   -0.5517   -5.8171    2.8217 C   0  0  0  0  0  0  0  0  0  0  0  0
   -0.2011   -7.1501    2.7347 C   0  0  0  0  0  0  0  0  0  0  0  0
   -0.8369   -7.9817    1.8245 C   0  0  0  0  0  0  0  0  0  0  0  0
   -0.4762   -9.7046    1.6320 S   0  0  0  0  0  0  0  0  0  0  0  0
    0.8099  -10.0280    2.8698 C   0  0  0  0  0  0  0  0  0  0  0  0
   -1.8264   -7.4553    0.9964 C   0  0  0  0  0  0  0  0  0  0  0  0
   -2.1826   -6.1291    1.0892 C   0  0  0  0  0  0  0  0  0  0  0  0
   -1.5305   -3.1413    3.1778 C   0  0  0  0  0  0  0  0  0  0  0  0
   -0.8424   -1.9498    2.9459 C   0  0  0  0  0  0  0  0  0  0  0  0
   -0.4805   -1.1388    4.0004 C   0  0  0  0  0  0  0  0  0  0  0  0
   -0.7983   -1.5061    5.3038 C   0  0  0  0  0  0  0  0  0  0  0  0
   -0.2872   -0.4224    6.6019 S   0  0  0  0  0  0  0  0  0  0  0  0
   -1.4859   -0.7819    7.9189 C   0  0  0  0  0  0  0  0  0  0  0  0
   -1.4621   -2.7038    5.5413 C   0  0  0  0  0  0  0  0  0  0  0  0
   -1.8269   -3.5139    4.4858 C   0  0  0  0  0  0  0  0  0  0  0  0
   -1.5964   -3.3168   -0.2585 C   0  0  0  0  0  0  0  0  0  0  0  0
    0.0206   -3.8229   -0.6120 S   0  0  0  0  0  0  0  0  0  0  0  0
   -4.3679   -1.8800    1.7455 C   0  0  0  0  0  0  0  0  0  0  0  0
   -5.6518   -1.4949    1.4876 C   0  0  0  0  0  0  0  0  0  0  0  0
   -6.1730   -0.5645    2.4192 C   0  0  0  0  0  0  0  0  0  0  0  0
   -7.4273    0.0787    2.4045 C   0  0  0  0  0  0  0  0  0  0  0  0
   -8.4365   -0.2804    1.4290 C   0  0  0  0  0  0  0  0  0  0  0  0
   -8.7989   -1.5313    1.0152 C   0  0  0  0  0  0  0  0  0  0  0  0
   -9.8226   -1.5223    0.0473 C   0  0  0  0  0  0  0  0  0  0  0  0
  -10.2356   -0.2710   -0.2928 C   0  0  0  0  0  0  0  0  0  0  0  0
  -11.3079    0.1271   -1.2467 C   0  0  0  0  0  0  0  0  0  0  0  0
  -12.5460    0.6346   -0.5047 C   0  0  0  0  0  0  0  0  0  0  0  0
   -9.3684    0.9351    0.6002 S   0  0  0  0  0  0  0  0  0  0  0  0
   -7.6223    1.0752    3.3540 C   0  0  0  0  0  0  0  0  0  0  0  0
   -6.6395    1.4348    4.3121 C   0  0  0  0  0  0  0  0  0  0  0  0
   -5.3843    0.7898    4.3289 C   0  0  0  0  0  0  0  0  0  0  0  0
   -4.3088    1.2704    5.1725 C   0  0  0  0  0  0  0  0  0  0  0  0
   -4.3233    1.6228    6.4938 C   0  0  0  0  0  0  0  0  0  0  0  0
   -3.1152    2.2027    6.9267 C   0  0  0  0  0  0  0  0  0  0  0  0
   -2.1797    2.3035    5.9405 C   0  0  0  0  0  0  0  0  0  0  0  0
   -0.8439    2.9572    5.9940 C   0  0  0  0  0  0  0  0  0  0  0  0
   -0.9487    4.4203    5.5565 C   0  0  0  0  0  0  0  0  0  0  0  0
   -2.7677    1.6495    4.4534 S   0  0  0  0  0  0  0  0  0  0  0  0
   -5.2005   -0.2054    3.3835 C   0  0  0  0  0  0  0  0  0  0  0  0
   -3.7338   -1.1199    3.1915 S   0  0  0  0  0  0  0  0  0  0  0  0
   -7.0497    2.5175    5.1094 C   0  0  0  0  0  0  0  0  0  0  0  0
   -8.3002    2.9942    4.8077 C   0  0  0  0  0  0  0  0  0  0  0  0
   -9.0468    2.0626    3.5208 S   0  0  0  0  0  0  0  0  0  0  0  0
   -9.0133    4.0493    5.4257 C   0  0  0  0  0  0  0  0  0  0  0  0
   -8.5274    5.0563    6.2013 C   0  0  0  0  0  0  0  0  0  0  0  0
   -9.4729    5.7980    7.0941 C   0  0  0  0  0  0  0  0  0  0  0  0
  -10.6808    5.7728    7.0520 O   0  0  0  0  0  0  0  0  0  0  0  0
   -8.5912    6.4916    8.0294 C   0  0  0  0  0  0  0  0  0  0  0  0
   -8.7809    7.4743    9.4148 S   0  0  0  0  0  0  0  0  0  0  0  0
   -7.0678    7.6237    9.5483 C   0  0  0  0  0  0  0  0  0  0  0  0
   -6.3764    6.9638    8.5758 C   0  0  0  0  0  0  0  0  0  0  0  0
   -7.2549    6.3018    7.6972 C   0  0  0  0  0  0  0  0  0  0  0  0
   -7.1790    5.5202    6.4775 C   0  0  0  0  0  0  0  0  0  0  0  0
   -6.0759    5.4644    5.6640 C   0  0  0  0  0  0  0  0  0  0  0  0
   -4.8180    5.9449    6.0762 C   0  0  0  0  0  0  0  0  0  0  0  0
   -3.7774    6.2906    6.4164 N   0  0  0  0  0  0  0  0  0  0  0  0
   -6.0983    4.9945    4.3373 C   0  0  0  0  0  0  0  0  0  0  0  0
   -6.0851    4.6850    3.2321 N   0  0  0  0  0  0  0  0  0  0  0  0
    7.1825   -0.5366   -4.7740 H   0  0  0  0  0  0  0  0  0  0  0  0
    6.7243    4.9671   -1.8432 H   0  0  0  0  0  0  0  0  0  0  0  0
   11.1468    3.1279   -3.4882 H   0  0  0  0  0  0  0  0  0  0  0  0
   11.3017    6.5494   -3.1135 H   0  0  0  0  0  0  0  0  0  0  0  0
   12.7974    5.9274   -1.2203 H   0  0  0  0  0  0  0  0  0  0  0  0
   11.5791    4.0177    0.0633 H   0  0  0  0  0  0  0  0  0  0  0  0
    9.2763    4.9976    1.0136 H   0  0  0  0  0  0  0  0  0  0  0  0
    9.0922    7.4899    0.2834 H   0  0  0  0  0  0  0  0  0  0  0  0
   11.3809    8.2008   -0.9439 H   0  0  0  0  0  0  0  0  0  0  0  0
   11.7148    7.4672    0.6446 H   0  0  0  0  0  0  0  0  0  0  0  0
    9.0834    7.5062   -2.2073 H   0  0  0  0  0  0  0  0  0  0  0  0
    6.1117    2.3782    0.1758 H   0  0  0  0  0  0  0  0  0  0  0  0
    8.4331    2.6853    0.8814 H   0  0  0  0  0  0  0  0  0  0  0  0
    9.9546    1.3765    2.6385 H   0  0  0  0  0  0  0  0  0  0  0  0
   10.5086    2.9223    1.9230 H   0  0  0  0  0  0  0  0  0  0  0  0
   11.6924    1.7333    2.5024 H   0  0  0  0  0  0  0  0  0  0  0  0
    9.4901   -1.0103   -0.9869 H   0  0  0  0  0  0  0  0  0  0  0  0
    7.1625   -1.3318   -1.6796 H   0  0  0  0  0  0  0  0  0  0  0  0
    4.8565   -0.1688    1.3609 H   0  0  0  0  0  0  0  0  0  0  0  0
    3.0216    0.6146    2.8168 H   0  0  0  0  0  0  0  0  0  0  0  0
   -0.5234    3.2339    0.6408 H   0  0  0  0  0  0  0  0  0  0  0  0
    0.6361    4.3957    1.3724 H   0  0  0  0  0  0  0  0  0  0  0  0
   -0.8399    3.9104    2.2451 H   0  0  0  0  0  0  0  0  0  0  0  0
    1.3798    2.8282   -0.4565 H   0  0  0  0  0  0  0  0  0  0  0  0
    3.2111    2.0489   -1.8911 H   0  0  0  0  0  0  0  0  0  0  0  0
    2.2102   -4.9054   -6.6330 H   0  0  0  0  0  0  0  0  0  0  0  0
    2.5980   -4.2372   -8.9692 H   0  0  0  0  0  0  0  0  0  0  0  0
    2.5666    0.2468  -11.4577 H   0  0  0  0  0  0  0  0  0  0  0  0
    3.2343    0.5063   -9.8314 H   0  0  0  0  0  0  0  0  0  0  0  0
    1.4663    0.2852  -10.0600 H   0  0  0  0  0  0  0  0  0  0  0  0
    2.1369   -0.1300   -7.8652 H   0  0  0  0  0  0  0  0  0  0  0  0
    1.6893   -0.7932   -5.5766 H   0  0  0  0  0  0  0  0  0  0  0  0
    2.2909   -4.8056   -2.5459 H   0  0  0  0  0  0  0  0  0  0  0  0
    1.1726   -6.8515   -1.8737 H   0  0  0  0  0  0  0  0  0  0  0  0
    0.9385   -9.2637   -2.3068 H   0  0  0  0  0  0  0  0  0  0  0  0
   -0.0152   -8.5379   -0.9708 H   0  0  0  0  0  0  0  0  0  0  0  0
   -0.5152  -10.0802   -1.6848 H   0  0  0  0  0  0  0  0  0  0  0  0
   -1.4179   -6.5534   -5.2627 H   0  0  0  0  0  0  0  0  0  0  0  0
   -0.2882   -4.4729   -5.9357 H   0  0  0  0  0  0  0  0  0  0  0  0
   -0.7953    1.3666   -4.2695 H   0  0  0  0  0  0  0  0  0  0  0  0
   -0.6922    1.5008   -6.7299 H   0  0  0  0  0  0  0  0  0  0  0  0
   -0.8592   -1.9671  -10.5017 H   0  0  0  0  0  0  0  0  0  0  0  0
   -0.2402   -2.6631   -8.9888 H   0  0  0  0  0  0  0  0  0  0  0  0
   -2.0099   -2.4891   -9.2517 H   0  0  0  0  0  0  0  0  0  0  0  0
   -1.4521   -2.6968   -6.9868 H   0  0  0  0  0  0  0  0  0  0  0  0
   -1.5538   -2.8280   -4.5486 H   0  0  0  0  0  0  0  0  0  0  0  0
   -0.3514   -0.1931   -0.4753 H   0  0  0  0  0  0  0  0  0  0  0  0
   -1.5852    1.0879    1.2251 H   0  0  0  0  0  0  0  0  0  0  0  0
   -6.0610    1.9041    0.2243 H   0  0  0  0  0  0  0  0  0  0  0  0
   -5.5788    3.5631   -0.2634 H   0  0  0  0  0  0  0  0  0  0  0  0
   -6.1714    3.2605    1.3809 H   0  0  0  0  0  0  0  0  0  0  0  0
   -4.4572    2.2182   -1.7343 H   0  0  0  0  0  0  0  0  0  0  0  0
   -3.3055    0.8428   -3.3892 H   0  0  0  0  0  0  0  0  0  0  0  0
   -0.0347   -5.1787    3.5220 H   0  0  0  0  0  0  0  0  0  0  0  0
    0.5780   -7.5217    3.3806 H   0  0  0  0  0  0  0  0  0  0  0  0
    0.4306   -9.8151    3.8652 H   0  0  0  0  0  0  0  0  0  0  0  0
    1.0390  -11.0855    2.7813 H   0  0  0  0  0  0  0  0  0  0  0  0
    1.6963   -9.4398    2.6499 H   0  0  0  0  0  0  0  0  0  0  0  0
   -2.3217   -8.1013    0.2875 H   0  0  0  0  0  0  0  0  0  0  0  0
   -2.9611   -5.7385    0.4511 H   0  0  0  0  0  0  0  0  0  0  0  0
   -0.5987   -1.6575    1.9355 H   0  0  0  0  0  0  0  0  0  0  0  0
    0.0434   -0.2129    3.8205 H   0  0  0  0  0  0  0  0  0  0  0  0
   -2.4855   -0.7985    7.4955 H   0  0  0  0  0  0  0  0  0  0  0  0
   -1.2475   -1.7214    8.4092 H   0  0  0  0  0  0  0  0  0  0  0  0
   -1.3978    0.0334    8.6297 H   0  0  0  0  0  0  0  0  0  0  0  0
   -1.7019   -3.0120    6.5466 H   0  0  0  0  0  0  0  0  0  0  0  0
   -2.3525   -4.4394    4.6681 H   0  0  0  0  0  0  0  0  0  0  0  0
   -6.1904   -1.8329    0.6203 H   0  0  0  0  0  0  0  0  0  0  0  0
   -8.3730   -2.4308    1.4231 H   0  0  0  0  0  0  0  0  0  0  0  0
  -10.2376   -2.4166   -0.3832 H   0  0  0  0  0  0  0  0  0  0  0  0
  -10.9391    0.9154   -1.9077 H   0  0  0  0  0  0  0  0  0  0  0  0
  -11.5729   -0.7376   -1.8589 H   0  0  0  0  0  0  0  0  0  0  0  0
  -13.3205    0.9181   -1.2128 H   0  0  0  0  0  0  0  0  0  0  0  0
  -12.9386   -0.1403    0.1498 H   0  0  0  0  0  0  0  0  0  0  0  0
  -12.2920    1.5018    0.1007 H   0  0  0  0  0  0  0  0  0  0  0  0
   -5.1612    1.4367    7.1444 H   0  0  0  0  0  0  0  0  0  0  0  0
   -2.9486    2.5433    7.9337 H   0  0  0  0  0  0  0  0  0  0  0  0
   -0.1516    2.4306    5.3350 H   0  0  0  0  0  0  0  0  0  0  0  0
   -0.4573    2.9043    7.0134 H   0  0  0  0  0  0  0  0  0  0  0  0
   -1.3392    4.4810    4.5431 H   0  0  0  0  0  0  0  0  0  0  0  0
   -1.6210    4.9717    6.2094 H   0  0  0  0  0  0  0  0  0  0  0  0
    0.0308    4.8903    5.5814 H   0  0  0  0  0  0  0  0  0  0  0  0
   -6.4481    2.9087    5.9085 H   0  0  0  0  0  0  0  0  0  0  0  0
  -10.0939    4.0221    5.3290 H   0  0  0  0  0  0  0  0  0  0  0  0
   -6.6609    8.2072   10.3509 H   0  0  0  0  0  0  0  0  0  0  0  0
   -5.3045    6.9508    8.5053 H   0  0  0  0  0  0  0  0  0  0  0  0
  1  2  2  0  0  0  0
  2  3  1  0  0  0  0
  3  4  2  0  0  0  0
  3  5  1  0  0  0  0
  5  6  2  0  0  0  0
  6  7  1  0  0  0  0
  7  8  2  0  0  0  0
  8  9  1  0  0  0  0
  9 10  2  0  0  0  0
 10 11  1  0  0  0  0
 11 12  2  0  0  0  0
 12 13  1  0  0  0  0
 13 14  3  0  0  0  0
 12 15  1  0  0  0  0
 15 16  3  0  0  0  0
  8 17  1  0  0  0  0
 17 18  1  0  0  0  0
 18 19  1  0  0  0  0
 19 20  2  0  0  0  0
 20 21  1  0  0  0  0
 21 22  1  0  0  0  0
 21 23  1  0  0  0  0
  1 24  1  0  0  0  0
 24 25  2  0  0  0  0
 25 26  1  0  0  0  0
 26 27  1  0  0  0  0
 27 28  2  0  0  0  0
 28 29  1  0  0  0  0
 29 30  2  0  0  0  0
 30 31  1  0  0  0  0
 31 32  1  0  0  0  0
 30 33  1  0  0  0  0
 33 34  2  0  0  0  0
 26 35  1  0  0  0  0
 35 36  2  0  0  0  0
 36 37  1  0  0  0  0
 37 38  2  0  0  0  0
 38 39  1  0  0  0  0
 39 40  1  0  0  0  0
 38 41  1  0  0  0  0
 41 42  2  0  0  0  0
 25 43  1  0  0  0  0
 43 44  1  0  0  0  0
 44 45  1  0  0  0  0
 45 46  2  0  0  0  0
 46 47  1  0  0  0  0
 47 48  1  0  0  0  0
 48 49  2  0  0  0  0
 49 50  1  0  0  0  0
 50 51  2  0  0  0  0
 51 52  1  0  0  0  0
 52 53  1  0  0  0  0
 51 54  1  0  0  0  0
 54 55  2  0  0  0  0
 47 56  1  0  0  0  0
 56 57  2  0  0  0  0
 57 58  1  0  0  0  0
 58 59  2  0  0  0  0
 59 60  1  0  0  0  0
 60 61  1  0  0  0  0
 59 62  1  0  0  0  0
 62 63  2  0  0  0  0
 46 64  1  0  0  0  0
 64 65  1  0  0  0  0
 45 66  1  0  0  0  0
 66 67  2  0  0  0  0
 67 68  1  0  0  0  0
 68 69  1  0  0  0  0
 69 70  2  0  0  0  0
 70 71  1  0  0  0  0
 71 72  2  0  0  0  0
 72 73  1  0  0  0  0
 73 74  1  0  0  0  0
 72 75  1  0  0  0  0
 75 76  2  0  0  0  0
 68 77  1  0  0  0  0
 77 78  2  0  0  0  0
 78 79  1  0  0  0  0
 79 80  2  0  0  0  0
 80 81  1  0  0  0  0
 81 82  1  0  0  0  0
 80 83  1  0  0  0  0
 83 84  2  0  0  0  0
 67 85  1  0  0  0  0
 85 86  1  0  0  0  0
 86 87  1  0  0  0  0
 87 88  2  0  0  0  0
 88 89  1  0  0  0  0
 89 90  1  0  0  0  0
 90 91  2  0  0  0  0
 91 92  1  0  0  0  0
 92 93  2  0  0  0  0
 93 94  1  0  0  0  0
 94 95  1  0  0  0  0
 93 96  1  0  0  0  0
 96 97  2  0  0  0  0
 89 98  1  0  0  0  0
 98 99  2  0  0  0  0
 99100  1  0  0  0  0
100101  2  0  0  0  0
101102  1  0  0  0  0
102103  1  0  0  0  0
101104  1  0  0  0  0
104105  2  0  0  0  0
 88106  1  0  0  0  0
106107  1  0  0  0  0
 87108  1  0  0  0  0
108109  2  0  0  0  0
109110  1  0  0  0  0
110111  2  0  0  0  0
111112  1  0  0  0  0
112113  2  0  0  0  0
113114  1  0  0  0  0
114115  2  0  0  0  0
115116  1  0  0  0  0
116117  1  0  0  0  0
115118  1  0  0  0  0
111119  1  0  0  0  0
119120  2  0  0  0  0
120121  1  0  0  0  0
121122  1  0  0  0  0
122123  2  0  0  0  0
123124  1  0  0  0  0
124125  2  0  0  0  0
125126  1  0  0  0  0
126127  1  0  0  0  0
125128  1  0  0  0  0
121129  2  0  0  0  0
129130  1  0  0  0  0
120131  1  0  0  0  0
131132  2  0  0  0  0
132133  1  0  0  0  0
132134  1  0  0  0  0
134135  2  0  0  0  0
135136  1  0  0  0  0
136137  2  0  0  0  0
136138  1  0  0  0  0
138139  1  0  0  0  0
139140  1  0  0  0  0
140141  2  0  0  0  0
141142  1  0  0  0  0
142143  1  0  0  0  0
143144  2  0  0  0  0
144145  1  0  0  0  0
145146  3  0  0  0  0
144147  1  0  0  0  0
147148  3  0  0  0  0
 11  2  1  0  0  0  0
 23 17  1  0  0  0  0
 65 24  1  0  0  0  0
107 66  1  0  0  0  0
130108  1  0  0  0  0
143135  1  0  0  0  0
 10  5  1  0  0  0  0
 22 18  1  0  0  0  0
 34 27  1  0  0  0  0
 42 35  1  0  0  0  0
 64 43  2  0  0  0  0
 76 69  1  0  0  0  0
 84 77  1  0  0  0  0
106 85  2  0  0  0  0
129110  1  0  0  0  0
142138  2  0  0  0  0
 23  7  1  0  0  0  0
 55 48  1  0  0  0  0
 63 56  1  0  0  0  0
 97 90  1  0  0  0  0
105 98  1  0  0  0  0
118112  1  0  0  0  0
133119  1  0  0  0  0
128122  1  0  0  0  0
  1149  1  0  0  0  0
  6150  1  0  0  0  0
  9151  1  0  0  0  0
 17152  1  0  0  0  0
 18153  1  0  0  0  0
 19154  1  0  0  0  0
 20155  1  0  0  0  0
 21156  1  0  0  0  0
 22157  1  0  0  0  0
 22158  1  0  0  0  0
 23159  1  0  0  0  0
 28160  1  0  0  0  0
 29161  1  0  0  0  0
 32162  1  0  0  0  0
 32163  1  0  0  0  0
 32164  1  0  0  0  0
 33165  1  0  0  0  0
 34166  1  0  0  0  0
 36167  1  0  0  0  0
 37168  1  0  0  0  0
 40169  1  0  0  0  0
 40170  1  0  0  0  0
 40171  1  0  0  0  0
 41172  1  0  0  0  0
 42173  1  0  0  0  0
 49174  1  0  0  0  0
 50175  1  0  0  0  0
 53176  1  0  0  0  0
 53177  1  0  0  0  0
 53178  1  0  0  0  0
 54179  1  0  0  0  0
 55180  1  0  0  0  0
 57181  1  0  0  0  0
 58182  1  0  0  0  0
 61183  1  0  0  0  0
 61184  1  0  0  0  0
 61185  1  0  0  0  0
 62186  1  0  0  0  0
 63187  1  0  0  0  0
 70188  1  0  0  0  0
 71189  1  0  0  0  0
 74190  1  0  0  0  0
 74191  1  0  0  0  0
 74192  1  0  0  0  0
 75193  1  0  0  0  0
 76194  1  0  0  0  0
 78195  1  0  0  0  0
 79196  1  0  0  0  0
 82197  1  0  0  0  0
 82198  1  0  0  0  0
 82199  1  0  0  0  0
 83200  1  0  0  0  0
 84201  1  0  0  0  0
 91202  1  0  0  0  0
 92203  1  0  0  0  0
 95204  1  0  0  0  0
 95205  1  0  0  0  0
 95206  1  0  0  0  0
 96207  1  0  0  0  0
 97208  1  0  0  0  0
 99209  1  0  0  0  0
100210  1  0  0  0  0
103211  1  0  0  0  0
103212  1  0  0  0  0
103213  1  0  0  0  0
104214  1  0  0  0  0
105215  1  0  0  0  0
109216  1  0  0  0  0
113217  1  0  0  0  0
114218  1  0  0  0  0
116219  1  0  0  0  0
116220  1  0  0  0  0
117221  1  0  0  0  0
117222  1  0  0  0  0
117223  1  0  0  0  0
123224  1  0  0  0  0
124225  1  0  0  0  0
126226  1  0  0  0  0
126227  1  0  0  0  0
127228  1  0  0  0  0
127229  1  0  0  0  0
127230  1  0  0  0  0
131231  1  0  0  0  0
134232  1  0  0  0  0
140233  1  0  0  0  0
141234  1  0  0  0  0
M  END
