193

C          7.10620       -2.78480        5.78810
C          7.64010       -1.90010        6.67870
C          9.09030       -1.98130        6.99510
O          9.85680       -2.86260        6.66810
C          9.40470       -0.73340        7.71580
C         10.65720       -0.29520        8.13920
C         10.63880        0.92050        8.77990
C          9.46180        1.65240        8.98450
C          8.21840        1.23160        8.57540
C          8.21550       -0.00310        7.92370
C          7.09540       -0.77310        7.38810
C          5.77280       -0.59080        7.70610
C          5.27100        0.49610        8.44580
N          4.79550        1.36920        9.02160
C          4.76260       -1.51500        7.37640
N          3.90990       -2.25190        7.15450
C         10.18710        2.77820        9.67820
C         10.44360        4.07660        8.87420
C         10.48730        3.67750        7.42020
C         11.60090        2.98440        7.22380
C         12.33090        2.90320        8.54160
C         11.94440        4.26090        9.14980
C         11.49910        1.96350        9.44950
C          5.96540       -2.68710        4.95650
C          5.31740       -1.49200        4.57330
C          4.28580       -1.46420        3.55790
N          3.81520       -0.23040        3.35960
S          4.59060        0.78650        4.32440
N          5.57600       -0.26600        5.03180
C          3.84000       -2.62020        2.88670
C          4.37890       -3.82710        3.37100
N          4.08170       -5.04870        2.92400
S          5.03840       -6.11480        3.64680
N          5.89570       -5.09270        4.54300
C          5.45590       -3.85100        4.33500
C          2.97110       -2.57590        1.76060
C          2.98380       -1.65250        0.70920
N          3.96570       -0.72280        0.45400
C          3.63820        0.42210       -0.29100
C          4.48060        0.85730       -1.30950
C          4.13010        1.93460       -2.09880
C          2.92900        2.59680       -1.87790
S          2.34570        3.92930       -2.87590
C          3.79870        4.40050       -3.85860
C          2.10600        2.19370       -0.82830
C          2.45720        1.12120       -0.03860
C          5.27280       -0.87670        0.93640
C          5.96840        0.22870        1.42870
C          7.18200        0.06230        2.05550
C          7.74330       -1.20760        2.19490
S          9.21920       -1.30690        3.14780
C          9.55390       -3.08390        3.28340
C          7.10850       -2.29320        1.60080
C          5.88780       -2.12610        0.97670
C          1.89040       -1.88450       -0.15510
S          1.28740       -1.09620       -1.57270
C         -0.08320       -2.18310       -1.61830
C         -0.00250       -3.18060       -0.65120
N         -0.89760       -4.24880       -0.55100
C         -1.04660       -5.06730       -1.67540
C         -2.26780       -5.65910       -2.00310
C         -2.38200       -6.44460       -3.12720
C         -1.28670       -6.65980       -3.96120
S         -1.56380       -7.68210       -5.37390
C          0.05690       -7.75720       -6.18730
C         -0.07010       -6.07290       -3.64290
C          0.04570       -5.28920       -2.51190
C         -1.77590       -4.30410        0.53850
C         -2.19780       -3.12760        1.16020
C         -3.12350       -3.17210        2.17800
C         -3.64950       -4.38960        2.60260
S         -4.87810       -4.31830        3.86650
C         -5.14510       -6.05630        4.31380
C         -3.20210       -5.56610        2.01680
C         -2.26700       -5.52180        1.00200
C          1.10860       -2.98170        0.19200
S          1.72790       -3.80080        1.58200
C         -1.22830       -1.80460       -2.37180
C         -2.52070       -2.20320       -2.16260
C         -3.47450       -1.36700       -2.77960
C         -4.86640       -1.42660       -2.60430
C         -5.43820       -2.48380       -1.75570
C         -5.26960       -3.82710       -2.08290
C         -5.73170       -4.81360       -1.23820
C         -6.34290       -4.47830       -0.03260
S         -6.82550       -5.82330        1.00250
C         -8.07440       -5.11150        2.13070
C         -9.33020       -4.68380        1.39750
C         -6.50860       -3.14160        0.30270
C         -6.07490       -2.15680       -0.56350
C         -5.60330       -0.40660       -3.17550
C         -5.01140        0.64940       -3.92750
C         -3.61020        0.70320       -4.10590
C         -2.96410        1.79780       -4.83640
C         -3.40660        2.18520       -6.10120
C         -2.76540        3.19380       -6.78720
C         -1.67050        3.84390       -6.22360
S         -0.92090        5.13340       -7.17050
C          0.82160        5.11440       -6.61800
C          1.50160        3.79870       -6.94240
C         -1.23920        3.48460       -4.95340
C         -1.87860        2.46790       -4.27480
C         -2.87810       -0.30640       -3.50780
S         -1.13400       -0.43110       -3.45930
C         -5.96160        1.59810       -4.34460
C         -7.25170        1.29820       -3.97060
S         -7.32430       -0.21240       -3.05530
C         -8.47380        1.98340       -4.13270
C         -8.79200        3.13400       -4.80380
C         -7.94080        3.94420       -5.70700
O         -6.76920        3.79540       -5.99110
C         -8.81810        4.99640       -6.25010
C         -8.50100        5.98390       -7.13740
C         -9.50050        6.89950       -7.53320
C         -9.22920        7.94330       -8.44110
C        -10.20710        8.82200       -8.81610
C        -11.49460        8.67130       -8.28300
F        -12.44390        9.54600       -8.66430
C        -11.81110        7.67730       -7.39970
C        -10.81560        6.76390       -7.00090
C        -11.11230        5.72940       -6.08310
C        -10.12430        4.85790       -5.70740
C        -10.12140        3.72630       -4.78470
C        -11.18980        3.35260       -4.01010
C        -11.21860        2.31910       -3.04950
N        -11.34510        1.51760       -2.23580
C        -12.44960        3.98790       -4.04500
N        -13.50060        4.44980       -4.02030
H          7.69650       -3.68390        5.63550
H         11.54110       -0.88890        7.96550
H          7.31910        1.80430        8.73210
H          9.88410        2.97850       10.70410
H          9.78290        4.90180        9.12670
H          9.69950        3.88160        6.71900
H         11.92800        2.49380        6.32580
H         13.38930        2.66120        8.49010
H         12.37240        5.10290        8.60750
H         12.18370        4.34570       10.20900
H         12.05430        1.63570       10.32630
H          5.40690        0.33360       -1.49480
H          4.79400        2.23250       -2.89400
H          3.51720        5.30380       -4.39110
H          4.63470        4.60790       -3.19740
H          4.04270        3.61530       -4.56850
H          1.18840        2.73030       -0.64330
H          1.82710        0.81730        0.78330
H          5.52230        1.20970        1.35860
H          7.69930        0.90990        2.47800
H          9.99110       -3.45270        2.35970
H          8.63840       -3.61210        3.52710
H         10.25850       -3.18600        4.10380
H          7.55290       -3.27540        1.62150
H          5.39560       -2.97980        0.53420
H         -3.13130       -5.49620       -1.37740
H         -3.32890       -6.89740       -3.37900
H          0.36250       -6.76330       -6.50140
H          0.78740       -8.20420       -5.51930
H         -0.08300       -8.39130       -7.05720
H          0.80010       -6.22030       -4.26190
H          1.00130       -4.84710       -2.27170
H         -1.81120       -2.17580        0.82650
H         -3.46180       -2.26020        2.64540
H         -5.56470       -6.59600        3.46950
H         -5.85460       -6.04190        5.13550
H         -4.20830       -6.49640        4.64230
H         -3.57740       -6.52480        2.33420
H         -1.91890       -6.44170        0.55730
H         -2.80710       -3.00730       -1.51450
H         -4.78410       -4.09360       -3.01060
H         -5.62120       -5.85620       -1.49720
H         -7.61140       -4.29530        2.68450
H         -8.28810       -5.92470        2.82470
H         -9.11230       -3.90820        0.66620
H        -10.05660       -4.29530        2.10860
H         -9.77050       -5.53180        0.87760
H         -6.95640       -2.85340        1.24010
H         -6.20390       -1.11870       -0.29470
H         -4.23630        1.67090       -6.56140
H         -3.10290        3.48580       -7.76950
H          1.27410        5.93730       -7.17160
H          0.85820        5.34390       -5.55350
H          1.06090        2.98520       -6.36970
H          1.39770        3.57310       -8.00140
H          2.56140        3.85990       -6.70350
H         -0.41500        3.99170       -4.47660
H         -1.54550        2.21550       -3.27960
H         -5.71220        2.48940       -4.88930
H         -9.29430        1.49350       -3.62150
H         -7.49810        6.06530       -7.52930
H         -8.22950        8.03840       -8.83760
H        -10.01670        9.62630       -9.50880
H        -12.81290        7.59240       -7.00840
H        -12.11810        5.65590       -5.70310
