
  xtb     02142211393D
 energy: -376.727586001931 gnorm: 0.000781597720 xtb: 6.4.1 (unknown)
225245  0     0  0            999 V2000
   -4.2153    6.9463    0.8616 C   0  0  0  0  0  0  0  0  0  0  0  0
   -5.2961    7.4644    0.1897 C   0  0  0  0  0  0  0  0  0  0  0  0
   -5.8405    7.0054   -1.0934 C   0  0  0  0  0  0  0  0  0  0  0  0
   -5.3022    6.2900   -1.9217 O   0  0  0  0  0  0  0  0  0  0  0  0
   -7.1731    7.6206   -1.2176 C   0  0  0  0  0  0  0  0  0  0  0  0
   -8.1022    7.4129   -2.2330 C   0  0  0  0  0  0  0  0  0  0  0  0
   -9.2562    8.1461   -2.0908 C   0  0  0  0  0  0  0  0  0  0  0  0
   -9.4730    9.0158   -1.0143 C   0  0  0  0  0  0  0  0  0  0  0  0
   -8.5694    9.2177    0.0027 C   0  0  0  0  0  0  0  0  0  0  0  0
   -7.3874    8.4845   -0.1244 C   0  0  0  0  0  0  0  0  0  0  0  0
   -6.2064    8.4449    0.7356 C   0  0  0  0  0  0  0  0  0  0  0  0
   -6.0127    9.2162    1.8560 C   0  0  0  0  0  0  0  0  0  0  0  0
   -4.8173    9.2988    2.5933 C   0  0  0  0  0  0  0  0  0  0  0  0
   -3.8754    9.4671    3.2321 N   0  0  0  0  0  0  0  0  0  0  0  0
   -6.9771   10.0720    2.4232 C   0  0  0  0  0  0  0  0  0  0  0  0
   -7.7038   10.7712    2.9742 N   0  0  0  0  0  0  0  0  0  0  0  0
  -10.8315    9.4316   -1.5203 C   0  0  0  0  0  0  0  0  0  0  0  0
  -10.9495   10.8119   -2.2129 C   0  0  0  0  0  0  0  0  0  0  0  0
   -9.5895   11.1212   -2.7878 C   0  0  0  0  0  0  0  0  0  0  0  0
   -9.3842   10.2978   -3.8072 C   0  0  0  0  0  0  0  0  0  0  0  0
  -10.6017    9.4167   -3.9397 C   0  0  0  0  0  0  0  0  0  0  0  0
  -11.6960   10.3984   -3.4913 C   0  0  0  0  0  0  0  0  0  0  0  0
  -10.5898    8.4619   -2.7200 C   0  0  0  0  0  0  0  0  0  0  0  0
   -3.3712    5.8832    0.5309 C   0  0  0  0  0  0  0  0  0  0  0  0
   -2.4323    5.3129    1.4230 C   0  0  0  0  0  0  0  0  0  0  0  0
   -2.2778    5.6509    2.7506 N   0  0  0  0  0  0  0  0  0  0  0  0
   -3.3869    5.9414    3.5613 C   0  0  0  0  0  0  0  0  0  0  0  0
   -3.3107    6.9294    4.5389 C   0  0  0  0  0  0  0  0  0  0  0  0
   -4.4313    7.2826    5.2654 C   0  0  0  0  0  0  0  0  0  0  0  0
   -5.6492    6.6681    5.0097 C   0  0  0  0  0  0  0  0  0  0  0  0
   -7.1580    7.1316    5.7986 S   0  0  0  0  0  0  0  0  0  0  0  0
   -6.8183    8.8190    6.3763 C   0  0  0  0  0  0  0  0  0  0  0  0
   -5.7111    5.6271    4.0831 C   0  0  0  0  0  0  0  0  0  0  0  0
   -4.5910    5.2576    3.3753 C   0  0  0  0  0  0  0  0  0  0  0  0
   -0.9891    5.6497    3.2982 C   0  0  0  0  0  0  0  0  0  0  0  0
    0.0820    6.1456    2.5573 C   0  0  0  0  0  0  0  0  0  0  0  0
    1.3513    6.1837    3.0956 C   0  0  0  0  0  0  0  0  0  0  0  0
    1.5708    5.7289    4.3892 C   0  0  0  0  0  0  0  0  0  0  0  0
    3.1658    5.7525    5.1557 S   0  0  0  0  0  0  0  0  0  0  0  0
    3.9494    7.2007    4.3821 C   0  0  0  0  0  0  0  0  0  0  0  0
    0.5083    5.2134    5.1266 C   0  0  0  0  0  0  0  0  0  0  0  0
   -0.7599    5.1752    4.5896 C   0  0  0  0  0  0  0  0  0  0  0  0
   -1.7054    4.2814    0.8087 C   0  0  0  0  0  0  0  0  0  0  0  0
   -0.4327    3.2163    1.3252 S   0  0  0  0  0  0  0  0  0  0  0  0
   -0.5945    2.3070   -0.1632 C   0  0  0  0  0  0  0  0  0  0  0  0
   -1.4324    2.9252   -1.0891 C   0  0  0  0  0  0  0  0  0  0  0  0
   -1.5681    2.5931   -2.4173 N   0  0  0  0  0  0  0  0  0  0  0  0
   -0.5386    1.9797   -3.1379 C   0  0  0  0  0  0  0  0  0  0  0  0
   -0.8411    1.0339   -4.1163 C   0  0  0  0  0  0  0  0  0  0  0  0
    0.1611    0.2992   -4.7154 C   0  0  0  0  0  0  0  0  0  0  0  0
    1.4860    0.5028   -4.3513 C   0  0  0  0  0  0  0  0  0  0  0  0
    2.8126   -0.4847   -4.9735 S   0  0  0  0  0  0  0  0  0  0  0  0
    1.9879   -2.0703   -5.2962 C   0  0  0  0  0  0  0  0  0  0  0  0
    1.8011    1.5182   -3.4534 C   0  0  0  0  0  0  0  0  0  0  0  0
    0.8010    2.2535   -2.8569 C   0  0  0  0  0  0  0  0  0  0  0  0
   -2.7922    2.9071   -3.0427 C   0  0  0  0  0  0  0  0  0  0  0  0
   -3.9938    2.5240   -2.4502 C   0  0  0  0  0  0  0  0  0  0  0  0
   -5.1924    2.9436   -2.9856 C   0  0  0  0  0  0  0  0  0  0  0  0
   -5.2044    3.7544   -4.1147 C   0  0  0  0  0  0  0  0  0  0  0  0
   -6.7655    4.3396   -4.6970 S   0  0  0  0  0  0  0  0  0  0  0  0
   -6.3134    5.9683   -5.3714 C   0  0  0  0  0  0  0  0  0  0  0  0
   -4.0110    4.0743   -4.7490 C   0  0  0  0  0  0  0  0  0  0  0  0
   -2.8102    3.6521   -4.2161 C   0  0  0  0  0  0  0  0  0  0  0  0
   -2.0896    4.0361   -0.5039 C   0  0  0  0  0  0  0  0  0  0  0  0
   -3.3463    5.0886   -1.0419 S   0  0  0  0  0  0  0  0  0  0  0  0
    0.0975    1.0619   -0.2779 C   0  0  0  0  0  0  0  0  0  0  0  0
   -0.3554   -0.0082   -1.0356 C   0  0  0  0  0  0  0  0  0  0  0  0
   -1.5824    0.0191   -1.5879 F   0  0  0  0  0  0  0  0  0  0  0  0
    0.3717   -1.1930   -1.1460 C   0  0  0  0  0  0  0  0  0  0  0  0
   -0.1512   -2.1799   -1.8984 F   0  0  0  0  0  0  0  0  0  0  0  0
    1.5346   -1.4223   -0.4346 C   0  0  0  0  0  0  0  0  0  0  0  0
    2.0201   -0.3593    0.3746 C   0  0  0  0  0  0  0  0  0  0  0  0
    3.1826   -0.4905    1.0373 N   0  0  0  0  0  0  0  0  0  0  0  0
    3.5985    0.4878    1.8052 C   0  0  0  0  0  0  0  0  0  0  0  0
    4.9257    0.2989    2.4777 C   0  0  0  0  0  0  0  0  0  0  0  0
    4.7814   -0.1763    3.9259 C   0  0  0  0  0  0  0  0  0  0  0  0
    2.8174    1.6668    1.9697 C   0  0  0  0  0  0  0  0  0  0  0  0
    1.7086    1.8189    1.2883 N   0  0  0  0  0  0  0  0  0  0  0  0
    1.2913    0.8486    0.4672 C   0  0  0  0  0  0  0  0  0  0  0  0
    3.2232    2.8284    2.8215 C   0  0  0  0  0  0  0  0  0  0  0  0
    4.0002    3.8406    1.9761 C   0  0  0  0  0  0  0  0  0  0  0  0
    2.1498   -2.7301   -0.3712 C   0  0  0  0  0  0  0  0  0  0  0  0
    2.4133   -3.4327    0.7918 C   0  0  0  0  0  0  0  0  0  0  0  0
    2.0949   -3.0209    2.0751 N   0  0  0  0  0  0  0  0  0  0  0  0
    0.9845   -2.2050    2.3259 C   0  0  0  0  0  0  0  0  0  0  0  0
   -0.2094   -2.3833    1.6240 C   0  0  0  0  0  0  0  0  0  0  0  0
   -1.2550   -1.5036    1.7920 C   0  0  0  0  0  0  0  0  0  0  0  0
   -1.1426   -0.4268    2.6698 C   0  0  0  0  0  0  0  0  0  0  0  0
   -2.5067    0.6919    2.7201 S   0  0  0  0  0  0  0  0  0  0  0  0
   -2.1258    1.7944    4.1101 C   0  0  0  0  0  0  0  0  0  0  0  0
    0.0139   -0.2861    3.4242 C   0  0  0  0  0  0  0  0  0  0  0  0
    1.0602   -1.1729    3.2581 C   0  0  0  0  0  0  0  0  0  0  0  0
    2.9203   -3.4440    3.1242 C   0  0  0  0  0  0  0  0  0  0  0  0
    2.3670   -3.8583    4.3339 C   0  0  0  0  0  0  0  0  0  0  0  0
    3.1787   -4.3671    5.3255 C   0  0  0  0  0  0  0  0  0  0  0  0
    4.5466   -4.4769    5.1174 C   0  0  0  0  0  0  0  0  0  0  0  0
    5.5827   -5.2434    6.3414 S   0  0  0  0  0  0  0  0  0  0  0  0
    4.7714   -6.8739    6.3863 C   0  0  0  0  0  0  0  0  0  0  0  0
    5.1117   -4.0099    3.9414 C   0  0  0  0  0  0  0  0  0  0  0  0
    4.3036   -3.4909    2.9506 C   0  0  0  0  0  0  0  0  0  0  0  0
    2.9833   -4.6983    0.4992 C   0  0  0  0  0  0  0  0  0  0  0  0
    3.6068   -5.9747    1.4790 S   0  0  0  0  0  0  0  0  0  0  0  0
    3.9946   -6.9072    0.0346 C   0  0  0  0  0  0  0  0  0  0  0  0
    3.7120   -6.1913   -1.1549 C   0  0  0  0  0  0  0  0  0  0  0  0
    4.0280   -6.6116   -2.4230 N   0  0  0  0  0  0  0  0  0  0  0  0
    3.2378   -6.2056   -3.5094 C   0  0  0  0  0  0  0  0  0  0  0  0
    3.8318   -5.8740   -4.7235 C   0  0  0  0  0  0  0  0  0  0  0  0
    3.0612   -5.4901   -5.8029 C   0  0  0  0  0  0  0  0  0  0  0  0
    1.6789   -5.4222   -5.6816 C   0  0  0  0  0  0  0  0  0  0  0  0
    0.5965   -4.9144   -6.9775 S   0  0  0  0  0  0  0  0  0  0  0  0
    1.6927   -4.7079   -8.4110 C   0  0  0  0  0  0  0  0  0  0  0  0
    1.0805   -5.7566   -4.4681 C   0  0  0  0  0  0  0  0  0  0  0  0
    1.8480   -6.1507   -3.3958 C   0  0  0  0  0  0  0  0  0  0  0  0
    5.1675   -7.4015   -2.6715 C   0  0  0  0  0  0  0  0  0  0  0  0
    6.3610   -7.1557   -1.9889 C   0  0  0  0  0  0  0  0  0  0  0  0
    7.4326   -8.0029   -2.1474 C   0  0  0  0  0  0  0  0  0  0  0  0
    7.3475   -9.0984   -3.0082 C   0  0  0  0  0  0  0  0  0  0  0  0
    8.7460  -10.1707   -3.0692 S   0  0  0  0  0  0  0  0  0  0  0  0
    8.0959  -11.6721   -3.8535 C   0  0  0  0  0  0  0  0  0  0  0  0
    6.1952   -9.2874   -3.7584 C   0  0  0  0  0  0  0  0  0  0  0  0
    5.1101   -8.4496   -3.5847 C   0  0  0  0  0  0  0  0  0  0  0  0
    3.1217   -4.9481   -0.8613 C   0  0  0  0  0  0  0  0  0  0  0  0
    2.5375   -3.6273   -1.8207 S   0  0  0  0  0  0  0  0  0  0  0  0
    4.4851   -8.2144    0.0558 C   0  0  0  0  0  0  0  0  0  0  0  0
    5.0582   -8.9372    1.0749 C   0  0  0  0  0  0  0  0  0  0  0  0
    5.3316   -8.4684    2.4401 C   0  0  0  0  0  0  0  0  0  0  0  0
    4.8683   -7.4855    2.9967 O   0  0  0  0  0  0  0  0  0  0  0  0
    6.2706   -9.4396    3.0171 C   0  0  0  0  0  0  0  0  0  0  0  0
    6.9038   -9.4323    4.2431 C   0  0  0  0  0  0  0  0  0  0  0  0
    7.7605  -10.4735    4.5663 C   0  0  0  0  0  0  0  0  0  0  0  0
    7.9784  -11.5157    3.6642 C   0  0  0  0  0  0  0  0  0  0  0  0
    8.7894  -12.5710    3.8910 O   0  0  0  0  0  0  0  0  0  0  0  0
    9.4851  -12.6570    5.1130 C   0  0  0  0  0  0  0  0  0  0  0  0
    7.3375  -11.5206    2.4144 C   0  0  0  0  0  0  0  0  0  0  0  0
    6.4911  -10.4828    2.0954 C   0  0  0  0  0  0  0  0  0  0  0  0
    5.6978  -10.2187    0.8956 C   0  0  0  0  0  0  0  0  0  0  0  0
    5.5964  -11.0538   -0.1891 C   0  0  0  0  0  0  0  0  0  0  0  0
    6.3453  -12.2339   -0.3655 C   0  0  0  0  0  0  0  0  0  0  0  0
    6.9290  -13.1914   -0.6151 N   0  0  0  0  0  0  0  0  0  0  0  0
    4.7215  -10.8758   -1.2770 C   0  0  0  0  0  0  0  0  0  0  0  0
    4.0222  -10.8352   -2.1892 N   0  0  0  0  0  0  0  0  0  0  0  0
   -4.0109    7.3852    1.8297 H   0  0  0  0  0  0  0  0  0  0  0  0
   -7.9031    6.7211   -3.0358 H   0  0  0  0  0  0  0  0  0  0  0  0
   -8.7551    9.8824    0.8301 H   0  0  0  0  0  0  0  0  0  0  0  0
  -11.6710    9.2262   -0.8591 H   0  0  0  0  0  0  0  0  0  0  0  0
  -11.3984   11.5881   -1.5990 H   0  0  0  0  0  0  0  0  0  0  0  0
   -8.9136   11.8448   -2.3708 H   0  0  0  0  0  0  0  0  0  0  0  0
   -8.5017   10.1967   -4.4119 H   0  0  0  0  0  0  0  0  0  0  0  0
  -10.7353    8.9227   -4.8987 H   0  0  0  0  0  0  0  0  0  0  0  0
  -11.8309   11.2257   -4.1866 H   0  0  0  0  0  0  0  0  0  0  0  0
  -12.6551    9.9200   -3.2979 H   0  0  0  0  0  0  0  0  0  0  0  0
  -11.2715    7.6227   -2.8433 H   0  0  0  0  0  0  0  0  0  0  0  0
   -2.3793    7.4463    4.7087 H   0  0  0  0  0  0  0  0  0  0  0  0
   -4.3472    8.0632    6.0031 H   0  0  0  0  0  0  0  0  0  0  0  0
   -7.7847    9.2422    6.6318 H   0  0  0  0  0  0  0  0  0  0  0  0
   -6.3653    9.3928    5.5732 H   0  0  0  0  0  0  0  0  0  0  0  0
   -6.1812    8.7979    7.2558 H   0  0  0  0  0  0  0  0  0  0  0  0
   -6.6509    5.1217    3.9225 H   0  0  0  0  0  0  0  0  0  0  0  0
   -4.6466    4.4599    2.6492 H   0  0  0  0  0  0  0  0  0  0  0  0
   -0.0892    6.5181    1.5586 H   0  0  0  0  0  0  0  0  0  0  0  0
    2.1623    6.5768    2.5040 H   0  0  0  0  0  0  0  0  0  0  0  0
    3.2444    8.0259    4.3748 H   0  0  0  0  0  0  0  0  0  0  0  0
    4.8036    7.4450    5.0058 H   0  0  0  0  0  0  0  0  0  0  0  0
    4.2868    6.9686    3.3759 H   0  0  0  0  0  0  0  0  0  0  0  0
    0.6889    4.8492    6.1263 H   0  0  0  0  0  0  0  0  0  0  0  0
   -1.5832    4.7874    5.1705 H   0  0  0  0  0  0  0  0  0  0  0  0
   -1.8736    0.8422   -4.3659 H   0  0  0  0  0  0  0  0  0  0  0  0
   -0.1015   -0.4503   -5.4445 H   0  0  0  0  0  0  0  0  0  0  0  0
    2.7810   -2.8081   -5.3666 H   0  0  0  0  0  0  0  0  0  0  0  0
    1.3356   -2.3164   -4.4642 H   0  0  0  0  0  0  0  0  0  0  0  0
    1.4315   -2.0296   -6.2280 H   0  0  0  0  0  0  0  0  0  0  0  0
    2.8359    1.7078   -3.2128 H   0  0  0  0  0  0  0  0  0  0  0  0
    1.0551    3.0248   -2.1452 H   0  0  0  0  0  0  0  0  0  0  0  0
   -3.9734    1.9151   -1.5587 H   0  0  0  0  0  0  0  0  0  0  0  0
   -6.1265    2.6694   -2.5207 H   0  0  0  0  0  0  0  0  0  0  0  0
   -5.8167    5.8623   -6.3314 H   0  0  0  0  0  0  0  0  0  0  0  0
   -7.2438    6.5120   -5.5055 H   0  0  0  0  0  0  0  0  0  0  0  0
   -5.6775    6.4717   -4.6490 H   0  0  0  0  0  0  0  0  0  0  0  0
   -4.0071    4.6682   -5.6492 H   0  0  0  0  0  0  0  0  0  0  0  0
   -1.8784    3.9196   -4.6931 H   0  0  0  0  0  0  0  0  0  0  0  0
    5.4836    1.2361    2.4571 H   0  0  0  0  0  0  0  0  0  0  0  0
    5.4808   -0.4522    1.9149 H   0  0  0  0  0  0  0  0  0  0  0  0
    4.1731    0.5095    4.5113 H   0  0  0  0  0  0  0  0  0  0  0  0
    4.3239   -1.1615    3.9560 H   0  0  0  0  0  0  0  0  0  0  0  0
    5.7626   -0.2459    4.3889 H   0  0  0  0  0  0  0  0  0  0  0  0
    3.8333    2.5097    3.6642 H   0  0  0  0  0  0  0  0  0  0  0  0
    2.3181    3.3072    3.1979 H   0  0  0  0  0  0  0  0  0  0  0  0
    3.3606    4.2344    1.1903 H   0  0  0  0  0  0  0  0  0  0  0  0
    4.3386    4.6582    2.6056 H   0  0  0  0  0  0  0  0  0  0  0  0
    4.8706    3.3789    1.5143 H   0  0  0  0  0  0  0  0  0  0  0  0
   -0.3085   -3.2135    0.9404 H   0  0  0  0  0  0  0  0  0  0  0  0
   -2.1715   -1.6349    1.2370 H   0  0  0  0  0  0  0  0  0  0  0  0
   -1.2413    2.3852    3.8867 H   0  0  0  0  0  0  0  0  0  0  0  0
   -1.9979    1.2104    5.0168 H   0  0  0  0  0  0  0  0  0  0  0  0
   -2.9892    2.4459    4.2091 H   0  0  0  0  0  0  0  0  0  0  0  0
    0.1249    0.5230    4.1281 H   0  0  0  0  0  0  0  0  0  0  0  0
    1.9610   -1.0460    3.8389 H   0  0  0  0  0  0  0  0  0  0  0  0
    1.2985   -3.7975    4.4801 H   0  0  0  0  0  0  0  0  0  0  0  0
    2.7446   -4.6989    6.2564 H   0  0  0  0  0  0  0  0  0  0  0  0
    3.8064   -6.7996    6.8784 H   0  0  0  0  0  0  0  0  0  0  0  0
    4.6578   -7.2250    5.3642 H   0  0  0  0  0  0  0  0  0  0  0  0
    5.4235   -7.5299    6.9544 H   0  0  0  0  0  0  0  0  0  0  0  0
    6.1797   -4.0703    3.8036 H   0  0  0  0  0  0  0  0  0  0  0  0
    4.7311   -3.1277    2.0282 H   0  0  0  0  0  0  0  0  0  0  0  0
    4.9066   -5.9131   -4.8205 H   0  0  0  0  0  0  0  0  0  0  0  0
    3.5540   -5.2388   -6.7282 H   0  0  0  0  0  0  0  0  0  0  0  0
    2.3969   -3.8999   -8.2338 H   0  0  0  0  0  0  0  0  0  0  0  0
    1.0412   -4.4519   -9.2409 H   0  0  0  0  0  0  0  0  0  0  0  0
    2.2058   -5.6415   -8.6210 H   0  0  0  0  0  0  0  0  0  0  0  0
    0.0062   -5.7104   -4.3817 H   0  0  0  0  0  0  0  0  0  0  0  0
    1.3747   -6.4326   -2.4678 H   0  0  0  0  0  0  0  0  0  0  0  0
    6.4281   -6.3169   -1.3124 H   0  0  0  0  0  0  0  0  0  0  0  0
    8.3487   -7.8345   -1.6026 H   0  0  0  0  0  0  0  0  0  0  0  0
    7.9229  -11.5015   -4.9122 H   0  0  0  0  0  0  0  0  0  0  0  0
    8.8659  -12.4259   -3.7223 H   0  0  0  0  0  0  0  0  0  0  0  0
    7.1876  -11.9845   -3.3469 H   0  0  0  0  0  0  0  0  0  0  0  0
    6.1139  -10.1027   -4.4578 H   0  0  0  0  0  0  0  0  0  0  0  0
    4.2008   -8.6311   -4.1360 H   0  0  0  0  0  0  0  0  0  0  0  0
    4.4603   -8.7093   -0.9062 H   0  0  0  0  0  0  0  0  0  0  0  0
    6.7395   -8.6217    4.9357 H   0  0  0  0  0  0  0  0  0  0  0  0
    8.2564  -10.4641    5.5237 H   0  0  0  0  0  0  0  0  0  0  0  0
   10.0612  -13.5789    5.0566 H   0  0  0  0  0  0  0  0  0  0  0  0
    8.7979  -12.7114    5.9631 H   0  0  0  0  0  0  0  0  0  0  0  0
   10.1671  -11.8117    5.2465 H   0  0  0  0  0  0  0  0  0  0  0  0
    7.5385  -12.3404    1.7451 H   0  0  0  0  0  0  0  0  0  0  0  0
  1  2  2  0  0  0  0
  2  3  1  0  0  0  0
  3  4  2  0  0  0  0
  3  5  1  0  0  0  0
  5  6  2  0  0  0  0
  6  7  1  0  0  0  0
  7  8  2  0  0  0  0
  8  9  1  0  0  0  0
  9 10  2  0  0  0  0
 10 11  1  0  0  0  0
 11 12  2  0  0  0  0
 12 13  1  0  0  0  0
 13 14  3  0  0  0  0
 12 15  1  0  0  0  0
 15 16  3  0  0  0  0
  8 17  1  0  0  0  0
 17 18  1  0  0  0  0
 18 19  1  0  0  0  0
 19 20  2  0  0  0  0
 20 21  1  0  0  0  0
 21 22  1  0  0  0  0
 21 23  1  0  0  0  0
  1 24  1  0  0  0  0
 24 25  2  0  0  0  0
 25 26  1  0  0  0  0
 26 27  1  0  0  0  0
 27 28  2  0  0  0  0
 28 29  1  0  0  0  0
 29 30  2  0  0  0  0
 30 31  1  0  0  0  0
 31 32  1  0  0  0  0
 30 33  1  0  0  0  0
 33 34  2  0  0  0  0
 26 35  1  0  0  0  0
 35 36  2  0  0  0  0
 36 37  1  0  0  0  0
 37 38  2  0  0  0  0
 38 39  1  0  0  0  0
 39 40  1  0  0  0  0
 38 41  1  0  0  0  0
 41 42  2  0  0  0  0
 25 43  1  0  0  0  0
 43 44  1  0  0  0  0
 44 45  1  0  0  0  0
 45 46  2  0  0  0  0
 46 47  1  0  0  0  0
 47 48  1  0  0  0  0
 48 49  2  0  0  0  0
 49 50  1  0  0  0  0
 50 51  2  0  0  0  0
 51 52  1  0  0  0  0
 52 53  1  0  0  0  0
 51 54  1  0  0  0  0
 54 55  2  0  0  0  0
 47 56  1  0  0  0  0
 56 57  2  0  0  0  0
 57 58  1  0  0  0  0
 58 59  2  0  0  0  0
 59 60  1  0  0  0  0
 60 61  1  0  0  0  0
 59 62  1  0  0  0  0
 62 63  2  0  0  0  0
 46 64  1  0  0  0  0
 64 65  1  0  0  0  0
 45 66  1  0  0  0  0
 66 67  2  0  0  0  0
 67 68  1  0  0  0  0
 67 69  1  0  0  0  0
 69 70  1  0  0  0  0
 69 71  2  0  0  0  0
 71 72  1  0  0  0  0
 72 73  2  0  0  0  0
 73 74  1  0  0  0  0
 74 75  1  0  0  0  0
 75 76  1  0  0  0  0
 74 77  2  0  0  0  0
 77 78  1  0  0  0  0
 78 79  2  0  0  0  0
 77 80  1  0  0  0  0
 80 81  1  0  0  0  0
 71 82  1  0  0  0  0
 82 83  2  0  0  0  0
 83 84  1  0  0  0  0
 84 85  1  0  0  0  0
 85 86  2  0  0  0  0
 86 87  1  0  0  0  0
 87 88  2  0  0  0  0
 88 89  1  0  0  0  0
 89 90  1  0  0  0  0
 88 91  1  0  0  0  0
 91 92  2  0  0  0  0
 84 93  1  0  0  0  0
 93 94  2  0  0  0  0
 94 95  1  0  0  0  0
 95 96  2  0  0  0  0
 96 97  1  0  0  0  0
 97 98  1  0  0  0  0
 96 99  1  0  0  0  0
 99100  2  0  0  0  0
 83101  1  0  0  0  0
101102  1  0  0  0  0
102103  1  0  0  0  0
103104  2  0  0  0  0
104105  1  0  0  0  0
105106  1  0  0  0  0
106107  2  0  0  0  0
107108  1  0  0  0  0
108109  2  0  0  0  0
109110  1  0  0  0  0
110111  1  0  0  0  0
109112  1  0  0  0  0
112113  2  0  0  0  0
105114  1  0  0  0  0
114115  2  0  0  0  0
115116  1  0  0  0  0
116117  2  0  0  0  0
117118  1  0  0  0  0
118119  1  0  0  0  0
117120  1  0  0  0  0
120121  2  0  0  0  0
104122  1  0  0  0  0
122123  1  0  0  0  0
103124  1  0  0  0  0
124125  2  0  0  0  0
125126  1  0  0  0  0
126127  2  0  0  0  0
126128  1  0  0  0  0
128129  2  0  0  0  0
129130  1  0  0  0  0
130131  2  0  0  0  0
131132  1  0  0  0  0
132133  1  0  0  0  0
131134  1  0  0  0  0
134135  2  0  0  0  0
135136  1  0  0  0  0
136137  2  0  0  0  0
137138  1  0  0  0  0
138139  3  0  0  0  0
137140  1  0  0  0  0
140141  3  0  0  0  0
 11  2  1  0  0  0  0
 23 17  1  0  0  0  0
 65 24  1  0  0  0  0
 79 66  1  0  0  0  0
123 82  1  0  0  0  0
136125  1  0  0  0  0
 10  5  1  0  0  0  0
 22 18  1  0  0  0  0
 34 27  1  0  0  0  0
 42 35  1  0  0  0  0
 64 43  2  0  0  0  0
 79 72  1  0  0  0  0
 92 85  1  0  0  0  0
100 93  1  0  0  0  0
122101  2  0  0  0  0
135128  1  0  0  0  0
 23  7  1  0  0  0  0
 55 48  1  0  0  0  0
 63 56  1  0  0  0  0
113106  1  0  0  0  0
121114  1  0  0  0  0
  1142  1  0  0  0  0
  6143  1  0  0  0  0
  9144  1  0  0  0  0
 17145  1  0  0  0  0
 18146  1  0  0  0  0
 19147  1  0  0  0  0
 20148  1  0  0  0  0
 21149  1  0  0  0  0
 22150  1  0  0  0  0
 22151  1  0  0  0  0
 23152  1  0  0  0  0
 28153  1  0  0  0  0
 29154  1  0  0  0  0
 32155  1  0  0  0  0
 32156  1  0  0  0  0
 32157  1  0  0  0  0
 33158  1  0  0  0  0
 34159  1  0  0  0  0
 36160  1  0  0  0  0
 37161  1  0  0  0  0
 40162  1  0  0  0  0
 40163  1  0  0  0  0
 40164  1  0  0  0  0
 41165  1  0  0  0  0
 42166  1  0  0  0  0
 49167  1  0  0  0  0
 50168  1  0  0  0  0
 53169  1  0  0  0  0
 53170  1  0  0  0  0
 53171  1  0  0  0  0
 54172  1  0  0  0  0
 55173  1  0  0  0  0
 57174  1  0  0  0  0
 58175  1  0  0  0  0
 61176  1  0  0  0  0
 61177  1  0  0  0  0
 61178  1  0  0  0  0
 62179  1  0  0  0  0
 63180  1  0  0  0  0
 75181  1  0  0  0  0
 75182  1  0  0  0  0
 76183  1  0  0  0  0
 76184  1  0  0  0  0
 76185  1  0  0  0  0
 80186  1  0  0  0  0
 80187  1  0  0  0  0
 81188  1  0  0  0  0
 81189  1  0  0  0  0
 81190  1  0  0  0  0
 86191  1  0  0  0  0
 87192  1  0  0  0  0
 90193  1  0  0  0  0
 90194  1  0  0  0  0
 90195  1  0  0  0  0
 91196  1  0  0  0  0
 92197  1  0  0  0  0
 94198  1  0  0  0  0
 95199  1  0  0  0  0
 98200  1  0  0  0  0
 98201  1  0  0  0  0
 98202  1  0  0  0  0
 99203  1  0  0  0  0
100204  1  0  0  0  0
107205  1  0  0  0  0
108206  1  0  0  0  0
111207  1  0  0  0  0
111208  1  0  0  0  0
111209  1  0  0  0  0
112210  1  0  0  0  0
113211  1  0  0  0  0
115212  1  0  0  0  0
116213  1  0  0  0  0
119214  1  0  0  0  0
119215  1  0  0  0  0
119216  1  0  0  0  0
120217  1  0  0  0  0
121218  1  0  0  0  0
124219  1  0  0  0  0
129220  1  0  0  0  0
130221  1  0  0  0  0
133222  1  0  0  0  0
133223  1  0  0  0  0
133224  1  0  0  0  0
134225  1  0  0  0  0
M  END
