186

C         -2.51360        7.68220       -0.16900
C         -2.96610        8.19730       -1.36250
C         -3.33960        7.44090       -2.55900
O         -3.21600        6.24220       -2.75840
C         -3.95470        8.40930       -3.48520
C         -4.44540        8.15860       -4.76430
C         -4.98410        9.26150       -5.38300
C         -5.02600       10.52400       -4.77860
C         -4.52670       10.78960       -3.52490
C         -3.97920        9.67980       -2.87600
C         -3.32950        9.57870       -1.57020
C         -3.09870       10.63200       -0.71780
C         -3.59810       11.93700       -0.89530
N         -3.99120       13.01600       -0.93530
C         -2.31140       10.58610        0.44710
N         -1.65470       10.66460        1.38850
C         -5.71010       11.15780       -5.96460
C         -7.22530       11.41840       -5.82880
C         -7.69380       11.57820       -7.25710
C         -7.65170       10.38300       -7.83170
C         -7.15410        9.39520       -6.80130
C         -7.75830       10.01060       -5.53250
C         -5.66060        9.74960       -6.63990
C         -2.19390        6.37440        0.19360
C         -1.89140        5.97670        1.52030
N         -2.02170        6.75590        2.64160
C         -1.14070        6.54670        3.71700
C         -1.61180        6.53760        5.02950
C         -0.74010        6.33020        6.07360
C          0.61880        6.12620        5.83380
S          1.63130        5.85890        7.25220
C          3.30510        5.67830        6.57170
C          1.09190        6.14450        4.52870
C          0.21750        6.35680        3.48120
C         -3.03030        7.72690        2.76910
C         -4.30590        7.49950        2.24810
C         -5.25230        8.49710        2.28280
C         -4.95580        9.73270        2.85900
S         -6.20190       10.97860        2.77190
C         -5.26550       12.51390        3.02150
C         -3.72100        9.92600        3.46170
C         -2.76160        8.93350        3.40840
C         -1.45560        4.64100        1.55320
S         -0.95640        3.57080        2.82380
C         -0.76730        2.26150        1.66390
C         -1.00750        2.66390        0.35520
N         -0.77710        1.90970       -0.78120
C         -1.57250        2.15170       -1.91270
C         -2.94110        2.36390       -1.77140
C         -3.71500        2.69530       -2.86440
C         -3.12850        2.81550       -4.11600
S         -4.04660        3.30190       -5.54350
C         -5.31210        4.37990       -4.80640
C         -1.77360        2.54030       -4.27300
C         -0.99960        2.21320       -3.18170
C          0.24210        0.95050       -0.83230
C          1.44450        1.13540       -0.14720
C          2.36240        0.11210       -0.06820
C          2.11670       -1.11310       -0.68530
S          3.30010       -2.39370       -0.40630
C          2.69720       -3.77180       -1.41710
C          0.96770       -1.26640       -1.44970
C          0.04230       -0.24430       -1.52090
C         -1.43700        4.01640        0.31230
S         -2.01200        5.04350       -0.95100
C         -0.32080        0.98870        2.13040
S         -0.96480       -0.49800        1.44080
C          0.23330       -1.40730        2.27880
C          0.77700       -2.68740        2.34810
C          1.85090       -2.62070        3.26580
N          1.95680       -1.34770        3.76160
C          3.02920       -0.85480        4.58590
C          4.19550       -0.35620        3.73440
C          1.00030       -0.59230        3.14060
C          0.66650        0.76350        3.06230
C          2.54820       -3.81970        3.40490
C          2.03390       -4.80360        2.58900
S          0.65250       -4.24730        1.63700
C          2.52870       -6.11150        2.33670
S          2.42450       -6.70650        0.71170
C          3.20340       -8.20000        1.14970
C          3.52750       -8.20710        2.51050
C          4.20200       -9.33560        3.17570
O          4.81090      -10.20400        2.57190
C          4.06360       -9.30580        4.62820
C          4.37000      -10.35230        5.46190
C          4.82940      -11.72040        5.10970
C          3.66430      -12.58150        4.61020
S          4.06480       -9.92960        7.11130
C          3.55810       -8.32810        6.68730
C          3.18170       -7.36210        7.75140
C          4.39620       -6.53460        8.18230
C          3.60840       -8.14260        5.32880
C          3.25200       -6.89370        4.64970
O          3.03550       -5.85420        5.25270
C          3.14260       -7.03220        3.19090
C          3.38400       -9.30220        0.29370
C          3.23590       -9.38760       -1.06020
C          3.06500       -8.26790       -1.99970
O          2.77980       -7.11300       -1.73580
C          3.34510       -8.81800       -3.33690
C          3.39720       -8.11590       -4.54010
C          3.70430       -8.89450       -5.62990
C          3.94930      -10.27130       -5.53280
C          3.89820      -10.97790       -4.35480
C          3.58030      -10.20560       -3.23390
C          3.43140      -10.59830       -1.83640
C          3.38390      -11.87790       -1.35190
C          3.07510      -12.22260       -0.01680
N          2.77920      -12.59080        1.02980
C          3.56030      -13.03160       -2.14390
N          3.70080      -14.00470       -2.73670
C          4.20540      -10.41180       -7.01220
C          3.06720      -11.02700       -7.85350
C          3.39260      -10.60150       -9.26710
C          3.15730       -9.29900       -9.36050
C          2.66860       -8.82210       -8.01170
C          1.90610      -10.07110       -7.55100
C          3.92860       -8.87790       -7.12170
H         -2.40250        8.39950        0.63370
H         -4.37880        7.17670       -5.20470
H         -4.55230       11.76940       -3.07770
H         -5.17740       11.98120       -6.43640
H         -7.49030       12.21110       -5.13450
H         -7.94570       12.52210       -7.70390
H         -7.86110       10.12890       -8.85430
H         -7.35550        8.34470       -6.99430
H         -7.38150        9.57940       -4.60680
H         -8.84640        9.97380       -5.53500
H         -5.09310        9.63380       -7.56150
H         -2.66360        6.68800        5.22010
H         -1.10020        6.31610        7.09060
H          3.95270        5.52390        7.42920
H          3.59480        6.58620        6.05100
H          3.35000        4.81350        5.91620
H          2.13800        6.00360        4.31080
H          0.59190        6.38520        2.46850
H         -4.53590        6.54930        1.78970
H         -6.23130        8.33730        1.85810
H         -4.99110       12.62520        4.06650
H         -5.93470       13.31710        2.72950
H         -4.38900       12.51170        2.38030
H         -3.47890       10.85620        3.94800
H         -1.78810        9.10760        3.83900
H         -3.39680        2.27050       -0.79630
H         -4.77160        2.86070       -2.73000
H         -6.11720        3.78760       -4.38050
H         -5.70180        4.98820       -5.61720
H         -4.83520        4.99950       -4.05180
H         -1.33110        2.61370       -5.25450
H          0.05840        2.03030       -3.29830
H          1.64370        2.07800        0.34070
H          3.28070        0.24430        0.48370
H          3.40380       -4.58370       -1.27980
H          2.67370       -3.47610       -2.46180
H          1.71850       -4.08960       -1.07060
H          0.76190       -2.18880       -1.96710
H         -0.87030       -0.38760       -2.07970
H          3.35660       -1.66960        5.23600
H          2.64050       -0.04460        5.20910
H          4.55700       -1.15440        3.09010
H          5.00950       -0.02140        4.37140
H          3.87520        0.47300        3.10770
H          1.15300        1.56250        3.59220
H          3.40010       -3.97550        4.03740
H          5.28090      -12.18670        5.98770
H          5.57610      -11.64880        4.31680
H          4.01040      -13.59530        4.43060
H          2.86450      -12.61040        5.34740
H          3.27340      -12.18670        3.67670
H          2.78220       -7.90270        8.61180
H          2.41840       -6.68640        7.36120
H          4.76460       -5.95740        7.33860
H          4.11390       -5.84890        8.97640
H          5.19220       -7.18220        8.54380
H          3.73640      -10.19010        0.80670
H          3.21110       -7.05360       -4.57070
H          4.09780      -12.03470       -4.29210
H          5.18940      -10.78500       -7.28930
H          2.90060      -12.08760       -7.68680
H          3.79970      -11.25880      -10.01270
H          3.32860       -8.65090      -10.20000
H          2.13760       -7.87420       -7.99110
H          1.03470      -10.27320       -8.17150
H          1.61000      -10.04970       -6.50380
H          4.72740       -8.22790       -7.47410
