153

C          5.13340        6.47840       -5.14910
C          4.66940        6.50260       -6.41390
C          3.78270        5.45890       -7.01380
O          3.58830        4.33100       -6.62060
C          3.13600        6.11550       -8.16300
C          2.13260        5.57970       -8.96910
C          1.70200        6.42350       -9.96350
C          2.22270        7.71400      -10.14190
C          3.20940        8.25670       -9.35540
C          3.66950        7.40970       -8.34150
C          4.69010        7.63870       -7.32930
C          5.57370        8.67920       -7.28150
C          6.61100        8.79210       -6.32880
N          7.48920        8.93200       -5.60380
C          5.60140        9.74350       -8.20820
N          5.67020       10.63260       -8.93040
C          1.32980        7.99650      -11.32320
C          1.96200        7.92330      -12.73510
C          3.12670        6.96940      -12.63430
C          2.63670        5.74820      -12.46830
C          1.13160        5.85400      -12.45320
C          0.93230        7.02090      -13.43360
C          0.75270        6.55900      -11.12690
C          5.04450        5.32270       -4.26810
C          5.48770        4.05630       -4.65390
C          5.31080        2.99990       -3.78430
C          4.68020        3.21420       -2.55730
C          4.33870        4.53750       -2.24810
N          4.52570        5.55000       -3.06170
C          4.29820        2.10870       -1.67940
C          4.17430        2.23630       -0.29340
F          4.61150        3.35070        0.32670
C          3.60610        1.25990        0.49320
C          3.14660        0.07000       -0.07170
C          3.38930       -0.11220       -1.43420
F          2.99870       -1.25690       -2.02810
C          3.92950        0.87780       -2.22400
C          2.34510       -0.84980        0.71320
C          1.23920       -0.48620        1.46370
N          0.70880        0.78910        1.53550
C          0.05910        1.18660        2.71560
C         -1.11080        1.93720        2.66130
C         -1.75530        2.29900        3.82710
C         -1.26100        1.92130        5.06900
C         -1.98560        2.27410        6.33130
C         -0.08450        1.18360        5.11440
C          0.57520        0.82360        3.95700
C          0.73210        1.64230        0.42170
C          0.53730        1.14380       -0.86500
C          0.63350        1.98090       -1.95690
C          0.91030        3.33550       -1.80550
C          1.02070        4.22510       -3.00590
C          1.05800        3.83330       -0.51730
C          0.97470        3.00360        0.58450
C          0.66580       -1.61550        2.10220
S         -0.73900       -1.83840        3.08100
C         -0.42820       -3.57660        3.13910
C          0.69570       -3.94330        2.35690
N          1.13660       -5.22020        2.13390
C          2.51640       -5.42760        1.93940
C          2.97480       -6.24670        0.91240
C          4.33010       -6.44140        0.73920
C          5.25740       -5.82900        1.57470
C          6.72650       -6.02330        1.36100
C          4.78870       -5.01600        2.59960
C          3.43590       -4.81650        2.78720
C          0.26190       -6.31040        1.97200
C         -0.96510       -6.14970        1.33210
C         -1.81750       -7.22620        1.19380
C         -1.46680       -8.48630        1.66610
C         -2.40650       -9.64600        1.54680
C         -0.22620       -8.64240        2.27210
C          0.63100       -7.57180        2.43190
C          1.31490       -2.80620        1.80580
S          2.64990       -2.57230        0.72340
C         -1.13580       -4.48400        3.92680
C         -2.27760       -4.31980        4.67620
C         -3.10210       -3.11180        4.75430
O         -2.85610       -2.00720        4.29930
C         -4.32070       -3.49160        5.49270
C         -5.40960       -2.67720        5.79060
C         -6.40710       -3.31190        6.49160
C         -6.32770       -4.65910        6.86560
C         -5.25810       -5.47380        6.57690
C         -4.23120       -4.84710        5.86690
C         -2.94490       -5.37100        5.40690
C         -2.46680       -6.63480        5.66010
C         -3.20070       -7.65430        6.29720
N         -3.74110       -8.54420        6.78360
C         -1.17020       -7.09330        5.36000
N         -0.12290       -7.53740        5.19050
C         -7.67050       -4.63080        7.55190
C         -7.68740       -4.56060        9.09890
C         -6.39920       -3.89300        9.51180
C         -6.47380       -2.61660        9.15910
C         -7.81370       -2.39830        8.50110
C         -8.67110       -3.39620        9.29580
C         -7.75850       -3.12840        7.13630
H          5.52550        7.37860       -4.69300
H          1.75410        4.58490       -8.79320
H          3.59370        9.25350       -9.49520
H          0.64960        8.83890      -11.21570
H          2.17060        8.88940      -13.18630
H          4.15540        7.27890      -12.63730
H          3.17410        4.83250      -12.30480
H          0.58330        4.93630      -12.64870
H          1.21820        6.76720      -14.45310
H         -0.07800        7.42750      -13.42500
H         -0.30550        6.46110      -10.89230
H          5.97040        3.91520       -5.60720
H          5.65920        2.01450       -4.05550
H          3.86430        4.78810       -1.31090
H          3.49790        1.43510        1.55170
H          3.99980        0.70710       -3.28630
H         -1.51470        2.22410        1.70170
H         -2.66810        2.87400        3.76860
H         -1.28600        2.56770        7.11150
H         -2.68920        3.08580        6.16400
H         -2.54210        1.40750        6.68920
H          0.32220        0.88820        6.07080
H          1.49390        0.25690        4.00930
H          0.31470        0.09590       -1.00370
H          0.48980        1.57710       -2.94870
H          1.63860        3.76240       -3.77420
H          1.45610        5.18570       -2.74310
H          0.03380        4.40080       -3.43530
H          1.25560        4.88550       -0.37170
H          1.10900        3.40430        1.57840
H          2.26470       -6.72240        0.25260
H          4.67510       -7.07600       -0.06400
H          7.27290       -5.91550        2.29500
H          6.93170       -7.00530        0.94160
H          7.10110       -5.27410        0.66270
H          5.49230       -4.53870        3.26600
H          3.08190       -4.19490        3.59680
H         -1.24840       -5.17880        0.95240
H         -2.76950       -7.08580        0.70200
H         -3.16730       -9.45730        0.79310
H         -1.86730      -10.55430        1.28680
H         -2.90610       -9.81770        2.50090
H          0.06660       -9.61220        2.64470
H          1.58110       -7.70420        2.92480
H         -0.71670       -5.48200        3.92630
H         -5.42930       -1.64370        5.48120
H         -5.21390       -6.50900        6.87140
H         -8.42210       -5.31310        7.15960
H         -7.91920       -5.50150        9.59080
H         -5.56880       -4.41420        9.95080
H         -5.71760       -1.85820        9.24450
H         -8.16150       -1.36970        8.44950
H         -9.65010       -3.57570        8.85340
H         -8.78610       -3.11380       10.34130
H         -8.56860       -2.83000        6.47330
