158

C         -4.08120        2.90940        6.40770
C         -4.07950        3.76440        5.33450
C         -2.90780        4.38270        4.66710
O         -1.73170        4.09020        4.75650
C         -3.44650        5.50930        3.88100
C         -2.71310        6.40530        3.10610
C         -3.48120        7.33770        2.45230
C         -4.87600        7.39190        2.57760
C         -5.61070        6.52030        3.34490
C         -4.84890        5.54750        3.99660
C         -5.26570        4.42330        4.82590
C         -6.55430        3.97870        4.97850
C         -7.68520        4.60160        4.41540
N         -8.65120        5.04060        3.97480
C         -6.91630        2.78060        5.62810
N         -7.28870        1.79790        6.09320
C         -4.99470        8.55860        1.63000
C         -5.48400        8.25870        0.19150
C         -5.10640        6.82750       -0.10040
C         -3.78710        6.77450       -0.22450
C         -3.24860        8.16870       -0.01560
C         -4.39940        8.99510       -0.61090
C         -3.44120        8.49540        1.48680
C         -3.02500        2.13730        6.93690
C         -1.92600        1.72160        6.24410
C         -0.86270        1.00170        6.82460
C          0.25320        0.56710        6.16990
C          0.52000        0.55510        4.78210
C          1.78140        0.32380        4.21280
N          2.96390        0.24630        4.91810
C          3.97160       -0.58360        4.39840
C          3.63420       -1.84910        3.92310
C          4.57790       -2.64400        3.30640
C          5.87970       -2.18410        3.16020
S          7.12410       -3.10080        2.30920
C          6.13620       -4.10220        1.15650
C          6.23800       -0.95040        3.69870
C          5.29500       -0.15420        4.30990
C          3.24260        1.11050        5.98800
C          2.72490        2.40270        6.02150
C          2.99050        3.24010        7.08610
C          3.79060        2.80370        8.13410
S          4.19360        3.77930        9.54770
C          3.21810        5.29390        9.32610
C          4.32880        1.51840        8.09270
C          4.05690        0.67920        7.03560
C          1.69850        0.19900        2.80940
S          2.85020       -0.14870        1.56010
C          1.59320       -0.02720        0.35590
C          0.32530        0.17770        0.90380
N         -0.85850        0.03500        0.20690
C         -0.94280       -0.89230       -0.84530
C         -1.63430       -0.59060       -2.01960
C         -1.60020       -1.45550       -3.09260
C         -0.88410       -2.64880       -3.01610
S         -0.84560       -3.65610       -4.46280
C          0.52160       -4.81540       -4.15760
C         -0.26490       -2.99290       -1.82070
C         -0.29730       -2.12420       -0.74910
C         -1.96310        0.82210        0.54730
C         -1.79200        2.15110        0.93910
C         -2.88530        2.92200        1.26330
C         -4.17130        2.38620        1.20330
S         -5.49830        3.47620        1.60250
C         -6.96390        2.40570        1.65200
C         -4.34460        1.06370        0.81570
C         -3.24880        0.28950        0.49290
C          0.41210        0.34310        2.30420
S         -0.73430        0.67400        3.55180
C          1.86230       -0.21520       -1.03130
C          2.61350       -1.29730       -1.52570
C          2.53340       -1.72080       -2.91340
N          3.08860       -2.92130       -3.07790
S          3.72520       -3.41380       -1.69170
N          3.27680       -2.17660       -0.77050
C          1.82000       -0.98950       -3.88870
C          1.20390        0.18650       -3.40320
N          0.51810        1.06080       -4.14000
S         -0.05040        2.22000       -3.18930
N          0.53110        1.68810       -1.79100
C          1.20950        0.55830       -2.00970
C          1.51930       -1.40790       -5.20860
C          2.18520       -2.30060       -5.99640
C          3.59350       -2.73280       -5.84430
O          4.43600       -2.27180       -5.10300
C          3.81160       -3.75120       -6.89170
C          4.96930       -4.49510       -7.10430
C          4.88660       -5.37300       -8.15800
C          3.73960       -5.49200       -8.95390
C          2.59600       -4.75360       -8.76470
C          2.65570       -3.86000       -7.69070
C          1.64780       -2.92750       -7.18850
C          0.40240       -2.73100       -7.72780
C         -0.08530       -3.40160       -8.86890
N         -0.54910       -3.90670       -9.79030
C         -0.58140       -1.83410       -7.25700
N         -1.44450       -1.13160       -6.97130
C          4.35340       -6.56440       -9.81890
C          3.91240       -8.02860       -9.57370
C          3.47870       -8.10970       -8.13140
C          4.56310       -7.99880       -7.37570
C          5.74970       -7.84090       -8.29370
C          5.29040       -8.70300       -9.48040
C          5.63060       -6.43380       -8.93040
H         -5.01050        2.84460        6.96420
H         -1.63830        6.33150        3.04090
H         -6.68270        6.57430        3.43440
H         -5.43330        9.46720        2.03790
H         -6.51900        8.53010        0.00210
H         -5.80670        6.01400       -0.12180
H         -3.17060        5.90820       -0.37910
H         -2.24750        8.35990       -0.39420
H         -4.33530       10.05780       -0.38030
H         -4.50440        8.85770       -1.68600
H         -2.86400        9.36330        1.80070
H         -3.14970        1.79880        7.95890
H         -1.85030        1.98120        5.20190
H         -0.90160        0.84370        7.89500
H          1.05540        0.16280        6.77590
H          2.61960       -2.20440        4.03020
H          4.28880       -3.61610        2.94150
H          5.71830       -4.96610        1.66560
H          5.35540       -3.48130        0.72680
H          6.82320       -4.43170        0.38330
H          7.25810       -0.61220        3.60420
H          5.56970        0.81670        4.69320
H          2.10670        2.75800        5.21130
H          2.57170        4.23280        7.07750
H          3.38920        5.88390       10.22110
H          2.16410        5.04600        9.24270
H          3.56680        5.83970        8.45410
H          4.95500        1.18520        8.90580
H          4.46810       -0.31900        7.01610
H         -2.17180        0.34350       -2.09500
H         -2.10110       -1.20370       -4.01480
H          0.67000       -5.33990       -5.09700
H          1.42240       -4.26480       -3.89810
H          0.24820       -5.52780       -3.38450
H          0.24850       -3.93570       -1.71480
H          0.20040       -2.39580        0.17080
H         -0.80010        2.57510        0.96240
H         -2.76100        3.95280        1.55810
H         -6.81660        1.61050        2.37770
H         -7.78100        3.04760        1.96900
H         -7.17310        2.00820        0.66320
H         -5.32680        0.62330        0.76310
H         -3.38820       -0.73920        0.19580
H          0.62040       -0.94930       -5.60100
H          5.83310       -4.36680       -6.47070
H          1.72550       -4.85220       -9.39130
H          4.44280       -6.33020      -10.87770
H          3.21230       -8.41820      -10.30780
H          2.45340       -8.17910       -7.81780
H          4.62500       -7.95580       -6.30380
H          6.72290       -8.06080       -7.86240
H          5.89920       -8.57100      -10.37380
H          5.22590       -9.76150       -9.23250
H          6.55470       -6.11670       -9.40990
