
  xtb     02092217413D
 energy: -350.153941203989 gnorm: 0.000812058253 xtb: 6.4.1 (unknown)
206227  0     0  0            999 V2000
    0.9755    7.0590    0.3883 C   0  0  0  0  0  0  0  0  0  0  0  0
    1.2430    7.6954    1.5799 C   0  0  0  0  0  0  0  0  0  0  0  0
    2.0703    7.1287    2.6589 C   0  0  0  0  0  0  0  0  0  0  0  0
    2.6236    6.0442    2.6669 O   0  0  0  0  0  0  0  0  0  0  0  0
    2.2058    8.2041    3.6639 C   0  0  0  0  0  0  0  0  0  0  0  0
    2.8748    8.1400    4.8825 C   0  0  0  0  0  0  0  0  0  0  0  0
    2.8030    9.2964    5.6232 C   0  0  0  0  0  0  0  0  0  0  0  0
    2.1401   10.4453    5.1744 C   0  0  0  0  0  0  0  0  0  0  0  0
    1.4840   10.5262    3.9695 C   0  0  0  0  0  0  0  0  0  0  0  0
    1.5250    9.3523    3.2137 C   0  0  0  0  0  0  0  0  0  0  0  0
    0.9025    9.0461    1.9298 C   0  0  0  0  0  0  0  0  0  0  0  0
   -0.0136    9.8293    1.2693 C   0  0  0  0  0  0  0  0  0  0  0  0
   -0.7492    9.3991    0.1474 C   0  0  0  0  0  0  0  0  0  0  0  0
   -1.4261    9.1004   -0.7320 N   0  0  0  0  0  0  0  0  0  0  0  0
   -0.4267   11.1061    1.6890 C   0  0  0  0  0  0  0  0  0  0  0  0
   -0.8329   12.1413    1.9804 N   0  0  0  0  0  0  0  0  0  0  0  0
    2.4785   11.2267    6.4199 C   0  0  0  0  0  0  0  0  0  0  0  0
    1.3418   11.4113    7.4466 C   0  0  0  0  0  0  0  0  0  0  0  0
    2.0628   11.7579    8.7288 C   0  0  0  0  0  0  0  0  0  0  0  0
    2.6718   10.6601    9.1584 C   0  0  0  0  0  0  0  0  0  0  0  0
    2.3745    9.5537    8.1717 C   0  0  0  0  0  0  0  0  0  0  0  0
    0.9577    9.9567    7.7430 C   0  0  0  0  0  0  0  0  0  0  0  0
    3.2038    9.9393    6.9278 C   0  0  0  0  0  0  0  0  0  0  0  0
    0.9185    5.6774    0.1847 C   0  0  0  0  0  0  0  0  0  0  0  0
    0.6712    4.6077    1.0690 C   0  0  0  0  0  0  0  0  0  0  0  0
    0.3566    4.6536    2.4003 N   0  0  0  0  0  0  0  0  0  0  0  0
    0.6891    3.5107    3.1642 C   0  0  0  0  0  0  0  0  0  0  0  0
   -0.2680    2.8887    3.9557 C   0  0  0  0  0  0  0  0  0  0  0  0
    0.0432    1.7338    4.6472 C   0  0  0  0  0  0  0  0  0  0  0  0
    1.3194    1.1928    4.5563 C   0  0  0  0  0  0  0  0  0  0  0  0
    1.8188   -0.2949    5.3499 S   0  0  0  0  0  0  0  0  0  0  0  0
    0.3932   -0.7552    6.3676 C   0  0  0  0  0  0  0  0  0  0  0  0
    2.2893    1.8396    3.7900 C   0  0  0  0  0  0  0  0  0  0  0  0
    1.9800    2.9882    3.0994 C   0  0  0  0  0  0  0  0  0  0  0  0
   -0.2675    5.7221    3.0415 C   0  0  0  0  0  0  0  0  0  0  0  0
   -1.1985    6.5327    2.3941 C   0  0  0  0  0  0  0  0  0  0  0  0
   -1.7598    7.6197    3.0366 C   0  0  0  0  0  0  0  0  0  0  0  0
   -1.4007    7.9212    4.3445 C   0  0  0  0  0  0  0  0  0  0  0  0
   -1.9679    9.3270    5.2382 S   0  0  0  0  0  0  0  0  0  0  0  0
   -3.1363   10.1401    4.1150 C   0  0  0  0  0  0  0  0  0  0  0  0
   -0.5161    7.0763    5.0166 C   0  0  0  0  0  0  0  0  0  0  0  0
    0.0430    5.9958    4.3779 C   0  0  0  0  0  0  0  0  0  0  0  0
    0.7020    3.3787    0.3676 C   0  0  0  0  0  0  0  0  0  0  0  0
    0.4289    1.7259    0.7974 S   0  0  0  0  0  0  0  0  0  0  0  0
    0.6163    1.1954   -0.8781 C   0  0  0  0  0  0  0  0  0  0  0  0
    0.8615    2.2727   -1.7178 C   0  0  0  0  0  0  0  0  0  0  0  0
    1.1305    2.2945   -3.1013 N   0  0  0  0  0  0  0  0  0  0  0  0
    0.0652    2.3012   -4.0004 C   0  0  0  0  0  0  0  0  0  0  0  0
   -1.2495    2.3149   -3.5360 C   0  0  0  0  0  0  0  0  0  0  0  0
   -2.3226    2.2263   -4.4030 C   0  0  0  0  0  0  0  0  0  0  0  0
   -2.1079    2.1227   -5.7677 C   0  0  0  0  0  0  0  0  0  0  0  0
   -3.3787    1.9448   -6.9811 S   0  0  0  0  0  0  0  0  0  0  0  0
   -4.9155    1.9316   -6.0202 C   0  0  0  0  0  0  0  0  0  0  0  0
   -0.8014    2.1522   -6.2449 C   0  0  0  0  0  0  0  0  0  0  0  0
    0.2660    2.2487   -5.3822 C   0  0  0  0  0  0  0  0  0  0  0  0
    2.4271    2.7588   -3.3838 C   0  0  0  0  0  0  0  0  0  0  0  0
    3.4681    2.3317   -2.5546 C   0  0  0  0  0  0  0  0  0  0  0  0
    4.7652    2.7249   -2.7890 C   0  0  0  0  0  0  0  0  0  0  0  0
    5.0680    3.5403   -3.8735 C   0  0  0  0  0  0  0  0  0  0  0  0
    6.7687    3.9374   -4.1455 S   0  0  0  0  0  0  0  0  0  0  0  0
    6.8103    4.2771   -5.9285 C   0  0  0  0  0  0  0  0  0  0  0  0
    4.0331    4.0273   -4.6587 C   0  0  0  0  0  0  0  0  0  0  0  0
    2.7263    3.6599   -4.4024 C   0  0  0  0  0  0  0  0  0  0  0  0
    0.9113    3.4872   -0.9958 C   0  0  0  0  0  0  0  0  0  0  0  0
    1.0886    5.1269   -1.4914 S   0  0  0  0  0  0  0  0  0  0  0  0
    0.4474   -0.2112   -1.0688 C   0  0  0  0  0  0  0  0  0  0  0  0
    0.3813   -1.0324   -2.1847 C   0  0  0  0  0  0  0  0  0  0  0  0
    0.5456   -0.7129   -3.5426 N   0  0  0  0  0  0  0  0  0  0  0  0
   -0.5878   -1.0173   -4.3150 C   0  0  0  0  0  0  0  0  0  0  0  0
   -1.8428   -0.7503   -3.7602 C   0  0  0  0  0  0  0  0  0  0  0  0
   -2.9959   -1.0096   -4.4630 C   0  0  0  0  0  0  0  0  0  0  0  0
   -2.9322   -1.5200   -5.7548 C   0  0  0  0  0  0  0  0  0  0  0  0
   -4.4582   -1.7625   -6.6121 S   0  0  0  0  0  0  0  0  0  0  0  0
   -3.9571   -1.6126   -8.3505 C   0  0  0  0  0  0  0  0  0  0  0  0
   -1.6943   -1.8459   -6.2900 C   0  0  0  0  0  0  0  0  0  0  0  0
   -0.5375   -1.6189   -5.5700 C   0  0  0  0  0  0  0  0  0  0  0  0
    1.8289   -0.5113   -4.0512 C   0  0  0  0  0  0  0  0  0  0  0  0
    2.9483   -0.6954   -3.2404 C   0  0  0  0  0  0  0  0  0  0  0  0
    4.2242   -0.4287   -3.7008 C   0  0  0  0  0  0  0  0  0  0  0  0
    4.4167    0.0287   -4.9946 C   0  0  0  0  0  0  0  0  0  0  0  0
    5.9803    0.4545   -5.6944 S   0  0  0  0  0  0  0  0  0  0  0  0
    7.1588    0.2085   -4.3393 C   0  0  0  0  0  0  0  0  0  0  0  0
    3.3100    0.1729   -5.8255 C   0  0  0  0  0  0  0  0  0  0  0  0
    2.0409   -0.0994   -5.3691 C   0  0  0  0  0  0  0  0  0  0  0  0
    0.0352   -2.3582   -1.8257 C   0  0  0  0  0  0  0  0  0  0  0  0
   -0.2979   -3.7687   -2.7659 S   0  0  0  0  0  0  0  0  0  0  0  0
   -0.5995   -4.6768   -1.2998 C   0  0  0  0  0  0  0  0  0  0  0  0
   -0.5032   -3.9077   -0.1482 C   0  0  0  0  0  0  0  0  0  0  0  0
   -0.8497   -4.3537    1.1200 N   0  0  0  0  0  0  0  0  0  0  0  0
   -0.0287   -4.0811    2.2182 C   0  0  0  0  0  0  0  0  0  0  0  0
    1.3343   -3.8484    2.0567 C   0  0  0  0  0  0  0  0  0  0  0  0
    2.1526   -3.6432    3.1512 C   0  0  0  0  0  0  0  0  0  0  0  0
    1.6247   -3.6837    4.4332 C   0  0  0  0  0  0  0  0  0  0  0  0
    2.5856   -3.5478    5.9081 S   0  0  0  0  0  0  0  0  0  0  0  0
    4.2206   -3.0332    5.3216 C   0  0  0  0  0  0  0  0  0  0  0  0
    0.2549   -3.8821    4.5979 C   0  0  0  0  0  0  0  0  0  0  0  0
   -0.5641   -4.0638    3.5076 C   0  0  0  0  0  0  0  0  0  0  0  0
   -1.9591   -5.2097    1.2467 C   0  0  0  0  0  0  0  0  0  0  0  0
   -3.1175   -4.9491    0.5196 C   0  0  0  0  0  0  0  0  0  0  0  0
   -4.1818   -5.8303    0.5354 C   0  0  0  0  0  0  0  0  0  0  0  0
   -4.1094   -6.9901    1.2938 C   0  0  0  0  0  0  0  0  0  0  0  0
   -5.3613   -8.2361    1.3218 S   0  0  0  0  0  0  0  0  0  0  0  0
   -6.6871   -7.5634    0.2793 C   0  0  0  0  0  0  0  0  0  0  0  0
   -2.9753   -7.2274    2.0696 C   0  0  0  0  0  0  0  0  0  0  0  0
   -1.9118   -6.3532    2.0464 C   0  0  0  0  0  0  0  0  0  0  0  0
   -0.1169   -2.5835   -0.4689 C   0  0  0  0  0  0  0  0  0  0  0  0
    0.1693   -1.1314    0.4207 S   0  0  0  0  0  0  0  0  0  0  0  0
   -0.9930   -6.0552   -1.3244 C   0  0  0  0  0  0  0  0  0  0  0  0
   -2.3765   -6.5887   -2.2597 S   0  0  0  0  0  0  0  0  0  0  0  0
   -2.3499   -8.1180   -1.4609 C   0  0  0  0  0  0  0  0  0  0  0  0
   -3.2971   -9.1523   -1.5094 C   0  0  0  0  0  0  0  0  0  0  0  0
   -3.0892  -10.2599   -0.6782 C   0  0  0  0  0  0  0  0  0  0  0  0
   -2.0022  -10.4101    0.1038 O   0  0  0  0  0  0  0  0  0  0  0  0
   -1.0561   -9.4240    0.2198 C   0  0  0  0  0  0  0  0  0  0  0  0
   -0.1316   -9.5992    0.9697 O   0  0  0  0  0  0  0  0  0  0  0  0
   -1.2733   -8.2290   -0.5842 C   0  0  0  0  0  0  0  0  0  0  0  0
   -0.5130   -7.0476   -0.5146 C   0  0  0  0  0  0  0  0  0  0  0  0
   -4.1431  -11.1661   -0.7281 C   0  0  0  0  0  0  0  0  0  0  0  0
   -5.1747  -10.7523   -1.5613 C   0  0  0  0  0  0  0  0  0  0  0  0
   -4.8145   -9.2191   -2.3223 S   0  0  0  0  0  0  0  0  0  0  0  0
   -6.3648  -11.4870   -1.7404 C   0  0  0  0  0  0  0  0  0  0  0  0
   -7.4858  -11.1659   -2.4428 C   0  0  0  0  0  0  0  0  0  0  0  0
   -7.7815   -9.9438   -3.1910 C   0  0  0  0  0  0  0  0  0  0  0  0
   -7.0559   -8.9775   -3.3462 O   0  0  0  0  0  0  0  0  0  0  0  0
   -9.1564  -10.1074   -3.7145 C   0  0  0  0  0  0  0  0  0  0  0  0
   -9.9097   -9.2400   -4.4836 C   0  0  0  0  0  0  0  0  0  0  0  0
  -11.1878   -9.6373   -4.8551 C   0  0  0  0  0  0  0  0  0  0  0  0
  -11.6957  -10.8688   -4.4649 C   0  0  0  0  0  0  0  0  0  0  0  0
  -10.9413  -11.7421   -3.6908 C   0  0  0  0  0  0  0  0  0  0  0  0
   -9.6690  -11.3511   -3.3200 C   0  0  0  0  0  0  0  0  0  0  0  0
   -8.6571  -12.0702   -2.5077 C   0  0  0  0  0  0  0  0  0  0  0  0
   -8.7588  -13.1640   -2.0002 O   0  0  0  0  0  0  0  0  0  0  0  0
    0.8015    7.6652   -0.4930 H   0  0  0  0  0  0  0  0  0  0  0  0
    3.3850    7.2402    5.1892 H   0  0  0  0  0  0  0  0  0  0  0  0
    0.9842   11.4182    3.6298 H   0  0  0  0  0  0  0  0  0  0  0  0
    3.0685   12.1287    6.2680 H   0  0  0  0  0  0  0  0  0  0  0  0
    0.5480   12.0824    7.1313 H   0  0  0  0  0  0  0  0  0  0  0  0
    2.1007   12.7460    9.1488 H   0  0  0  0  0  0  0  0  0  0  0  0
    3.3205   10.5484   10.0076 H   0  0  0  0  0  0  0  0  0  0  0  0
    2.5233    8.5350    8.5204 H   0  0  0  0  0  0  0  0  0  0  0  0
    0.5794    9.4207    6.8753 H   0  0  0  0  0  0  0  0  0  0  0  0
    0.2409    9.8780    8.5584 H   0  0  0  0  0  0  0  0  0  0  0  0
    4.2729    9.9866    7.1280 H   0  0  0  0  0  0  0  0  0  0  0  0
   -1.2634    3.3039    4.0175 H   0  0  0  0  0  0  0  0  0  0  0  0
   -0.7221    1.2598    5.2398 H   0  0  0  0  0  0  0  0  0  0  0  0
   -0.4483   -1.0115    5.7304 H   0  0  0  0  0  0  0  0  0  0  0  0
    0.1500    0.0559    7.0476 H   0  0  0  0  0  0  0  0  0  0  0  0
    0.7115   -1.6285    6.9286 H   0  0  0  0  0  0  0  0  0  0  0  0
    3.2851    1.4264    3.7468 H   0  0  0  0  0  0  0  0  0  0  0  0
    2.7264    3.5074    2.5189 H   0  0  0  0  0  0  0  0  0  0  0  0
   -1.4890    6.3166    1.3769 H   0  0  0  0  0  0  0  0  0  0  0  0
   -2.4655    8.2307    2.4964 H   0  0  0  0  0  0  0  0  0  0  0  0
   -2.6177   10.5157    3.2379 H   0  0  0  0  0  0  0  0  0  0  0  0
   -3.5446   10.9733    4.6786 H   0  0  0  0  0  0  0  0  0  0  0  0
   -3.9318    9.4515    3.8461 H   0  0  0  0  0  0  0  0  0  0  0  0
   -0.2594    7.2937    6.0418 H   0  0  0  0  0  0  0  0  0  0  0  0
    0.7503    5.3671    4.8964 H   0  0  0  0  0  0  0  0  0  0  0  0
   -1.4440    2.3913   -2.4761 H   0  0  0  0  0  0  0  0  0  0  0  0
   -3.3202    2.2357   -3.9943 H   0  0  0  0  0  0  0  0  0  0  0  0
   -5.7140    1.8239   -6.7477 H   0  0  0  0  0  0  0  0  0  0  0  0
   -4.9183    1.0817   -5.3450 H   0  0  0  0  0  0  0  0  0  0  0  0
   -5.0260    2.8704   -5.4853 H   0  0  0  0  0  0  0  0  0  0  0  0
   -0.6308    2.0948   -7.3096 H   0  0  0  0  0  0  0  0  0  0  0  0
    1.2637    2.2605   -5.7842 H   0  0  0  0  0  0  0  0  0  0  0  0
    3.2566    1.6786   -1.7222 H   0  0  0  0  0  0  0  0  0  0  0  0
    5.5587    2.3969   -2.1343 H   0  0  0  0  0  0  0  0  0  0  0  0
    6.3856    5.2542   -6.1399 H   0  0  0  0  0  0  0  0  0  0  0  0
    6.2752    3.4887   -6.4492 H   0  0  0  0  0  0  0  0  0  0  0  0
    7.8587    4.2655   -6.2097 H   0  0  0  0  0  0  0  0  0  0  0  0
    4.2309    4.7163   -5.4644 H   0  0  0  0  0  0  0  0  0  0  0  0
    1.9358    4.1070   -4.9835 H   0  0  0  0  0  0  0  0  0  0  0  0
   -1.9089   -0.3281   -2.7692 H   0  0  0  0  0  0  0  0  0  0  0  0
   -3.9597   -0.8089   -4.0195 H   0  0  0  0  0  0  0  0  0  0  0  0
   -3.3259   -0.7358   -8.4592 H   0  0  0  0  0  0  0  0  0  0  0  0
   -3.4486   -2.5142   -8.6795 H   0  0  0  0  0  0  0  0  0  0  0  0
   -4.8751   -1.4837   -8.9151 H   0  0  0  0  0  0  0  0  0  0  0  0
   -1.6198   -2.3011   -7.2649 H   0  0  0  0  0  0  0  0  0  0  0  0
    0.4052   -1.9434   -5.9810 H   0  0  0  0  0  0  0  0  0  0  0  0
    2.8266   -1.0502   -2.2275 H   0  0  0  0  0  0  0  0  0  0  0  0
    5.0573   -0.5803   -3.0335 H   0  0  0  0  0  0  0  0  0  0  0  0
    6.9068    0.8644   -3.5122 H   0  0  0  0  0  0  0  0  0  0  0  0
    7.1656   -0.8349   -4.0377 H   0  0  0  0  0  0  0  0  0  0  0  0
    8.1285    0.4835   -4.7422 H   0  0  0  0  0  0  0  0  0  0  0  0
    3.4575    0.5074   -6.8414 H   0  0  0  0  0  0  0  0  0  0  0  0
    1.2059    0.0312   -6.0344 H   0  0  0  0  0  0  0  0  0  0  0  0
    1.7672   -3.8566    1.0671 H   0  0  0  0  0  0  0  0  0  0  0  0
    3.2050   -3.4779    2.9881 H   0  0  0  0  0  0  0  0  0  0  0  0
    4.6793   -3.8304    4.7438 H   0  0  0  0  0  0  0  0  0  0  0  0
    4.1223   -2.1193    4.7437 H   0  0  0  0  0  0  0  0  0  0  0  0
    4.8051   -2.8444    6.2164 H   0  0  0  0  0  0  0  0  0  0  0  0
   -0.1576   -3.9015    5.5951 H   0  0  0  0  0  0  0  0  0  0  0  0
   -1.6245   -4.2099    3.6476 H   0  0  0  0  0  0  0  0  0  0  0  0
   -3.1768   -4.0574   -0.0876 H   0  0  0  0  0  0  0  0  0  0  0  0
   -5.0512   -5.6066   -0.0609 H   0  0  0  0  0  0  0  0  0  0  0  0
   -7.4810   -8.3037    0.3125 H   0  0  0  0  0  0  0  0  0  0  0  0
   -7.0422   -6.6248    0.6944 H   0  0  0  0  0  0  0  0  0  0  0  0
   -6.3436   -7.4438   -0.7445 H   0  0  0  0  0  0  0  0  0  0  0  0
   -2.9256   -8.1233    2.6690 H   0  0  0  0  0  0  0  0  0  0  0  0
   -1.0279   -6.5707    2.6254 H   0  0  0  0  0  0  0  0  0  0  0  0
    0.3445   -6.9391    0.1234 H   0  0  0  0  0  0  0  0  0  0  0  0
   -4.1711  -12.0775   -0.1606 H   0  0  0  0  0  0  0  0  0  0  0  0
   -6.3943  -12.4441   -1.2273 H   0  0  0  0  0  0  0  0  0  0  0  0
   -9.5063   -8.2850   -4.7833 H   0  0  0  0  0  0  0  0  0  0  0  0
  -11.7961   -8.9789   -5.4574 H   0  0  0  0  0  0  0  0  0  0  0  0
  -12.6929  -11.1516   -4.7679 H   0  0  0  0  0  0  0  0  0  0  0  0
  -11.3289  -12.7009   -3.3828 H   0  0  0  0  0  0  0  0  0  0  0  0
  1  2  2  0  0  0  0
  2  3  1  0  0  0  0
  3  4  2  0  0  0  0
  3  5  1  0  0  0  0
  5  6  2  0  0  0  0
  6  7  1  0  0  0  0
  7  8  2  0  0  0  0
  8  9  1  0  0  0  0
  9 10  2  0  0  0  0
 10 11  1  0  0  0  0
 11 12  2  0  0  0  0
 12 13  1  0  0  0  0
 13 14  3  0  0  0  0
 12 15  1  0  0  0  0
 15 16  3  0  0  0  0
  8 17  1  0  0  0  0
 17 18  1  0  0  0  0
 18 19  1  0  0  0  0
 19 20  2  0  0  0  0
 20 21  1  0  0  0  0
 21 22  1  0  0  0  0
 21 23  1  0  0  0  0
  1 24  1  0  0  0  0
 24 25  2  0  0  0  0
 25 26  1  0  0  0  0
 26 27  1  0  0  0  0
 27 28  2  0  0  0  0
 28 29  1  0  0  0  0
 29 30  2  0  0  0  0
 30 31  1  0  0  0  0
 31 32  1  0  0  0  0
 30 33  1  0  0  0  0
 33 34  2  0  0  0  0
 26 35  1  0  0  0  0
 35 36  2  0  0  0  0
 36 37  1  0  0  0  0
 37 38  2  0  0  0  0
 38 39  1  0  0  0  0
 39 40  1  0  0  0  0
 38 41  1  0  0  0  0
 41 42  2  0  0  0  0
 25 43  1  0  0  0  0
 43 44  1  0  0  0  0
 44 45  1  0  0  0  0
 45 46  2  0  0  0  0
 46 47  1  0  0  0  0
 47 48  1  0  0  0  0
 48 49  2  0  0  0  0
 49 50  1  0  0  0  0
 50 51  2  0  0  0  0
 51 52  1  0  0  0  0
 52 53  1  0  0  0  0
 51 54  1  0  0  0  0
 54 55  2  0  0  0  0
 47 56  1  0  0  0  0
 56 57  2  0  0  0  0
 57 58  1  0  0  0  0
 58 59  2  0  0  0  0
 59 60  1  0  0  0  0
 60 61  1  0  0  0  0
 59 62  1  0  0  0  0
 62 63  2  0  0  0  0
 46 64  1  0  0  0  0
 64 65  1  0  0  0  0
 45 66  1  0  0  0  0
 66 67  2  0  0  0  0
 67 68  1  0  0  0  0
 68 69  1  0  0  0  0
 69 70  2  0  0  0  0
 70 71  1  0  0  0  0
 71 72  2  0  0  0  0
 72 73  1  0  0  0  0
 73 74  1  0  0  0  0
 72 75  1  0  0  0  0
 75 76  2  0  0  0  0
 68 77  1  0  0  0  0
 77 78  2  0  0  0  0
 78 79  1  0  0  0  0
 79 80  2  0  0  0  0
 80 81  1  0  0  0  0
 81 82  1  0  0  0  0
 80 83  1  0  0  0  0
 83 84  2  0  0  0  0
 67 85  1  0  0  0  0
 85 86  1  0  0  0  0
 86 87  1  0  0  0  0
 87 88  2  0  0  0  0
 88 89  1  0  0  0  0
 89 90  1  0  0  0  0
 90 91  2  0  0  0  0
 91 92  1  0  0  0  0
 92 93  2  0  0  0  0
 93 94  1  0  0  0  0
 94 95  1  0  0  0  0
 93 96  1  0  0  0  0
 96 97  2  0  0  0  0
 89 98  1  0  0  0  0
 98 99  2  0  0  0  0
 99100  1  0  0  0  0
100101  2  0  0  0  0
101102  1  0  0  0  0
102103  1  0  0  0  0
101104  1  0  0  0  0
104105  2  0  0  0  0
 88106  1  0  0  0  0
106107  1  0  0  0  0
 87108  1  0  0  0  0
108109  1  0  0  0  0
109110  1  0  0  0  0
110111  1  0  0  0  0
111112  2  0  0  0  0
112113  1  0  0  0  0
113114  1  0  0  0  0
114115  2  0  0  0  0
114116  1  0  0  0  0
116117  1  0  0  0  0
112118  1  0  0  0  0
118119  2  0  0  0  0
119120  1  0  0  0  0
119121  1  0  0  0  0
121122  2  0  0  0  0
122123  1  0  0  0  0
123124  2  0  0  0  0
123125  1  0  0  0  0
125126  2  0  0  0  0
126127  1  0  0  0  0
127128  2  0  0  0  0
128129  1  0  0  0  0
129130  2  0  0  0  0
130131  1  0  0  0  0
131132  2  0  0  0  0
 11  2  1  0  0  0  0
 23 17  1  0  0  0  0
 65 24  1  0  0  0  0
107 66  1  0  0  0  0
117108  2  0  0  0  0
131122  1  0  0  0  0
 10  5  1  0  0  0  0
 22 18  1  0  0  0  0
 34 27  1  0  0  0  0
 42 35  1  0  0  0  0
 64 43  2  0  0  0  0
 76 69  1  0  0  0  0
 84 77  1  0  0  0  0
106 85  2  0  0  0  0
116110  2  0  0  0  0
130125  1  0  0  0  0
 23  7  1  0  0  0  0
 55 48  1  0  0  0  0
 63 56  1  0  0  0  0
 97 90  1  0  0  0  0
105 98  1  0  0  0  0
120111  1  0  0  0  0
  1133  1  0  0  0  0
  6134  1  0  0  0  0
  9135  1  0  0  0  0
 17136  1  0  0  0  0
 18137  1  0  0  0  0
 19138  1  0  0  0  0
 20139  1  0  0  0  0
 21140  1  0  0  0  0
 22141  1  0  0  0  0
 22142  1  0  0  0  0
 23143  1  0  0  0  0
 28144  1  0  0  0  0
 29145  1  0  0  0  0
 32146  1  0  0  0  0
 32147  1  0  0  0  0
 32148  1  0  0  0  0
 33149  1  0  0  0  0
 34150  1  0  0  0  0
 36151  1  0  0  0  0
 37152  1  0  0  0  0
 40153  1  0  0  0  0
 40154  1  0  0  0  0
 40155  1  0  0  0  0
 41156  1  0  0  0  0
 42157  1  0  0  0  0
 49158  1  0  0  0  0
 50159  1  0  0  0  0
 53160  1  0  0  0  0
 53161  1  0  0  0  0
 53162  1  0  0  0  0
 54163  1  0  0  0  0
 55164  1  0  0  0  0
 57165  1  0  0  0  0
 58166  1  0  0  0  0
 61167  1  0  0  0  0
 61168  1  0  0  0  0
 61169  1  0  0  0  0
 62170  1  0  0  0  0
 63171  1  0  0  0  0
 70172  1  0  0  0  0
 71173  1  0  0  0  0
 74174  1  0  0  0  0
 74175  1  0  0  0  0
 74176  1  0  0  0  0
 75177  1  0  0  0  0
 76178  1  0  0  0  0
 78179  1  0  0  0  0
 79180  1  0  0  0  0
 82181  1  0  0  0  0
 82182  1  0  0  0  0
 82183  1  0  0  0  0
 83184  1  0  0  0  0
 84185  1  0  0  0  0
 91186  1  0  0  0  0
 92187  1  0  0  0  0
 95188  1  0  0  0  0
 95189  1  0  0  0  0
 95190  1  0  0  0  0
 96191  1  0  0  0  0
 97192  1  0  0  0  0
 99193  1  0  0  0  0
100194  1  0  0  0  0
103195  1  0  0  0  0
103196  1  0  0  0  0
103197  1  0  0  0  0
104198  1  0  0  0  0
105199  1  0  0  0  0
117200  1  0  0  0  0
118201  1  0  0  0  0
121202  1  0  0  0  0
126203  1  0  0  0  0
127204  1  0  0  0  0
128205  1  0  0  0  0
129206  1  0  0  0  0
M  END
