200

C          4.65170        6.43790        3.25880
C          5.67330        6.56910        2.35100
C          5.74670        5.90210        1.05010
O          4.88630        5.23080        0.50400
C          7.07550        6.21720        0.49590
C          7.61220        5.76530       -0.70880
C          8.88430        6.22100       -0.96010
C          9.56780        7.07120       -0.08110
C          9.04760        7.52870        1.10670
C          7.75560        7.07260        1.38590
C          6.88730        7.33520        2.53510
C          7.19450        8.16980        3.58020
C          6.35670        8.45990        4.67690
N          5.74140        8.76150        5.59920
C          8.40230        8.88680        3.70110
N          9.36010        9.49880        3.86660
C         10.78850        7.13640       -0.96530
C         12.00270        6.28700       -0.53500
C         12.82720        6.16990       -1.79650
C         12.18150        5.36110       -2.62700
C         10.90930        4.91800       -1.94070
C         11.39490        4.87930       -0.48600
C         10.02790        6.18510       -1.94410
C          3.52680        5.60570        3.22720
C          2.67630        5.45320        4.32230
C          1.73270        4.44650        4.18700
C          0.81850        4.07030        5.27140
C          0.78030        2.75200        5.72320
C         -0.05940        2.41260        6.77140
C         -0.87050        3.38500        7.36120
C         -0.81300        4.70040        6.92860
O         -1.50210        5.74330        7.45800
C         -2.46540        5.51960        8.46760
C         -3.78380        5.00860        7.89800
C          0.04340        5.03930        5.87810
O         -0.18500        1.16620        7.30380
C          0.65070        0.12250        6.84820
C          2.07060        0.21630        7.40000
C          1.83080        3.80390        2.94760
S          3.05950        4.51640        1.94930
C          1.03630        2.73150        2.46060
C          1.36020        1.78240        1.49000
N          2.57950        1.56780        0.87630
C          2.52890        1.03940       -0.43280
C          1.76170        1.67460       -1.40830
C          1.56750        1.07560       -2.63370
C          2.13700       -0.16630       -2.90330
S          1.71450       -0.94570       -4.43130
C          1.86750       -2.71100       -4.01960
C          2.98460       -0.75100       -1.96960
C          3.17780       -0.15190       -0.74080
C          3.81510        1.78220        1.48290
C          3.98200        1.68040        2.86590
C          5.17820        2.03080        3.44800
C          6.24650        2.46420        2.66370
S          7.68870        3.00010        3.52890
C          8.84920        3.46170        2.21240
C          6.11620        2.47440        1.28210
C          4.91100        2.14070        0.70010
C          0.23400        0.97790        1.18570
S         -0.04450       -0.28880        0.04560
C         -1.73030       -0.39500        0.53350
C         -2.05000        0.51670        1.53550
N         -3.31630        0.74320        2.04410
C         -4.42520        0.71130        1.18590
C         -5.63710        0.16200        1.59960
C         -6.70120        0.05430        0.72520
C         -6.56930        0.48990       -0.58680
S         -7.83020        0.34790       -1.80890
C         -9.29020       -0.18500       -0.87220
C         -5.36720        1.06690       -0.99720
C         -4.31200        1.18420       -0.12270
C         -3.47640        0.96710        3.41560
C         -4.47380        1.81950        3.88320
C         -4.68070        1.98430        5.23770
C         -3.89090        1.29640        6.14960
S         -4.11600        1.39760        7.89990
C         -5.87470        1.83940        8.04970
C         -2.86380        0.47900        5.68890
C         -2.65580        0.31600        4.33780
C         -0.91180        1.27900        1.90300
S         -0.63230        2.56340        3.02650
C         -2.52580       -1.32180       -0.19110
C         -2.26760       -1.73540       -1.48510
C         -3.19540       -2.64000       -1.99940
C         -3.15660       -3.09370       -3.38910
C         -1.94960       -3.51860       -3.92140
C         -1.89600       -4.03320       -5.21480
C         -3.06170       -4.16660       -5.95990
C         -4.27280       -3.73240       -5.42420
O         -5.47270       -3.84050       -6.05190
C         -5.55700       -4.54510       -7.27400
C         -7.03020       -4.67700       -7.62560
C         -4.31050       -3.15660       -4.15920
O         -0.65790       -4.38340       -5.65460
C         -0.50460       -4.89720       -6.96330
C          0.98070       -5.12240       -7.20140
C         -4.17660       -2.98180       -1.06500
S         -3.92910       -2.11770        0.43480
C         -5.33660       -3.77400       -1.17330
C         -5.55560       -4.80260       -2.04960
C         -4.50720       -5.57430       -2.75730
O         -3.32010       -5.61400       -2.50680
C         -5.22640       -6.41530       -3.73410
C         -4.66200       -7.22450       -4.71570
C         -5.58160       -7.85890       -5.51590
C         -6.96400       -7.70760       -5.34370
C         -7.53340       -6.92380       -4.36900
C         -6.61370       -6.26580       -3.54700
C         -6.84030       -5.32750       -2.44870
C         -8.07040       -4.97100       -1.94970
C         -9.29720       -5.51190       -2.38400
N        -10.33420       -5.91030       -2.67670
C         -8.29920       -4.03040       -0.92910
N         -8.58820       -3.27140       -0.11430
C         -7.28930       -8.62530       -6.49640
C         -7.75520      -10.06400       -6.16370
C         -7.16150      -10.40670       -4.81990
C         -5.85290      -10.55100       -4.98030
C         -5.53840      -10.30920       -6.43610
C         -6.81770      -10.86110       -7.08490
C         -5.74900       -8.79560       -6.68730
H          4.73500        7.00400        4.17850
H          7.04310        5.11920       -1.35930
H          9.58740        8.18710        1.76580
H         11.06600        8.12870       -1.31520
H         12.51530        6.64300        0.35430
H         13.73680        6.71380       -1.97110
H         12.44390        5.09470       -3.63400
H         10.42800        4.02580       -2.33300
H         10.59730        4.76710        0.24600
H         12.14870        4.11050       -0.32340
H          9.80170        6.54280       -2.94690
H          2.79260        6.03230        5.22160
H          1.42000        2.02580        5.24890
H         -1.51750        3.05900        8.15850
H         -2.07940        4.83280        9.22950
H         -2.61060        6.50120        8.92830
H         -4.18300        5.72750        7.18640
H         -3.62580        4.06390        7.38500
H         -4.49920        4.86710        8.70380
H          0.07700        6.06440        5.54680
H          0.17460       -0.78980        7.22010
H          0.65690        0.08330        5.75110
H          2.65420       -0.63490        7.05930
H          2.04150        0.21300        8.48650
H          2.55670        1.13270        7.07440
H          1.29380        2.62050       -1.18000
H          0.94950        1.54570       -3.38290
H          1.21320       -3.24200       -4.70500
H          2.89410       -3.04300       -4.14800
H          1.53390       -2.86410       -2.99800
H          3.47920       -1.68480       -2.18520
H          3.80880       -0.62130       -0.00050
H          3.15980        1.35080        3.48260
H          5.29800        1.98760        4.51980
H          9.08950        2.59310        1.60580
H          9.74090        3.81390        2.72220
H          8.42760        4.26090        1.60880
H          6.93390        2.77290        0.64660
H          4.80120        2.20240       -0.37120
H         -5.73550       -0.21230        2.60730
H         -7.61420       -0.40230        1.06970
H         -9.49460        0.52980       -0.08070
H         -9.13870       -1.18790       -0.48070
H        -10.10750       -0.18930       -1.58700
H         -5.27490        1.42000       -2.01280
H         -3.38760        1.63490       -0.45180
H         -5.09280        2.35260        3.17720
H         -5.45930        2.65210        5.57120
H         -6.46180        1.19700        7.40090
H         -6.02960        2.88690        7.80810
H         -6.13770        1.66070        9.08740
H         -2.24780       -0.03770        6.40670
H         -1.87950       -0.34780        3.98680
H         -1.45690       -1.32940       -2.06460
H         -1.04840       -3.49430       -3.33340
H         -3.03300       -4.60270       -6.94420
H         -5.10610       -5.54140       -7.16450
H         -5.02400       -3.99780       -8.06470
H         -7.14080       -5.20330       -8.56950
H         -7.54620       -5.22740       -6.84340
H         -7.47950       -3.69170       -7.71030
H         -5.25290       -2.78580       -3.78990
H         -0.90070       -4.18290       -7.69820
H         -1.05160       -5.84540       -7.06140
H          1.13470       -5.56050       -8.18330
H          1.37870       -5.79310       -6.44470
H          1.51510       -4.17770       -7.14700
H         -6.13670       -3.49240       -0.49940
H         -3.59020       -7.30340       -4.81390
H         -8.59910       -6.81760       -4.25160
H         -7.85790       -8.18380       -7.31290
H         -8.82370      -10.22870       -6.27250
H         -7.72850      -10.45020       -3.90860
H         -5.10780      -10.73870       -4.22960
H         -4.58820      -10.69870       -6.79290
H         -6.92140      -11.93810       -6.96160
H         -6.91840      -10.60010       -8.13770
H         -5.31460       -8.46900       -7.63120
