
  xtb     02122221103D
 energy: -306.248652481083 gnorm: 0.000810234740 xtb: 6.4.1 (unknown)
178194  0     0  0            999 V2000
    1.0620   -1.3553   -7.6353 C   0  0  0  0  0  0  0  0  0  0  0  0
    2.2207   -0.6981   -7.8757 C   0  0  0  0  0  0  0  0  0  0  0  0
    3.0021    0.0585   -6.8468 C   0  0  0  0  0  0  0  0  0  0  0  0
    2.7572    0.1800   -5.6651 O   0  0  0  0  0  0  0  0  0  0  0  0
    4.0918    0.7180   -7.5705 C   0  0  0  0  0  0  0  0  0  0  0  0
    5.0751    1.5311   -7.0088 C   0  0  0  0  0  0  0  0  0  0  0  0
    6.0011    1.9852   -7.9144 C   0  0  0  0  0  0  0  0  0  0  0  0
    5.9477    1.6647   -9.2796 C   0  0  0  0  0  0  0  0  0  0  0  0
    4.9715    0.8809   -9.8473 C   0  0  0  0  0  0  0  0  0  0  0  0
    4.0184    0.3985   -8.9428 C   0  0  0  0  0  0  0  0  0  0  0  0
    2.8625   -0.4628   -9.1645 C   0  0  0  0  0  0  0  0  0  0  0  0
    2.4788   -0.9974  -10.3643 C   0  0  0  0  0  0  0  0  0  0  0  0
    1.3764   -1.8578  -10.5594 C   0  0  0  0  0  0  0  0  0  0  0  0
    0.5053   -2.5629  -10.8078 N   0  0  0  0  0  0  0  0  0  0  0  0
    3.1391   -0.7660  -11.5904 C   0  0  0  0  0  0  0  0  0  0  0  0
    3.6197   -0.6186  -12.6223 N   0  0  0  0  0  0  0  0  0  0  0  0
    7.2070    2.4354   -9.5879 C   0  0  0  0  0  0  0  0  0  0  0  0
    8.5104    1.6238   -9.7954 C   0  0  0  0  0  0  0  0  0  0  0  0
    8.3481    0.3430   -9.0146 C   0  0  0  0  0  0  0  0  0  0  0  0
    8.3941    0.6470   -7.7244 C   0  0  0  0  0  0  0  0  0  0  0  0
    8.5893    2.1386   -7.6088 C   0  0  0  0  0  0  0  0  0  0  0  0
    9.4504    2.3961   -8.8556 C   0  0  0  0  0  0  0  0  0  0  0  0
    7.2629    2.7925   -8.0688 C   0  0  0  0  0  0  0  0  0  0  0  0
    0.5702   -1.6125   -6.2991 C   0  0  0  0  0  0  0  0  0  0  0  0
   -0.7996   -1.4269   -5.9744 C   0  0  0  0  0  0  0  0  0  0  0  0
   -1.6907   -1.1760   -6.9618 N   0  0  0  0  0  0  0  0  0  0  0  0
   -2.9409   -1.0386   -6.6379 C   0  0  0  0  0  0  0  0  0  0  0  0
   -3.3798   -1.1238   -5.2819 C   0  0  0  0  0  0  0  0  0  0  0  0
   -4.6767   -1.0160   -5.0448 O   0  0  0  0  0  0  0  0  0  0  0  0
   -5.1115   -1.1886   -3.6957 C   0  0  0  0  0  0  0  0  0  0  0  0
   -5.0961   -2.6543   -3.2852 C   0  0  0  0  0  0  0  0  0  0  0  0
   -2.5259   -1.2982   -4.3016 N   0  0  0  0  0  0  0  0  0  0  0  0
   -1.2273   -1.4539   -4.6210 C   0  0  0  0  0  0  0  0  0  0  0  0
   -0.2802   -1.6308   -3.5846 C   0  0  0  0  0  0  0  0  0  0  0  0
    0.9972   -2.0109   -3.9463 C   0  0  0  0  0  0  0  0  0  0  0  0
    1.4145   -2.0181   -5.2789 C   0  0  0  0  0  0  0  0  0  0  0  0
    2.6590   -2.4346   -5.5508 F   0  0  0  0  0  0  0  0  0  0  0  0
    1.8852   -2.3461   -2.9992 F   0  0  0  0  0  0  0  0  0  0  0  0
   -0.5375   -1.2716   -2.1889 C   0  0  0  0  0  0  0  0  0  0  0  0
   -0.0710   -0.0905   -1.6559 C   0  0  0  0  0  0  0  0  0  0  0  0
    0.4374    0.9511   -2.4489 N   0  0  0  0  0  0  0  0  0  0  0  0
    1.8025    1.2367   -2.4920 C   0  0  0  0  0  0  0  0  0  0  0  0
    2.2443    2.4169   -3.0939 C   0  0  0  0  0  0  0  0  0  0  0  0
    3.5880    2.6383   -3.2889 C   0  0  0  0  0  0  0  0  0  0  0  0
    4.5205    1.7003   -2.8595 C   0  0  0  0  0  0  0  0  0  0  0  0
    6.2227    1.9856   -3.2682 S   0  0  0  0  0  0  0  0  0  0  0  0
    6.8633    0.2886   -3.4041 C   0  0  0  0  0  0  0  0  0  0  0  0
    4.0951    0.5941   -2.1406 C   0  0  0  0  0  0  0  0  0  0  0  0
    2.7461    0.3652   -1.9558 C   0  0  0  0  0  0  0  0  0  0  0  0
   -0.4137    1.3397   -3.4978 C   0  0  0  0  0  0  0  0  0  0  0  0
    0.0380    1.4631   -4.8078 C   0  0  0  0  0  0  0  0  0  0  0  0
   -0.8382    1.7529   -5.8339 C   0  0  0  0  0  0  0  0  0  0  0  0
   -2.1894    1.9207   -5.5678 C   0  0  0  0  0  0  0  0  0  0  0  0
   -3.4111    2.1772   -6.8162 S   0  0  0  0  0  0  0  0  0  0  0  0
   -2.4890    2.0013   -8.3699 C   0  0  0  0  0  0  0  0  0  0  0  0
   -2.6421    1.8427   -4.2522 C   0  0  0  0  0  0  0  0  0  0  0  0
   -1.7664    1.5573   -3.2291 C   0  0  0  0  0  0  0  0  0  0  0  0
   -0.3100   -0.0280   -0.2626 C   0  0  0  0  0  0  0  0  0  0  0  0
    0.0831    1.0958    0.9838 S   0  0  0  0  0  0  0  0  0  0  0  0
   -0.7479    0.1010    2.1504 C   0  0  0  0  0  0  0  0  0  0  0  0
   -1.2562   -1.0656    1.6121 C   0  0  0  0  0  0  0  0  0  0  0  0
   -1.9002   -2.0739    2.3222 N   0  0  0  0  0  0  0  0  0  0  0  0
   -3.0644   -2.6103    1.7571 C   0  0  0  0  0  0  0  0  0  0  0  0
   -3.9304   -1.7941    1.0280 C   0  0  0  0  0  0  0  0  0  0  0  0
   -5.0672   -2.3224    0.4592 C   0  0  0  0  0  0  0  0  0  0  0  0
   -5.3679   -3.6753    0.6056 C   0  0  0  0  0  0  0  0  0  0  0  0
   -6.8569   -4.2362   -0.1639 S   0  0  0  0  0  0  0  0  0  0  0  0
   -6.8123   -6.0360    0.0553 C   0  0  0  0  0  0  0  0  0  0  0  0
   -4.5146   -4.4883    1.3395 C   0  0  0  0  0  0  0  0  0  0  0  0
   -3.3712   -3.9594    1.9063 C   0  0  0  0  0  0  0  0  0  0  0  0
   -1.5409   -2.3601    3.6407 C   0  0  0  0  0  0  0  0  0  0  0  0
   -2.5118   -2.6681    4.5963 C   0  0  0  0  0  0  0  0  0  0  0  0
   -2.1677   -2.8158    5.9201 C   0  0  0  0  0  0  0  0  0  0  0  0
   -0.8436   -2.6735    6.3295 C   0  0  0  0  0  0  0  0  0  0  0  0
   -0.5475   -2.7889    8.0668 S   0  0  0  0  0  0  0  0  0  0  0  0
    1.2353   -2.5049    8.2527 C   0  0  0  0  0  0  0  0  0  0  0  0
    0.1380   -2.4476    5.3750 C   0  0  0  0  0  0  0  0  0  0  0  0
   -0.2079   -2.2991    4.0455 C   0  0  0  0  0  0  0  0  0  0  0  0
   -0.9921   -1.1345    0.2230 C   0  0  0  0  0  0  0  0  0  0  0  0
   -1.3418   -2.2831   -1.0260 S   0  0  0  0  0  0  0  0  0  0  0  0
   -0.8606    0.4629    3.5463 C   0  0  0  0  0  0  0  0  0  0  0  0
   -2.1250    0.4512    4.1884 C   0  0  0  0  0  0  0  0  0  0  0  0
   -2.2721    0.6107    5.5988 C   0  0  0  0  0  0  0  0  0  0  0  0
   -3.5793    0.5132    5.8733 N   0  0  0  0  0  0  0  0  0  0  0  0
   -4.1417    0.3326    4.7101 N   0  0  0  0  0  0  0  0  0  0  0  0
   -5.5673    0.2189    4.5747 C   0  0  0  0  0  0  0  0  0  0  0  0
   -5.9733   -1.1769    4.1170 C   0  0  0  0  0  0  0  0  0  0  0  0
   -3.3508    0.2842    3.6771 N   0  0  0  0  0  0  0  0  0  0  0  0
   -1.1559    0.7737    6.4547 C   0  0  0  0  0  0  0  0  0  0  0  0
    0.0526    0.8152    5.7980 C   0  0  0  0  0  0  0  0  0  0  0  0
    1.4041    0.8579    6.3872 C   0  0  0  0  0  0  0  0  0  0  0  0
    1.7293    0.8765    7.5526 O   0  0  0  0  0  0  0  0  0  0  0  0
    2.2843    0.7980    5.3236 N   0  0  0  0  0  0  0  0  0  0  0  0
    3.7234    0.7773    5.4726 C   0  0  0  0  0  0  0  0  0  0  0  0
    4.2362   -0.6378    5.7182 C   0  0  0  0  0  0  0  0  0  0  0  0
    1.6457    0.6818    4.0955 C   0  0  0  0  0  0  0  0  0  0  0  0
    2.2175    0.5622    3.0404 O   0  0  0  0  0  0  0  0  0  0  0  0
    0.1993    0.6991    4.3934 C   0  0  0  0  0  0  0  0  0  0  0  0
   -1.2856    0.7706    7.8978 C   0  0  0  0  0  0  0  0  0  0  0  0
   -2.2111    1.4612    8.5720 C   0  0  0  0  0  0  0  0  0  0  0  0
   -3.0351    2.4858    7.8951 C   0  0  0  0  0  0  0  0  0  0  0  0
   -2.6560    3.1359    6.9482 O   0  0  0  0  0  0  0  0  0  0  0  0
   -4.2811    2.7277    8.4647 N   0  0  0  0  0  0  0  0  0  0  0  0
   -5.0797    3.8046    7.8839 C   0  0  0  0  0  0  0  0  0  0  0  0
   -5.8653    3.3360    6.6678 C   0  0  0  0  0  0  0  0  0  0  0  0
   -4.8847    1.9416    9.4188 C   0  0  0  0  0  0  0  0  0  0  0  0
   -6.0522    2.0624    9.6940 O   0  0  0  0  0  0  0  0  0  0  0  0
   -3.9801    0.9226   10.1145 C   0  0  0  0  0  0  0  0  0  0  0  0
   -4.4068    0.7930   11.4902 C   0  0  0  0  0  0  0  0  0  0  0  0
   -4.7078    0.7105   12.5884 N   0  0  0  0  0  0  0  0  0  0  0  0
   -2.4893    1.3140   10.0403 C   0  0  0  0  0  0  0  0  0  0  0  0
   -1.6119    0.2879   10.7468 C   0  0  0  0  0  0  0  0  0  0  0  0
    0.4147   -1.6678   -8.4428 H   0  0  0  0  0  0  0  0  0  0  0  0
    5.0801    1.7519   -5.9528 H   0  0  0  0  0  0  0  0  0  0  0  0
    4.9418    0.6528  -10.8996 H   0  0  0  0  0  0  0  0  0  0  0  0
    7.1068    3.2496  -10.3026 H   0  0  0  0  0  0  0  0  0  0  0  0
    8.8149    1.5178  -10.8331 H   0  0  0  0  0  0  0  0  0  0  0  0
    8.1649   -0.6143   -9.4664 H   0  0  0  0  0  0  0  0  0  0  0  0
    8.2551   -0.0071   -6.8835 H   0  0  0  0  0  0  0  0  0  0  0  0
    8.9620    2.5026   -6.6552 H   0  0  0  0  0  0  0  0  0  0  0  0
    9.5450    3.4515   -9.1072 H   0  0  0  0  0  0  0  0  0  0  0  0
   10.4388    1.9446   -8.7858 H   0  0  0  0  0  0  0  0  0  0  0  0
    7.1974    3.8407   -7.7852 H   0  0  0  0  0  0  0  0  0  0  0  0
   -3.6555   -0.8675   -7.4292 H   0  0  0  0  0  0  0  0  0  0  0  0
   -4.4684   -0.6011   -3.0337 H   0  0  0  0  0  0  0  0  0  0  0  0
   -6.1282   -0.7905   -3.6865 H   0  0  0  0  0  0  0  0  0  0  0  0
   -5.6303   -3.2514   -4.0203 H   0  0  0  0  0  0  0  0  0  0  0  0
   -4.0723   -3.0112   -3.2102 H   0  0  0  0  0  0  0  0  0  0  0  0
   -5.5802   -2.7717   -2.3212 H   0  0  0  0  0  0  0  0  0  0  0  0
    1.5242    3.1439   -3.4375 H   0  0  0  0  0  0  0  0  0  0  0  0
    3.9264    3.5321   -3.7914 H   0  0  0  0  0  0  0  0  0  0  0  0
    7.0705   -0.1183   -2.4185 H   0  0  0  0  0  0  0  0  0  0  0  0
    6.1383   -0.3229   -3.9329 H   0  0  0  0  0  0  0  0  0  0  0  0
    7.7860    0.3579   -3.9719 H   0  0  0  0  0  0  0  0  0  0  0  0
    4.8047   -0.1128   -1.7406 H   0  0  0  0  0  0  0  0  0  0  0  0
    2.4287   -0.5136   -1.4168 H   0  0  0  0  0  0  0  0  0  0  0  0
    1.0777    1.2857   -5.0303 H   0  0  0  0  0  0  0  0  0  0  0  0
   -0.4545    1.8167   -6.8394 H   0  0  0  0  0  0  0  0  0  0  0  0
   -1.7804    2.8177   -8.4768 H   0  0  0  0  0  0  0  0  0  0  0  0
   -3.2336    2.0574   -9.1578 H   0  0  0  0  0  0  0  0  0  0  0  0
   -1.9915    1.0353   -8.3938 H   0  0  0  0  0  0  0  0  0  0  0  0
   -3.6917    1.9950   -4.0502 H   0  0  0  0  0  0  0  0  0  0  0  0
   -2.1273    1.4797   -2.2145 H   0  0  0  0  0  0  0  0  0  0  0  0
   -3.7127   -0.7416    0.9323 H   0  0  0  0  0  0  0  0  0  0  0  0
   -5.7438   -1.6883   -0.0933 H   0  0  0  0  0  0  0  0  0  0  0  0
   -5.9001   -6.4352   -0.3769 H   0  0  0  0  0  0  0  0  0  0  0  0
   -7.6744   -6.4170   -0.4828 H   0  0  0  0  0  0  0  0  0  0  0  0
   -6.8960   -6.2875    1.1086 H   0  0  0  0  0  0  0  0  0  0  0  0
   -4.7231   -5.5371    1.4744 H   0  0  0  0  0  0  0  0  0  0  0  0
   -2.7069   -4.5972    2.4701 H   0  0  0  0  0  0  0  0  0  0  0  0
   -3.5429   -2.7616    4.2938 H   0  0  0  0  0  0  0  0  0  0  0  0
   -2.9258   -3.0230    6.6603 H   0  0  0  0  0  0  0  0  0  0  0  0
    1.4361   -2.6252    9.3130 H   0  0  0  0  0  0  0  0  0  0  0  0
    1.7912   -3.2479    7.6889 H   0  0  0  0  0  0  0  0  0  0  0  0
    1.4897   -1.4945    7.9462 H   0  0  0  0  0  0  0  0  0  0  0  0
    1.1773   -2.3736    5.6539 H   0  0  0  0  0  0  0  0  0  0  0  0
    0.5629   -2.1103    3.3132 H   0  0  0  0  0  0  0  0  0  0  0  0
   -5.8971    0.9587    3.8404 H   0  0  0  0  0  0  0  0  0  0  0  0
   -5.9950    0.4514    5.5507 H   0  0  0  0  0  0  0  0  0  0  0  0
   -5.7051   -1.9172    4.8668 H   0  0  0  0  0  0  0  0  0  0  0  0
   -7.0486   -1.2115    3.9675 H   0  0  0  0  0  0  0  0  0  0  0  0
   -5.4825   -1.4216    3.1778 H   0  0  0  0  0  0  0  0  0  0  0  0
    4.1481    1.1798    4.5501 H   0  0  0  0  0  0  0  0  0  0  0  0
    3.9785    1.4246    6.3150 H   0  0  0  0  0  0  0  0  0  0  0  0
    5.3193   -0.6264    5.8012 H   0  0  0  0  0  0  0  0  0  0  0  0
    3.9566   -1.2873    4.8916 H   0  0  0  0  0  0  0  0  0  0  0  0
    3.8215   -1.0348    6.6423 H   0  0  0  0  0  0  0  0  0  0  0  0
   -0.5828    0.1413    8.4233 H   0  0  0  0  0  0  0  0  0  0  0  0
   -4.3855    4.5978    7.6004 H   0  0  0  0  0  0  0  0  0  0  0  0
   -5.7589    4.1591    8.6610 H   0  0  0  0  0  0  0  0  0  0  0  0
   -5.1815    2.9688    5.9070 H   0  0  0  0  0  0  0  0  0  0  0  0
   -6.4333    4.1666    6.2590 H   0  0  0  0  0  0  0  0  0  0  0  0
   -6.5562    2.5458    6.9514 H   0  0  0  0  0  0  0  0  0  0  0  0
   -4.1258   -0.0468    9.6185 H   0  0  0  0  0  0  0  0  0  0  0  0
   -2.3658    2.2879   10.5323 H   0  0  0  0  0  0  0  0  0  0  0  0
   -1.8947    0.2200   11.7950 H   0  0  0  0  0  0  0  0  0  0  0  0
   -1.7219   -0.6958   10.2947 H   0  0  0  0  0  0  0  0  0  0  0  0
   -0.5683    0.5871   10.6933 H   0  0  0  0  0  0  0  0  0  0  0  0
  1  2  2  0  0  0  0
  2  3  1  0  0  0  0
  3  4  2  0  0  0  0
  3  5  1  0  0  0  0
  5  6  2  0  0  0  0
  6  7  1  0  0  0  0
  7  8  2  0  0  0  0
  8  9  1  0  0  0  0
  9 10  2  0  0  0  0
 10 11  1  0  0  0  0
 11 12  2  0  0  0  0
 12 13  1  0  0  0  0
 13 14  3  0  0  0  0
 12 15  1  0  0  0  0
 15 16  3  0  0  0  0
  8 17  1  0  0  0  0
 17 18  1  0  0  0  0
 18 19  1  0  0  0  0
 19 20  2  0  0  0  0
 20 21  1  0  0  0  0
 21 22  1  0  0  0  0
 21 23  1  0  0  0  0
  1 24  1  0  0  0  0
 24 25  1  0  0  0  0
 25 26  2  0  0  0  0
 26 27  1  0  0  0  0
 27 28  2  0  0  0  0
 28 29  1  0  0  0  0
 29 30  1  0  0  0  0
 30 31  1  0  0  0  0
 28 32  1  0  0  0  0
 32 33  2  0  0  0  0
 33 34  1  0  0  0  0
 34 35  2  0  0  0  0
 35 36  1  0  0  0  0
 36 37  1  0  0  0  0
 35 38  1  0  0  0  0
 34 39  1  0  0  0  0
 39 40  2  0  0  0  0
 40 41  1  0  0  0  0
 41 42  1  0  0  0  0
 42 43  2  0  0  0  0
 43 44  1  0  0  0  0
 44 45  2  0  0  0  0
 45 46  1  0  0  0  0
 46 47  1  0  0  0  0
 45 48  1  0  0  0  0
 48 49  2  0  0  0  0
 41 50  1  0  0  0  0
 50 51  2  0  0  0  0
 51 52  1  0  0  0  0
 52 53  2  0  0  0  0
 53 54  1  0  0  0  0
 54 55  1  0  0  0  0
 53 56  1  0  0  0  0
 56 57  2  0  0  0  0
 40 58  1  0  0  0  0
 58 59  1  0  0  0  0
 59 60  1  0  0  0  0
 60 61  2  0  0  0  0
 61 62  1  0  0  0  0
 62 63  1  0  0  0  0
 63 64  2  0  0  0  0
 64 65  1  0  0  0  0
 65 66  2  0  0  0  0
 66 67  1  0  0  0  0
 67 68  1  0  0  0  0
 66 69  1  0  0  0  0
 69 70  2  0  0  0  0
 62 71  1  0  0  0  0
 71 72  2  0  0  0  0
 72 73  1  0  0  0  0
 73 74  2  0  0  0  0
 74 75  1  0  0  0  0
 75 76  1  0  0  0  0
 74 77  1  0  0  0  0
 77 78  2  0  0  0  0
 61 79  1  0  0  0  0
 79 80  1  0  0  0  0
 60 81  1  0  0  0  0
 81 82  1  0  0  0  0
 82 83  1  0  0  0  0
 83 84  2  0  0  0  0
 84 85  1  0  0  0  0
 85 86  1  0  0  0  0
 86 87  1  0  0  0  0
 85 88  1  0  0  0  0
 83 89  1  0  0  0  0
 89 90  2  0  0  0  0
 90 91  1  0  0  0  0
 91 92  2  0  0  0  0
 91 93  1  0  0  0  0
 93 94  1  0  0  0  0
 94 95  1  0  0  0  0
 93 96  1  0  0  0  0
 96 97  2  0  0  0  0
 96 98  1  0  0  0  0
 89 99  1  0  0  0  0
 99100  2  0  0  0  0
100101  1  0  0  0  0
101102  2  0  0  0  0
101103  1  0  0  0  0
103104  1  0  0  0  0
104105  1  0  0  0  0
103106  1  0  0  0  0
106107  2  0  0  0  0
106108  1  0  0  0  0
108109  1  0  0  0  0
109110  3  0  0  0  0
108111  1  0  0  0  0
111112  1  0  0  0  0
 11  2  1  0  0  0  0
 23 17  1  0  0  0  0
 36 24  2  0  0  0  0
 80 39  1  0  0  0  0
 98 81  2  0  0  0  0
111100  1  0  0  0  0
 10  5  1  0  0  0  0
 22 18  1  0  0  0  0
 33 25  1  0  0  0  0
 49 42  1  0  0  0  0
 57 50  1  0  0  0  0
 79 58  2  0  0  0  0
 88 82  2  0  0  0  0
 98 90  1  0  0  0  0
 23  7  1  0  0  0  0
 70 63  1  0  0  0  0
 78 71  1  0  0  0  0
  1113  1  0  0  0  0
  6114  1  0  0  0  0
  9115  1  0  0  0  0
 17116  1  0  0  0  0
 18117  1  0  0  0  0
 19118  1  0  0  0  0
 20119  1  0  0  0  0
 21120  1  0  0  0  0
 22121  1  0  0  0  0
 22122  1  0  0  0  0
 23123  1  0  0  0  0
 27124  1  0  0  0  0
 30125  1  0  0  0  0
 30126  1  0  0  0  0
 31127  1  0  0  0  0
 31128  1  0  0  0  0
 31129  1  0  0  0  0
 43130  1  0  0  0  0
 44131  1  0  0  0  0
 47132  1  0  0  0  0
 47133  1  0  0  0  0
 47134  1  0  0  0  0
 48135  1  0  0  0  0
 49136  1  0  0  0  0
 51137  1  0  0  0  0
 52138  1  0  0  0  0
 55139  1  0  0  0  0
 55140  1  0  0  0  0
 55141  1  0  0  0  0
 56142  1  0  0  0  0
 57143  1  0  0  0  0
 64144  1  0  0  0  0
 65145  1  0  0  0  0
 68146  1  0  0  0  0
 68147  1  0  0  0  0
 68148  1  0  0  0  0
 69149  1  0  0  0  0
 70150  1  0  0  0  0
 72151  1  0  0  0  0
 73152  1  0  0  0  0
 76153  1  0  0  0  0
 76154  1  0  0  0  0
 76155  1  0  0  0  0
 77156  1  0  0  0  0
 78157  1  0  0  0  0
 86158  1  0  0  0  0
 86159  1  0  0  0  0
 87160  1  0  0  0  0
 87161  1  0  0  0  0
 87162  1  0  0  0  0
 94163  1  0  0  0  0
 94164  1  0  0  0  0
 95165  1  0  0  0  0
 95166  1  0  0  0  0
 95167  1  0  0  0  0
 99168  1  0  0  0  0
104169  1  0  0  0  0
104170  1  0  0  0  0
105171  1  0  0  0  0
105172  1  0  0  0  0
105173  1  0  0  0  0
108174  1  0  0  0  0
111175  1  0  0  0  0
112176  1  0  0  0  0
112177  1  0  0  0  0
112178  1  0  0  0  0
M  END
