
  xtb     02052211453D
 energy: -382.385272194965 gnorm: 0.000675129537 xtb: 6.4.1 (unknown)
227250  0     0  0            999 V2000
   -6.1150   -4.6811    1.1912 C   0  0  0  0  0  0  0  0  0  0  0  0
   -7.4626   -4.4366    1.1528 C   0  0  0  0  0  0  0  0  0  0  0  0
   -8.3607   -5.0472    2.1586 C   0  0  0  0  0  0  0  0  0  0  0  0
   -8.1115   -5.9812    2.8908 O   0  0  0  0  0  0  0  0  0  0  0  0
   -9.5976   -4.2359    2.1162 C   0  0  0  0  0  0  0  0  0  0  0  0
  -10.7005   -4.3287    2.9600 C   0  0  0  0  0  0  0  0  0  0  0  0
  -11.6885   -3.4085    2.6972 C   0  0  0  0  0  0  0  0  0  0  0  0
  -11.5943   -2.4685    1.6635 C   0  0  0  0  0  0  0  0  0  0  0  0
  -10.5196   -2.3763    0.8116 C   0  0  0  0  0  0  0  0  0  0  0  0
   -9.5003   -3.2930    1.0709 C   0  0  0  0  0  0  0  0  0  0  0  0
   -8.2353   -3.5074    0.3742 C   0  0  0  0  0  0  0  0  0  0  0  0
   -7.9477   -3.0969   -0.9104 C   0  0  0  0  0  0  0  0  0  0  0  0
   -8.6927   -2.1469   -1.6233 C   0  0  0  0  0  0  0  0  0  0  0  0
   -9.2362   -1.3369   -2.2334 N   0  0  0  0  0  0  0  0  0  0  0  0
   -6.8868   -3.6402   -1.6559 C   0  0  0  0  0  0  0  0  0  0  0  0
   -6.0726   -4.1181   -2.3135 N   0  0  0  0  0  0  0  0  0  0  0  0
  -12.9334   -1.8563    1.9885 C   0  0  0  0  0  0  0  0  0  0  0  0
  -12.9436   -0.5082    2.7503 C   0  0  0  0  0  0  0  0  0  0  0  0
  -11.6609   -0.4523    3.5424 C   0  0  0  0  0  0  0  0  0  0  0  0
  -11.7531   -1.3428    4.5210 C   0  0  0  0  0  0  0  0  0  0  0  0
  -13.0984   -2.0167    4.4077 C   0  0  0  0  0  0  0  0  0  0  0  0
  -13.9405   -0.8492    3.8691 C   0  0  0  0  0  0  0  0  0  0  0  0
  -13.0402   -2.9051    3.1403 C   0  0  0  0  0  0  0  0  0  0  0  0
   -5.0839   -3.8589    0.7153 C   0  0  0  0  0  0  0  0  0  0  0  0
   -3.7075   -4.1459    0.6860 C   0  0  0  0  0  0  0  0  0  0  0  0
   -3.1462   -5.3724    0.8927 N   0  0  0  0  0  0  0  0  0  0  0  0
   -1.7852   -5.4402    1.2593 C   0  0  0  0  0  0  0  0  0  0  0  0
   -1.2994   -4.6528    2.2993 C   0  0  0  0  0  0  0  0  0  0  0  0
    0.0464   -4.6519    2.6128 C   0  0  0  0  0  0  0  0  0  0  0  0
    0.9281   -5.4448    1.8895 C   0  0  0  0  0  0  0  0  0  0  0  0
    2.6721   -5.4654    2.1440 S   0  0  0  0  0  0  0  0  0  0  0  0
    2.9851   -3.9867    3.1475 C   0  0  0  0  0  0  0  0  0  0  0  0
    0.4290   -6.2872    0.8951 C   0  0  0  0  0  0  0  0  0  0  0  0
   -0.9108   -6.2891    0.5820 C   0  0  0  0  0  0  0  0  0  0  0  0
   -3.8109   -6.5779    0.5963 C   0  0  0  0  0  0  0  0  0  0  0  0
   -4.6795   -6.6791   -0.4903 C   0  0  0  0  0  0  0  0  0  0  0  0
   -5.2925   -7.8764   -0.7733 C   0  0  0  0  0  0  0  0  0  0  0  0
   -5.0497   -9.0032    0.0124 C   0  0  0  0  0  0  0  0  0  0  0  0
   -5.8869  -10.4804   -0.4600 S   0  0  0  0  0  0  0  0  0  0  0  0
   -5.4501  -11.6678    0.8418 C   0  0  0  0  0  0  0  0  0  0  0  0
   -4.1796   -8.9072    1.0889 C   0  0  0  0  0  0  0  0  0  0  0  0
   -3.5671   -7.7020    1.3767 C   0  0  0  0  0  0  0  0  0  0  0  0
   -2.9630   -2.9821    0.3778 C   0  0  0  0  0  0  0  0  0  0  0  0
   -1.2855   -2.6627    0.1622 S   0  0  0  0  0  0  0  0  0  0  0  0
   -1.6322   -0.9974   -0.3075 C   0  0  0  0  0  0  0  0  0  0  0  0
   -2.9785   -0.6911   -0.2160 C   0  0  0  0  0  0  0  0  0  0  0  0
   -3.5642    0.5294   -0.4457 N   0  0  0  0  0  0  0  0  0  0  0  0
   -4.9243    0.7157   -0.0939 C   0  0  0  0  0  0  0  0  0  0  0  0
   -5.8433    1.0358   -1.0858 C   0  0  0  0  0  0  0  0  0  0  0  0
   -7.1865    1.1554   -0.7891 C   0  0  0  0  0  0  0  0  0  0  0  0
   -7.6246    0.9620    0.5148 C   0  0  0  0  0  0  0  0  0  0  0  0
   -9.3155    1.0301    1.0014 S   0  0  0  0  0  0  0  0  0  0  0  0
  -10.2170    1.3225   -0.5466 C   0  0  0  0  0  0  0  0  0  0  0  0
   -6.6991    0.6944    1.5215 C   0  0  0  0  0  0  0  0  0  0  0  0
   -5.3590    0.5728    1.2222 C   0  0  0  0  0  0  0  0  0  0  0  0
   -2.9100    1.6337   -1.0155 C   0  0  0  0  0  0  0  0  0  0  0  0
   -2.1504    1.5351   -2.1788 C   0  0  0  0  0  0  0  0  0  0  0  0
   -1.5806    2.6646   -2.7279 C   0  0  0  0  0  0  0  0  0  0  0  0
   -1.7493    3.9074   -2.1240 C   0  0  0  0  0  0  0  0  0  0  0  0
   -0.9944    5.2974   -2.9113 S   0  0  0  0  0  0  0  0  0  0  0  0
   -1.9252    6.7088   -2.2408 C   0  0  0  0  0  0  0  0  0  0  0  0
   -2.4916    4.0085   -0.9556 C   0  0  0  0  0  0  0  0  0  0  0  0
   -3.0749    2.8803   -0.4171 C   0  0  0  0  0  0  0  0  0  0  0  0
   -3.7212   -1.8450    0.1504 C   0  0  0  0  0  0  0  0  0  0  0  0
   -5.4076   -2.1706    0.3114 S   0  0  0  0  0  0  0  0  0  0  0  0
   -0.4778   -0.1742   -0.5529 C   0  0  0  0  0  0  0  0  0  0  0  0
    0.5371   -0.3779   -1.4715 C   0  0  0  0  0  0  0  0  0  0  0  0
    0.4777   -1.1260   -2.6315 N   0  0  0  0  0  0  0  0  0  0  0  0
    1.0773   -0.6627   -3.8044 C   0  0  0  0  0  0  0  0  0  0  0  0
    1.4389   -1.5592   -4.8079 C   0  0  0  0  0  0  0  0  0  0  0  0
    2.0170   -1.1169   -5.9822 C   0  0  0  0  0  0  0  0  0  0  0  0
    2.2487    0.2362   -6.1805 C   0  0  0  0  0  0  0  0  0  0  0  0
    2.9904    0.9218   -7.6304 S   0  0  0  0  0  0  0  0  0  0  0  0
    3.3248   -0.5231   -8.6770 C   0  0  0  0  0  0  0  0  0  0  0  0
    1.8735    1.1403   -5.1898 C   0  0  0  0  0  0  0  0  0  0  0  0
    1.2908    0.7010   -4.0235 C   0  0  0  0  0  0  0  0  0  0  0  0
   -0.2294   -2.3590   -2.6849 C   0  0  0  0  0  0  0  0  0  0  0  0
    0.3920   -3.5305   -2.2616 C   0  0  0  0  0  0  0  0  0  0  0  0
   -0.2814   -4.7302   -2.3313 C   0  0  0  0  0  0  0  0  0  0  0  0
   -1.5932   -4.7753   -2.8020 C   0  0  0  0  0  0  0  0  0  0  0  0
   -2.3740   -6.3553   -2.8235 S   0  0  0  0  0  0  0  0  0  0  0  0
   -3.8345   -6.1077   -3.8711 C   0  0  0  0  0  0  0  0  0  0  0  0
   -2.2147   -3.6066   -3.2228 C   0  0  0  0  0  0  0  0  0  0  0  0
   -1.5235   -2.4098   -3.1821 C   0  0  0  0  0  0  0  0  0  0  0  0
    1.6908    0.3726   -1.1185 C   0  0  0  0  0  0  0  0  0  0  0  0
    3.3382    0.3086   -1.6406 S   0  0  0  0  0  0  0  0  0  0  0  0
    3.7962    1.3930   -0.3469 C   0  0  0  0  0  0  0  0  0  0  0  0
    2.7260    1.8052    0.4139 C   0  0  0  0  0  0  0  0  0  0  0  0
    2.8262    2.6973    1.4829 N   0  0  0  0  0  0  0  0  0  0  0  0
    2.1142    3.8875    1.4227 C   0  0  0  0  0  0  0  0  0  0  0  0
    1.6625    4.3682    0.1922 C   0  0  0  0  0  0  0  0  0  0  0  0
    0.9121    5.5202    0.1260 C   0  0  0  0  0  0  0  0  0  0  0  0
    0.6078    6.2192    1.2836 C   0  0  0  0  0  0  0  0  0  0  0  0
   -0.3967    7.6906    1.2002 S   0  0  0  0  0  0  0  0  0  0  0  0
    0.6830    8.7390    0.1728 C   0  0  0  0  0  0  0  0  0  0  0  0
    1.0607    5.7574    2.5109 C   0  0  0  0  0  0  0  0  0  0  0  0
    1.8102    4.6006    2.5827 C   0  0  0  0  0  0  0  0  0  0  0  0
    3.7814    2.4084    2.4722 C   0  0  0  0  0  0  0  0  0  0  0  0
    3.7754    1.1447    3.0613 C   0  0  0  0  0  0  0  0  0  0  0  0
    4.7595    0.7906    3.9552 C   0  0  0  0  0  0  0  0  0  0  0  0
    5.7736    1.6915    4.2802 C   0  0  0  0  0  0  0  0  0  0  0  0
    7.0144    1.0979    5.3815 S   0  0  0  0  0  0  0  0  0  0  0  0
    8.1586    2.4907    5.5742 C   0  0  0  0  0  0  0  0  0  0  0  0
    5.7602    2.9651    3.7246 C   0  0  0  0  0  0  0  0  0  0  0  0
    4.7657    3.3223    2.8334 C   0  0  0  0  0  0  0  0  0  0  0  0
    1.5277    1.1880   -0.0157 C   0  0  0  0  0  0  0  0  0  0  0  0
   -0.0490    1.0395    0.6654 S   0  0  0  0  0  0  0  0  0  0  0  0
    5.1765    1.6739   -0.0275 C   0  0  0  0  0  0  0  0  0  0  0  0
    5.9553    3.1642   -0.4083 S   0  0  0  0  0  0  0  0  0  0  0  0
    7.4014    2.7266    0.4882 C   0  0  0  0  0  0  0  0  0  0  0  0
    7.2384    1.4499    1.0219 C   0  0  0  0  0  0  0  0  0  0  0  0
    8.2179    0.4606    2.0441 S   0  0  0  0  0  0  0  0  0  0  0  0
    6.9680   -0.7662    2.0777 C   0  0  0  0  0  0  0  0  0  0  0  0
    7.1412   -1.9302    2.9492 C   0  0  0  0  0  0  0  0  0  0  0  0
    6.2870   -2.7574    3.1617 O   0  0  0  0  0  0  0  0  0  0  0  0
    8.3635   -1.9337    3.4805 O   0  0  0  0  0  0  0  0  0  0  0  0
    8.6529   -2.9475    4.4429 C   0  0  0  0  0  0  0  0  0  0  0  0
    8.1464   -2.5512    5.8217 C   0  0  0  0  0  0  0  0  0  0  0  0
    5.8753   -0.4405    1.3225 C   0  0  0  0  0  0  0  0  0  0  0  0
    6.0029    0.8388    0.7091 C   0  0  0  0  0  0  0  0  0  0  0  0
    4.5171   -1.4401    1.1326 Cl  0  0  0  0  0  0  0  0  0  0  0  0
    8.5437    3.5094    0.7043 C   0  0  0  0  0  0  0  0  0  0  0  0
    8.8954    4.7046    0.1398 C   0  0  0  0  0  0  0  0  0  0  0  0
    8.1887    5.3607   -0.9676 C   0  0  0  0  0  0  0  0  0  0  0  0
    7.0721    5.1036   -1.3829 O   0  0  0  0  0  0  0  0  0  0  0  0
    9.1130    6.3794   -1.4919 C   0  0  0  0  0  0  0  0  0  0  0  0
    8.9268    7.1885   -2.6099 C   0  0  0  0  0  0  0  0  0  0  0  0
    9.9888    8.0175   -2.8826 C   0  0  0  0  0  0  0  0  0  0  0  0
   11.1508    8.0450   -2.0993 C   0  0  0  0  0  0  0  0  0  0  0  0
   11.3418    7.2627   -0.9844 C   0  0  0  0  0  0  0  0  0  0  0  0
   10.2755    6.4092   -0.6916 C   0  0  0  0  0  0  0  0  0  0  0  0
   10.1169    5.4415    0.3901 C   0  0  0  0  0  0  0  0  0  0  0  0
   10.9195    5.3197    1.4949 C   0  0  0  0  0  0  0  0  0  0  0  0
   12.0963    6.0652    1.7112 C   0  0  0  0  0  0  0  0  0  0  0  0
   13.0656    6.6359    1.9398 N   0  0  0  0  0  0  0  0  0  0  0  0
   10.6224    4.4836    2.5899 C   0  0  0  0  0  0  0  0  0  0  0  0
   10.4059    3.8530    3.5259 N   0  0  0  0  0  0  0  0  0  0  0  0
   11.8091    9.0844   -2.9709 C   0  0  0  0  0  0  0  0  0  0  0  0
   12.8985    8.6065   -3.9633 C   0  0  0  0  0  0  0  0  0  0  0  0
   12.5879    7.1650   -4.2821 C   0  0  0  0  0  0  0  0  0  0  0  0
   11.4870    7.1417   -5.0214 C   0  0  0  0  0  0  0  0  0  0  0  0
   11.0332    8.5675   -5.2162 C   0  0  0  0  0  0  0  0  0  0  0  0
   12.3935    9.2823   -5.2482 C   0  0  0  0  0  0  0  0  0  0  0  0
   10.5132    9.0564   -3.8413 C   0  0  0  0  0  0  0  0  0  0  0  0
   -5.8173   -5.5472    1.7725 H   0  0  0  0  0  0  0  0  0  0  0  0
  -10.7405   -5.0715    3.7415 H   0  0  0  0  0  0  0  0  0  0  0  0
  -10.4557   -1.6517    0.0182 H   0  0  0  0  0  0  0  0  0  0  0  0
  -13.6798   -1.8920    1.1969 H   0  0  0  0  0  0  0  0  0  0  0  0
  -13.1623    0.3589    2.1325 H   0  0  0  0  0  0  0  0  0  0  0  0
  -10.8237    0.1653    3.2765 H   0  0  0  0  0  0  0  0  0  0  0  0
  -11.0058   -1.6163    5.2427 H   0  0  0  0  0  0  0  0  0  0  0  0
  -13.4590   -2.5241    5.2989 H   0  0  0  0  0  0  0  0  0  0  0  0
  -14.0537   -0.0428    4.5923 H   0  0  0  0  0  0  0  0  0  0  0  0
  -14.9196   -1.1537    3.5010 H   0  0  0  0  0  0  0  0  0  0  0  0
  -13.8562   -3.6243    3.0994 H   0  0  0  0  0  0  0  0  0  0  0  0
   -1.9809   -4.0306    2.8612 H   0  0  0  0  0  0  0  0  0  0  0  0
    0.3944   -4.0276    3.4197 H   0  0  0  0  0  0  0  0  0  0  0  0
    4.0614   -3.8353    3.1346 H   0  0  0  0  0  0  0  0  0  0  0  0
    2.6475   -4.1462    4.1677 H   0  0  0  0  0  0  0  0  0  0  0  0
    2.4854   -3.1351    2.6953 H   0  0  0  0  0  0  0  0  0  0  0  0
    1.1156   -6.9245    0.3593 H   0  0  0  0  0  0  0  0  0  0  0  0
   -1.2888   -6.9220   -0.2067 H   0  0  0  0  0  0  0  0  0  0  0  0
   -4.8807   -5.8158   -1.1032 H   0  0  0  0  0  0  0  0  0  0  0  0
   -5.9651   -7.9564   -1.6132 H   0  0  0  0  0  0  0  0  0  0  0  0
   -5.7663  -11.2870    1.8084 H   0  0  0  0  0  0  0  0  0  0  0  0
   -4.3826  -11.8676    0.8229 H   0  0  0  0  0  0  0  0  0  0  0  0
   -5.9978  -12.5747    0.6052 H   0  0  0  0  0  0  0  0  0  0  0  0
   -3.9690   -9.7580    1.7160 H   0  0  0  0  0  0  0  0  0  0  0  0
   -2.8935   -7.6329    2.2182 H   0  0  0  0  0  0  0  0  0  0  0  0
   -5.5016    1.1708   -2.1015 H   0  0  0  0  0  0  0  0  0  0  0  0
   -7.8793    1.3755   -1.5840 H   0  0  0  0  0  0  0  0  0  0  0  0
   -9.9645    2.3024   -0.9415 H   0  0  0  0  0  0  0  0  0  0  0  0
  -11.2690    1.2931   -0.2790 H   0  0  0  0  0  0  0  0  0  0  0  0
   -9.9915    0.5349   -1.2619 H   0  0  0  0  0  0  0  0  0  0  0  0
   -7.0467    0.5697    2.5356 H   0  0  0  0  0  0  0  0  0  0  0  0
   -4.6435    0.3519    2.0006 H   0  0  0  0  0  0  0  0  0  0  0  0
   -2.0352    0.5811   -2.6685 H   0  0  0  0  0  0  0  0  0  0  0  0
   -1.0187    2.5988   -3.6474 H   0  0  0  0  0  0  0  0  0  0  0  0
   -1.6761    6.8804   -1.1967 H   0  0  0  0  0  0  0  0  0  0  0  0
   -2.9884    6.5255   -2.3620 H   0  0  0  0  0  0  0  0  0  0  0  0
   -1.6267    7.5664   -2.8364 H   0  0  0  0  0  0  0  0  0  0  0  0
   -2.6185    4.9542   -0.4543 H   0  0  0  0  0  0  0  0  0  0  0  0
   -3.6634    2.9605    0.4847 H   0  0  0  0  0  0  0  0  0  0  0  0
    1.2690   -2.6162   -4.6697 H   0  0  0  0  0  0  0  0  0  0  0  0
    2.2848   -1.8453   -6.7305 H   0  0  0  0  0  0  0  0  0  0  0  0
    3.7836   -0.1300   -9.5790 H   0  0  0  0  0  0  0  0  0  0  0  0
    2.3946   -1.0257   -8.9258 H   0  0  0  0  0  0  0  0  0  0  0  0
    4.0153   -1.1943   -8.1746 H   0  0  0  0  0  0  0  0  0  0  0  0
    2.0361    2.1952   -5.3504 H   0  0  0  0  0  0  0  0  0  0  0  0
    0.9871    1.4224   -3.2808 H   0  0  0  0  0  0  0  0  0  0  0  0
    1.4012   -3.4905   -1.8801 H   0  0  0  0  0  0  0  0  0  0  0  0
    0.1993   -5.6441   -2.0213 H   0  0  0  0  0  0  0  0  0  0  0  0
   -3.5207   -5.7306   -4.8402 H   0  0  0  0  0  0  0  0  0  0  0  0
   -4.5440   -5.4381   -3.3947 H   0  0  0  0  0  0  0  0  0  0  0  0
   -4.2771   -7.0931   -3.9811 H   0  0  0  0  0  0  0  0  0  0  0  0
   -3.2327   -3.6140   -3.5769 H   0  0  0  0  0  0  0  0  0  0  0  0
   -2.0013   -1.5057   -3.5303 H   0  0  0  0  0  0  0  0  0  0  0  0
    1.9035    3.8408   -0.7180 H   0  0  0  0  0  0  0  0  0  0  0  0
    0.5745    5.8736   -0.8350 H   0  0  0  0  0  0  0  0  0  0  0  0
    0.8574    8.2658   -0.7885 H   0  0  0  0  0  0  0  0  0  0  0  0
    1.6216    8.9007    0.6944 H   0  0  0  0  0  0  0  0  0  0  0  0
    0.1608    9.6806    0.0392 H   0  0  0  0  0  0  0  0  0  0  0  0
    0.8139    6.3025    3.4092 H   0  0  0  0  0  0  0  0  0  0  0  0
    2.1561    4.2358    3.5384 H   0  0  0  0  0  0  0  0  0  0  0  0
    2.9962    0.4450    2.8006 H   0  0  0  0  0  0  0  0  0  0  0  0
    4.7622   -0.1904    4.4058 H   0  0  0  0  0  0  0  0  0  0  0  0
    8.6282    2.7350    4.6259 H   0  0  0  0  0  0  0  0  0  0  0  0
    8.9148    2.1486    6.2739 H   0  0  0  0  0  0  0  0  0  0  0  0
    7.6336    3.3443    5.9929 H   0  0  0  0  0  0  0  0  0  0  0  0
    6.5296    3.6816    3.9644 H   0  0  0  0  0  0  0  0  0  0  0  0
    4.7651    4.3084    2.3923 H   0  0  0  0  0  0  0  0  0  0  0  0
    8.1903   -3.8859    4.1191 H   0  0  0  0  0  0  0  0  0  0  0  0
    9.7402   -3.0431    4.4324 H   0  0  0  0  0  0  0  0  0  0  0  0
    8.4406   -3.3028    6.5483 H   0  0  0  0  0  0  0  0  0  0  0  0
    7.0622   -2.4730    5.8124 H   0  0  0  0  0  0  0  0  0  0  0  0
    8.5603   -1.5885    6.1102 H   0  0  0  0  0  0  0  0  0  0  0  0
    9.2476    3.0455    1.3869 H   0  0  0  0  0  0  0  0  0  0  0  0
    8.0179    7.1351   -3.1884 H   0  0  0  0  0  0  0  0  0  0  0  0
   12.2410    7.2914   -0.3913 H   0  0  0  0  0  0  0  0  0  0  0  0
   12.0759   10.0186   -2.4811 H   0  0  0  0  0  0  0  0  0  0  0  0
   13.9173    8.8204   -3.6517 H   0  0  0  0  0  0  0  0  0  0  0  0
   13.1513    6.3329   -3.9022 H   0  0  0  0  0  0  0  0  0  0  0  0
   10.9463    6.2865   -5.3823 H   0  0  0  0  0  0  0  0  0  0  0  0
   10.3537    8.7459   -6.0453 H   0  0  0  0  0  0  0  0  0  0  0  0
   12.9863    9.0194   -6.1229 H   0  0  0  0  0  0  0  0  0  0  0  0
   12.3167   10.3657   -5.1677 H   0  0  0  0  0  0  0  0  0  0  0  0
    9.9314    9.9726   -3.9192 H   0  0  0  0  0  0  0  0  0  0  0  0
  1  2  2  0  0  0  0
  2  3  1  0  0  0  0
  3  4  2  0  0  0  0
  3  5  1  0  0  0  0
  5  6  2  0  0  0  0
  6  7  1  0  0  0  0
  7  8  2  0  0  0  0
  8  9  1  0  0  0  0
  9 10  2  0  0  0  0
 10 11  1  0  0  0  0
 11 12  2  0  0  0  0
 12 13  1  0  0  0  0
 13 14  3  0  0  0  0
 12 15  1  0  0  0  0
 15 16  3  0  0  0  0
  8 17  1  0  0  0  0
 17 18  1  0  0  0  0
 18 19  1  0  0  0  0
 19 20  2  0  0  0  0
 20 21  1  0  0  0  0
 21 22  1  0  0  0  0
 21 23  1  0  0  0  0
  1 24  1  0  0  0  0
 24 25  2  0  0  0  0
 25 26  1  0  0  0  0
 26 27  1  0  0  0  0
 27 28  2  0  0  0  0
 28 29  1  0  0  0  0
 29 30  2  0  0  0  0
 30 31  1  0  0  0  0
 31 32  1  0  0  0  0
 30 33  1  0  0  0  0
 33 34  2  0  0  0  0
 26 35  1  0  0  0  0
 35 36  2  0  0  0  0
 36 37  1  0  0  0  0
 37 38  2  0  0  0  0
 38 39  1  0  0  0  0
 39 40  1  0  0  0  0
 38 41  1  0  0  0  0
 41 42  2  0  0  0  0
 25 43  1  0  0  0  0
 43 44  1  0  0  0  0
 44 45  1  0  0  0  0
 45 46  2  0  0  0  0
 46 47  1  0  0  0  0
 47 48  1  0  0  0  0
 48 49  2  0  0  0  0
 49 50  1  0  0  0  0
 50 51  2  0  0  0  0
 51 52  1  0  0  0  0
 52 53  1  0  0  0  0
 51 54  1  0  0  0  0
 54 55  2  0  0  0  0
 47 56  1  0  0  0  0
 56 57  2  0  0  0  0
 57 58  1  0  0  0  0
 58 59  2  0  0  0  0
 59 60  1  0  0  0  0
 60 61  1  0  0  0  0
 59 62  1  0  0  0  0
 62 63  2  0  0  0  0
 46 64  1  0  0  0  0
 64 65  1  0  0  0  0
 45 66  1  0  0  0  0
 66 67  2  0  0  0  0
 67 68  1  0  0  0  0
 68 69  1  0  0  0  0
 69 70  2  0  0  0  0
 70 71  1  0  0  0  0
 71 72  2  0  0  0  0
 72 73  1  0  0  0  0
 73 74  1  0  0  0  0
 72 75  1  0  0  0  0
 75 76  2  0  0  0  0
 68 77  1  0  0  0  0
 77 78  2  0  0  0  0
 78 79  1  0  0  0  0
 79 80  2  0  0  0  0
 80 81  1  0  0  0  0
 81 82  1  0  0  0  0
 80 83  1  0  0  0  0
 83 84  2  0  0  0  0
 67 85  1  0  0  0  0
 85 86  1  0  0  0  0
 86 87  1  0  0  0  0
 87 88  2  0  0  0  0
 88 89  1  0  0  0  0
 89 90  1  0  0  0  0
 90 91  2  0  0  0  0
 91 92  1  0  0  0  0
 92 93  2  0  0  0  0
 93 94  1  0  0  0  0
 94 95  1  0  0  0  0
 93 96  1  0  0  0  0
 96 97  2  0  0  0  0
 89 98  1  0  0  0  0
 98 99  2  0  0  0  0
 99100  1  0  0  0  0
100101  2  0  0  0  0
101102  1  0  0  0  0
102103  1  0  0  0  0
101104  1  0  0  0  0
104105  2  0  0  0  0
 88106  1  0  0  0  0
106107  1  0  0  0  0
 87108  1  0  0  0  0
108109  1  0  0  0  0
109110  1  0  0  0  0
110111  2  0  0  0  0
111112  1  0  0  0  0
112113  1  0  0  0  0
113114  1  0  0  0  0
114115  2  0  0  0  0
114116  1  0  0  0  0
116117  1  0  0  0  0
117118  1  0  0  0  0
113119  2  0  0  0  0
119120  1  0  0  0  0
119121  1  0  0  0  0
110122  1  0  0  0  0
122123  2  0  0  0  0
123124  1  0  0  0  0
124125  2  0  0  0  0
124126  1  0  0  0  0
126127  2  0  0  0  0
127128  1  0  0  0  0
128129  2  0  0  0  0
129130  1  0  0  0  0
130131  2  0  0  0  0
131132  1  0  0  0  0
132133  2  0  0  0  0
133134  1  0  0  0  0
134135  3  0  0  0  0
133136  1  0  0  0  0
136137  3  0  0  0  0
129138  1  0  0  0  0
138139  1  0  0  0  0
139140  1  0  0  0  0
140141  2  0  0  0  0
141142  1  0  0  0  0
142143  1  0  0  0  0
142144  1  0  0  0  0
 11  2  1  0  0  0  0
 23 17  1  0  0  0  0
 65 24  1  0  0  0  0
107 66  1  0  0  0  0
120108  2  0  0  0  0
132123  1  0  0  0  0
144138  1  0  0  0  0
 10  5  1  0  0  0  0
 22 18  1  0  0  0  0
 34 27  1  0  0  0  0
 42 35  1  0  0  0  0
 64 43  2  0  0  0  0
 76 69  1  0  0  0  0
 84 77  1  0  0  0  0
106 85  2  0  0  0  0
120111  1  0  0  0  0
131126  1  0  0  0  0
143139  1  0  0  0  0
 23  7  1  0  0  0  0
 55 48  1  0  0  0  0
 63 56  1  0  0  0  0
 97 90  1  0  0  0  0
105 98  1  0  0  0  0
144128  1  0  0  0  0
  1145  1  0  0  0  0
  6146  1  0  0  0  0
  9147  1  0  0  0  0
 17148  1  0  0  0  0
 18149  1  0  0  0  0
 19150  1  0  0  0  0
 20151  1  0  0  0  0
 21152  1  0  0  0  0
 22153  1  0  0  0  0
 22154  1  0  0  0  0
 23155  1  0  0  0  0
 28156  1  0  0  0  0
 29157  1  0  0  0  0
 32158  1  0  0  0  0
 32159  1  0  0  0  0
 32160  1  0  0  0  0
 33161  1  0  0  0  0
 34162  1  0  0  0  0
 36163  1  0  0  0  0
 37164  1  0  0  0  0
 40165  1  0  0  0  0
 40166  1  0  0  0  0
 40167  1  0  0  0  0
 41168  1  0  0  0  0
 42169  1  0  0  0  0
 49170  1  0  0  0  0
 50171  1  0  0  0  0
 53172  1  0  0  0  0
 53173  1  0  0  0  0
 53174  1  0  0  0  0
 54175  1  0  0  0  0
 55176  1  0  0  0  0
 57177  1  0  0  0  0
 58178  1  0  0  0  0
 61179  1  0  0  0  0
 61180  1  0  0  0  0
 61181  1  0  0  0  0
 62182  1  0  0  0  0
 63183  1  0  0  0  0
 70184  1  0  0  0  0
 71185  1  0  0  0  0
 74186  1  0  0  0  0
 74187  1  0  0  0  0
 74188  1  0  0  0  0
 75189  1  0  0  0  0
 76190  1  0  0  0  0
 78191  1  0  0  0  0
 79192  1  0  0  0  0
 82193  1  0  0  0  0
 82194  1  0  0  0  0
 82195  1  0  0  0  0
 83196  1  0  0  0  0
 84197  1  0  0  0  0
 91198  1  0  0  0  0
 92199  1  0  0  0  0
 95200  1  0  0  0  0
 95201  1  0  0  0  0
 95202  1  0  0  0  0
 96203  1  0  0  0  0
 97204  1  0  0  0  0
 99205  1  0  0  0  0
100206  1  0  0  0  0
103207  1  0  0  0  0
103208  1  0  0  0  0
103209  1  0  0  0  0
104210  1  0  0  0  0
105211  1  0  0  0  0
117212  1  0  0  0  0
117213  1  0  0  0  0
118214  1  0  0  0  0
118215  1  0  0  0  0
118216  1  0  0  0  0
122217  1  0  0  0  0
127218  1  0  0  0  0
130219  1  0  0  0  0
138220  1  0  0  0  0
139221  1  0  0  0  0
140222  1  0  0  0  0
141223  1  0  0  0  0
142224  1  0  0  0  0
143225  1  0  0  0  0
143226  1  0  0  0  0
144227  1  0  0  0  0
M  END
