
  xtb     02062208003D
 energy: -321.770824109587 gnorm: 0.000358334299 xtb: 6.4.1 (unknown)
199218  0     0  0            999 V2000
    0.3766   -5.5112    2.9751 C   0  0  0  0  0  0  0  0  0  0  0  0
   -0.2344   -5.7888    4.1786 C   0  0  0  0  0  0  0  0  0  0  0  0
   -0.6354   -4.8300    5.2084 C   0  0  0  0  0  0  0  0  0  0  0  0
   -0.6460   -3.6098    5.1384 O   0  0  0  0  0  0  0  0  0  0  0  0
   -1.0418   -5.6266    6.3812 C   0  0  0  0  0  0  0  0  0  0  0  0
   -1.4841   -5.1513    7.6137 C   0  0  0  0  0  0  0  0  0  0  0  0
   -1.8001   -6.1399    8.5149 C   0  0  0  0  0  0  0  0  0  0  0  0
   -1.6840   -7.5026    8.2147 C   0  0  0  0  0  0  0  0  0  0  0  0
   -1.2490   -7.9854    7.0026 C   0  0  0  0  0  0  0  0  0  0  0  0
   -0.9212   -6.9959    6.0724 C   0  0  0  0  0  0  0  0  0  0  0  0
   -0.4609   -7.1191    4.6900 C   0  0  0  0  0  0  0  0  0  0  0  0
   -0.3042   -8.3059    4.0137 C   0  0  0  0  0  0  0  0  0  0  0  0
   -0.0535   -8.4385    2.6361 C   0  0  0  0  0  0  0  0  0  0  0  0
    0.1038   -8.6555    1.5171 N   0  0  0  0  0  0  0  0  0  0  0  0
   -0.4054   -9.5845    4.5958 C   0  0  0  0  0  0  0  0  0  0  0  0
   -0.4321  -10.6637    4.9896 N   0  0  0  0  0  0  0  0  0  0  0  0
   -2.1642   -7.9271    9.5802 C   0  0  0  0  0  0  0  0  0  0  0  0
   -1.0842   -8.4036   10.5744 C   0  0  0  0  0  0  0  0  0  0  0  0
   -1.7590   -8.2887   11.9221 C   0  0  0  0  0  0  0  0  0  0  0  0
   -1.8728   -6.9980   12.2077 C   0  0  0  0  0  0  0  0  0  0  0  0
   -1.2760   -6.2186   11.0580 C   0  0  0  0  0  0  0  0  0  0  0  0
   -0.1584   -7.1818   10.6379 C   0  0  0  0  0  0  0  0  0  0  0  0
   -2.2957   -6.4065    9.9150 C   0  0  0  0  0  0  0  0  0  0  0  0
    0.7210   -4.2976    2.3854 C   0  0  0  0  0  0  0  0  0  0  0  0
    1.4139   -4.1928    1.1503 C   0  0  0  0  0  0  0  0  0  0  0  0
    1.9852   -5.2337    0.4614 N   0  0  0  0  0  0  0  0  0  0  0  0
    1.9650   -5.1979   -0.9442 C   0  0  0  0  0  0  0  0  0  0  0  0
    3.0870   -5.5572   -1.6831 C   0  0  0  0  0  0  0  0  0  0  0  0
    3.0590   -5.5193   -3.0632 C   0  0  0  0  0  0  0  0  0  0  0  0
    1.9091   -5.1138   -3.7273 C   0  0  0  0  0  0  0  0  0  0  0  0
    1.7749   -4.9663   -5.4770 S   0  0  0  0  0  0  0  0  0  0  0  0
    3.3917   -5.5193   -6.0901 C   0  0  0  0  0  0  0  0  0  0  0  0
    0.7726   -4.7853   -2.9885 C   0  0  0  0  0  0  0  0  0  0  0  0
    0.7998   -4.8232   -1.6134 C   0  0  0  0  0  0  0  0  0  0  0  0
    2.6123   -6.3057    1.1158 C   0  0  0  0  0  0  0  0  0  0  0  0
    3.3068   -6.0973    2.3099 C   0  0  0  0  0  0  0  0  0  0  0  0
    3.8349   -7.1652    2.9972 C   0  0  0  0  0  0  0  0  0  0  0  0
    3.7045   -8.4609    2.4974 C   0  0  0  0  0  0  0  0  0  0  0  0
    4.3401   -9.7738    3.4903 S   0  0  0  0  0  0  0  0  0  0  0  0
    3.4401  -11.2248    2.8720 C   0  0  0  0  0  0  0  0  0  0  0  0
    3.0944   -8.6595    1.2673 C   0  0  0  0  0  0  0  0  0  0  0  0
    2.5422   -7.5915    0.5869 C   0  0  0  0  0  0  0  0  0  0  0  0
    1.4495   -2.8620    0.7038 C   0  0  0  0  0  0  0  0  0  0  0  0
    2.1173   -2.0646   -0.6894 S   0  0  0  0  0  0  0  0  0  0  0  0
    1.5531   -0.5081   -0.0860 C   0  0  0  0  0  0  0  0  0  0  0  0
    0.9679   -0.6131    1.1758 C   0  0  0  0  0  0  0  0  0  0  0  0
    0.5184    0.4348    1.9660 N   0  0  0  0  0  0  0  0  0  0  0  0
   -0.6389    0.1642    2.7219 C   0  0  0  0  0  0  0  0  0  0  0  0
   -0.6473    0.3077    4.1056 C   0  0  0  0  0  0  0  0  0  0  0  0
   -1.7481   -0.0905    4.8342 C   0  0  0  0  0  0  0  0  0  0  0  0
   -2.8491   -0.6384    4.1883 C   0  0  0  0  0  0  0  0  0  0  0  0
   -4.2342   -1.2658    5.0916 S   0  0  0  0  0  0  0  0  0  0  0  0
   -3.3812   -2.0493    6.4949 C   0  0  0  0  0  0  0  0  0  0  0  0
   -2.8707   -0.7201    2.8012 C   0  0  0  0  0  0  0  0  0  0  0  0
   -1.7707   -0.3235    2.0717 C   0  0  0  0  0  0  0  0  0  0  0  0
    1.2630    1.5910    2.1853 C   0  0  0  0  0  0  0  0  0  0  0  0
    0.6341    2.7582    2.6276 C   0  0  0  0  0  0  0  0  0  0  0  0
    1.3482    3.9253    2.7655 C   0  0  0  0  0  0  0  0  0  0  0  0
    2.7099    3.9655    2.4711 C   0  0  0  0  0  0  0  0  0  0  0  0
    3.5074    5.5307    2.6424 S   0  0  0  0  0  0  0  0  0  0  0  0
    5.1859    5.2355    2.0172 C   0  0  0  0  0  0  0  0  0  0  0  0
    3.3507    2.7983    2.0789 C   0  0  0  0  0  0  0  0  0  0  0  0
    2.6343    1.6262    1.9445 C   0  0  0  0  0  0  0  0  0  0  0  0
    0.8784   -1.9588    1.5924 C   0  0  0  0  0  0  0  0  0  0  0  0
    0.2471   -2.7168    3.0107 S   0  0  0  0  0  0  0  0  0  0  0  0
    1.6095    0.6525   -0.8955 C   0  0  0  0  0  0  0  0  0  0  0  0
    2.3702    0.8796   -2.0369 C   0  0  0  0  0  0  0  0  0  0  0  0
    3.3419   -0.0718   -2.6102 C   0  0  0  0  0  0  0  0  0  0  0  0
    4.6135   -0.2194   -2.0523 C   0  0  0  0  0  0  0  0  0  0  0  0
    5.5198   -1.0780   -2.6546 C   0  0  0  0  0  0  0  0  0  0  0  0
    5.1844   -1.8197   -3.7758 C   0  0  0  0  0  0  0  0  0  0  0  0
    6.1920   -2.7468   -4.3972 C   0  0  0  0  0  0  0  0  0  0  0  0
    6.5626   -3.8918   -3.4545 C   0  0  0  0  0  0  0  0  0  0  0  0
    3.9155   -1.6651   -4.3122 C   0  0  0  0  0  0  0  0  0  0  0  0
    2.9977   -0.7804   -3.7668 C   0  0  0  0  0  0  0  0  0  0  0  0
    1.6653   -0.5928   -4.4404 C   0  0  0  0  0  0  0  0  0  0  0  0
    0.5236   -1.2768   -3.6905 C   0  0  0  0  0  0  0  0  0  0  0  0
    5.0465    0.5519   -0.8337 C   0  0  0  0  0  0  0  0  0  0  0  0
    5.3517   -0.3780    0.3413 C   0  0  0  0  0  0  0  0  0  0  0  0
    2.1080    2.1286   -2.6041 C   0  0  0  0  0  0  0  0  0  0  0  0
    1.1269    2.8519   -1.9512 C   0  0  0  0  0  0  0  0  0  0  0  0
    0.5049    1.9723   -0.5906 S   0  0  0  0  0  0  0  0  0  0  0  0
    0.6101    4.1495   -2.2387 C   0  0  0  0  0  0  0  0  0  0  0  0
    1.1134    5.0200   -3.2007 C   0  0  0  0  0  0  0  0  0  0  0  0
    2.1937    4.6822   -3.9280 F   0  0  0  0  0  0  0  0  0  0  0  0
    0.5497    6.2736   -3.4435 C   0  0  0  0  0  0  0  0  0  0  0  0
    1.1621    7.0595   -4.3384 F   0  0  0  0  0  0  0  0  0  0  0  0
   -0.5361    6.7578   -2.7257 C   0  0  0  0  0  0  0  0  0  0  0  0
   -1.0326    5.9287   -1.6824 C   0  0  0  0  0  0  0  0  0  0  0  0
   -2.0235    6.3706   -0.8904 N   0  0  0  0  0  0  0  0  0  0  0  0
   -2.5134    5.5820    0.0348 C   0  0  0  0  0  0  0  0  0  0  0  0
   -3.5222    6.1905    0.9587 C   0  0  0  0  0  0  0  0  0  0  0  0
   -2.8228    6.6939    2.2249 C   0  0  0  0  0  0  0  0  0  0  0  0
   -2.0566    4.2393    0.1614 C   0  0  0  0  0  0  0  0  0  0  0  0
   -1.0594    3.8235   -0.5799 N   0  0  0  0  0  0  0  0  0  0  0  0
   -0.4993    4.6352   -1.4823 C   0  0  0  0  0  0  0  0  0  0  0  0
   -2.6969    3.2180    1.0492 C   0  0  0  0  0  0  0  0  0  0  0  0
   -3.9135    2.5974    0.3573 C   0  0  0  0  0  0  0  0  0  0  0  0
   -1.1316    8.0477   -2.9460 C   0  0  0  0  0  0  0  0  0  0  0  0
   -1.3831    8.5847   -4.1640 C   0  0  0  0  0  0  0  0  0  0  0  0
   -1.3915    7.8079   -5.4373 C   0  0  0  0  0  0  0  0  0  0  0  0
   -1.1415    6.6323   -5.5856 O   0  0  0  0  0  0  0  0  0  0  0  0
   -1.9020    8.7347   -6.4622 C   0  0  0  0  0  0  0  0  0  0  0  0
   -2.0952    8.4529   -7.8128 C   0  0  0  0  0  0  0  0  0  0  0  0
   -2.6039    9.5034   -8.5367 C   0  0  0  0  0  0  0  0  0  0  0  0
   -2.9054   10.7450   -7.9594 C   0  0  0  0  0  0  0  0  0  0  0  0
   -2.7207   11.0365   -6.6296 C   0  0  0  0  0  0  0  0  0  0  0  0
   -2.2013    9.9806   -5.8731 C   0  0  0  0  0  0  0  0  0  0  0  0
   -1.8793    9.9196   -4.4519 C   0  0  0  0  0  0  0  0  0  0  0  0
   -1.9686   10.9544   -3.5595 C   0  0  0  0  0  0  0  0  0  0  0  0
   -1.5923   10.8873   -2.2006 C   0  0  0  0  0  0  0  0  0  0  0  0
   -1.3009   10.9255   -1.0905 N   0  0  0  0  0  0  0  0  0  0  0  0
   -2.4397   12.2460   -3.8755 C   0  0  0  0  0  0  0  0  0  0  0  0
   -2.8179   13.3145   -4.0593 N   0  0  0  0  0  0  0  0  0  0  0  0
   -3.3962   11.3214   -9.2636 C   0  0  0  0  0  0  0  0  0  0  0  0
   -4.9271   11.4311   -9.4720 C   0  0  0  0  0  0  0  0  0  0  0  0
   -5.5550   10.3587   -8.6168 C   0  0  0  0  0  0  0  0  0  0  0  0
   -5.2677    9.1849   -9.1634 C   0  0  0  0  0  0  0  0  0  0  0  0
   -4.4402    9.4425  -10.3985 C   0  0  0  0  0  0  0  0  0  0  0  0
   -5.0480   10.7774  -10.8579 C   0  0  0  0  0  0  0  0  0  0  0  0
   -3.0580    9.9397   -9.9069 C   0  0  0  0  0  0  0  0  0  0  0  0
    0.6521   -6.3768    2.3865 H   0  0  0  0  0  0  0  0  0  0  0  0
   -1.5614   -4.0933    7.8098 H   0  0  0  0  0  0  0  0  0  0  0  0
   -1.1689   -9.0373    6.7846 H   0  0  0  0  0  0  0  0  0  0  0  0
   -3.0605   -8.5441    9.5978 H   0  0  0  0  0  0  0  0  0  0  0  0
   -0.6336   -9.3620   10.3318 H   0  0  0  0  0  0  0  0  0  0  0  0
   -2.1226   -9.1286   12.4845 H   0  0  0  0  0  0  0  0  0  0  0  0
   -2.3505   -6.5443   13.0563 H   0  0  0  0  0  0  0  0  0  0  0  0
   -0.9999   -5.1866   11.2579 H   0  0  0  0  0  0  0  0  0  0  0  0
    0.3103   -6.9306    9.6883 H   0  0  0  0  0  0  0  0  0  0  0  0
    0.6065   -7.2848   11.4058 H   0  0  0  0  0  0  0  0  0  0  0  0
   -3.2811   -6.0101   10.1535 H   0  0  0  0  0  0  0  0  0  0  0  0
    3.9872   -5.8640   -1.1712 H   0  0  0  0  0  0  0  0  0  0  0  0
    3.9397   -5.8123   -3.6106 H   0  0  0  0  0  0  0  0  0  0  0  0
    3.5567   -6.5583   -5.8204 H   0  0  0  0  0  0  0  0  0  0  0  0
    3.3426   -5.4235   -7.1705 H   0  0  0  0  0  0  0  0  0  0  0  0
    4.1769   -4.8800   -5.6975 H   0  0  0  0  0  0  0  0  0  0  0  0
   -0.1337   -4.5163   -3.5092 H   0  0  0  0  0  0  0  0  0  0  0  0
   -0.0849   -4.5749   -1.0464 H   0  0  0  0  0  0  0  0  0  0  0  0
    3.4022   -5.0975    2.7065 H   0  0  0  0  0  0  0  0  0  0  0  0
    4.3495   -7.0123    3.9333 H   0  0  0  0  0  0  0  0  0  0  0  0
    3.8467  -11.5446    1.9169 H   0  0  0  0  0  0  0  0  0  0  0  0
    3.5898  -12.0028    3.6139 H   0  0  0  0  0  0  0  0  0  0  0  0
    2.3834  -10.9874    2.7919 H   0  0  0  0  0  0  0  0  0  0  0  0
    3.0113   -9.6451    0.8407 H   0  0  0  0  0  0  0  0  0  0  0  0
    2.0287   -7.7610   -0.3462 H   0  0  0  0  0  0  0  0  0  0  0  0
    0.2232    0.7034    4.6070 H   0  0  0  0  0  0  0  0  0  0  0  0
   -1.7359    0.0050    5.9080 H   0  0  0  0  0  0  0  0  0  0  0  0
   -2.4570   -2.4860    6.1266 H   0  0  0  0  0  0  0  0  0  0  0  0
   -3.1906   -1.3209    7.2784 H   0  0  0  0  0  0  0  0  0  0  0  0
   -4.0480   -2.8219    6.8656 H   0  0  0  0  0  0  0  0  0  0  0  0
   -3.7429   -1.1204    2.3077 H   0  0  0  0  0  0  0  0  0  0  0  0
   -1.7647   -0.4134    0.9952 H   0  0  0  0  0  0  0  0  0  0  0  0
   -0.4203    2.7456    2.8523 H   0  0  0  0  0  0  0  0  0  0  0  0
    0.8569    4.8294    3.0916 H   0  0  0  0  0  0  0  0  0  0  0  0
    5.6776    6.2032    2.0348 H   0  0  0  0  0  0  0  0  0  0  0  0
    5.1400    4.8630    0.9980 H   0  0  0  0  0  0  0  0  0  0  0  0
    5.7128    4.5443    2.6689 H   0  0  0  0  0  0  0  0  0  0  0  0
    4.4096    2.7844    1.8764 H   0  0  0  0  0  0  0  0  0  0  0  0
    3.1468    0.7250    1.6495 H   0  0  0  0  0  0  0  0  0  0  0  0
    6.5185   -1.1544   -2.2489 H   0  0  0  0  0  0  0  0  0  0  0  0
    5.7898   -3.1519   -5.3287 H   0  0  0  0  0  0  0  0  0  0  0  0
    7.0958   -2.1841   -4.6466 H   0  0  0  0  0  0  0  0  0  0  0  0
    7.2187   -4.6013   -3.9547 H   0  0  0  0  0  0  0  0  0  0  0  0
    7.0755   -3.5131   -2.5743 H   0  0  0  0  0  0  0  0  0  0  0  0
    5.6672   -4.4109   -3.1217 H   0  0  0  0  0  0  0  0  0  0  0  0
    3.6382   -2.2202   -5.1976 H   0  0  0  0  0  0  0  0  0  0  0  0
    1.7214   -1.0116   -5.4470 H   0  0  0  0  0  0  0  0  0  0  0  0
    1.4439    0.4728   -4.5319 H   0  0  0  0  0  0  0  0  0  0  0  0
   -0.3882   -1.2361   -4.2819 H   0  0  0  0  0  0  0  0  0  0  0  0
    0.7732   -2.3174   -3.5015 H   0  0  0  0  0  0  0  0  0  0  0  0
    0.3356   -0.7890   -2.7380 H   0  0  0  0  0  0  0  0  0  0  0  0
    4.2717    1.2645   -0.5465 H   0  0  0  0  0  0  0  0  0  0  0  0
    5.9490    1.1198   -1.0780 H   0  0  0  0  0  0  0  0  0  0  0  0
    5.6343    0.1977    1.2205 H   0  0  0  0  0  0  0  0  0  0  0  0
    4.4820   -0.9850    0.5838 H   0  0  0  0  0  0  0  0  0  0  0  0
    6.1696   -1.0515    0.0981 H   0  0  0  0  0  0  0  0  0  0  0  0
    2.6331    2.4866   -3.4707 H   0  0  0  0  0  0  0  0  0  0  0  0
   -4.2936    5.4673    1.2224 H   0  0  0  0  0  0  0  0  0  0  0  0
   -3.9848    7.0353    0.4480 H   0  0  0  0  0  0  0  0  0  0  0  0
   -3.5492    7.1398    2.8993 H   0  0  0  0  0  0  0  0  0  0  0  0
   -2.0818    7.4459    1.9660 H   0  0  0  0  0  0  0  0  0  0  0  0
   -2.3208    5.8794    2.7432 H   0  0  0  0  0  0  0  0  0  0  0  0
   -1.9673    2.4300    1.2351 H   0  0  0  0  0  0  0  0  0  0  0  0
   -2.9981    3.6617    1.9980 H   0  0  0  0  0  0  0  0  0  0  0  0
   -4.3583    1.8447    1.0032 H   0  0  0  0  0  0  0  0  0  0  0  0
   -3.6094    2.1234   -0.5726 H   0  0  0  0  0  0  0  0  0  0  0  0
   -4.6647    3.3504    0.1293 H   0  0  0  0  0  0  0  0  0  0  0  0
   -1.4402    8.5603   -2.0448 H   0  0  0  0  0  0  0  0  0  0  0  0
   -1.8494    7.4826   -8.2152 H   0  0  0  0  0  0  0  0  0  0  0  0
   -2.9605   11.9949   -6.2002 H   0  0  0  0  0  0  0  0  0  0  0  0
   -2.8643   12.1981   -9.6277 H   0  0  0  0  0  0  0  0  0  0  0  0
   -5.3276   12.4345   -9.3544 H   0  0  0  0  0  0  0  0  0  0  0  0
   -6.0783   10.5546   -7.6992 H   0  0  0  0  0  0  0  0  0  0  0  0
   -5.5026    8.2040   -8.7935 H   0  0  0  0  0  0  0  0  0  0  0  0
   -4.3977    8.6351  -11.1249 H   0  0  0  0  0  0  0  0  0  0  0  0
   -6.0809   10.6782  -11.1881 H   0  0  0  0  0  0  0  0  0  0  0  0
   -4.4623   11.2790  -11.6270 H   0  0  0  0  0  0  0  0  0  0  0  0
   -2.3042    9.9133  -10.6913 H   0  0  0  0  0  0  0  0  0  0  0  0
  1  2  2  0  0  0  0
  2  3  1  0  0  0  0
  3  4  2  0  0  0  0
  3  5  1  0  0  0  0
  5  6  2  0  0  0  0
  6  7  1  0  0  0  0
  7  8  2  0  0  0  0
  8  9  1  0  0  0  0
  9 10  2  0  0  0  0
 10 11  1  0  0  0  0
 11 12  2  0  0  0  0
 12 13  1  0  0  0  0
 13 14  3  0  0  0  0
 12 15  1  0  0  0  0
 15 16  3  0  0  0  0
  8 17  1  0  0  0  0
 17 18  1  0  0  0  0
 18 19  1  0  0  0  0
 19 20  2  0  0  0  0
 20 21  1  0  0  0  0
 21 22  1  0  0  0  0
 21 23  1  0  0  0  0
  1 24  1  0  0  0  0
 24 25  2  0  0  0  0
 25 26  1  0  0  0  0
 26 27  1  0  0  0  0
 27 28  2  0  0  0  0
 28 29  1  0  0  0  0
 29 30  2  0  0  0  0
 30 31  1  0  0  0  0
 31 32  1  0  0  0  0
 30 33  1  0  0  0  0
 33 34  2  0  0  0  0
 26 35  1  0  0  0  0
 35 36  2  0  0  0  0
 36 37  1  0  0  0  0
 37 38  2  0  0  0  0
 38 39  1  0  0  0  0
 39 40  1  0  0  0  0
 38 41  1  0  0  0  0
 41 42  2  0  0  0  0
 25 43  1  0  0  0  0
 43 44  1  0  0  0  0
 44 45  1  0  0  0  0
 45 46  2  0  0  0  0
 46 47  1  0  0  0  0
 47 48  1  0  0  0  0
 48 49  2  0  0  0  0
 49 50  1  0  0  0  0
 50 51  2  0  0  0  0
 51 52  1  0  0  0  0
 52 53  1  0  0  0  0
 51 54  1  0  0  0  0
 54 55  2  0  0  0  0
 47 56  1  0  0  0  0
 56 57  2  0  0  0  0
 57 58  1  0  0  0  0
 58 59  2  0  0  0  0
 59 60  1  0  0  0  0
 60 61  1  0  0  0  0
 59 62  1  0  0  0  0
 62 63  2  0  0  0  0
 46 64  1  0  0  0  0
 64 65  1  0  0  0  0
 45 66  1  0  0  0  0
 66 67  2  0  0  0  0
 67 68  1  0  0  0  0
 68 69  2  0  0  0  0
 69 70  1  0  0  0  0
 70 71  2  0  0  0  0
 71 72  1  0  0  0  0
 72 73  1  0  0  0  0
 71 74  1  0  0  0  0
 74 75  2  0  0  0  0
 75 76  1  0  0  0  0
 76 77  1  0  0  0  0
 69 78  1  0  0  0  0
 78 79  1  0  0  0  0
 67 80  1  0  0  0  0
 80 81  2  0  0  0  0
 81 82  1  0  0  0  0
 81 83  1  0  0  0  0
 83 84  2  0  0  0  0
 84 85  1  0  0  0  0
 84 86  1  0  0  0  0
 86 87  1  0  0  0  0
 86 88  2  0  0  0  0
 88 89  1  0  0  0  0
 89 90  2  0  0  0  0
 90 91  1  0  0  0  0
 91 92  1  0  0  0  0
 92 93  1  0  0  0  0
 91 94  2  0  0  0  0
 94 95  1  0  0  0  0
 95 96  2  0  0  0  0
 94 97  1  0  0  0  0
 97 98  1  0  0  0  0
 88 99  1  0  0  0  0
 99100  2  0  0  0  0
100101  1  0  0  0  0
101102  2  0  0  0  0
101103  1  0  0  0  0
103104  2  0  0  0  0
104105  1  0  0  0  0
105106  2  0  0  0  0
106107  1  0  0  0  0
107108  2  0  0  0  0
108109  1  0  0  0  0
109110  2  0  0  0  0
110111  1  0  0  0  0
111112  3  0  0  0  0
110113  1  0  0  0  0
113114  3  0  0  0  0
106115  1  0  0  0  0
115116  1  0  0  0  0
116117  1  0  0  0  0
117118  2  0  0  0  0
118119  1  0  0  0  0
119120  1  0  0  0  0
119121  1  0  0  0  0
 11  2  1  0  0  0  0
 23 17  1  0  0  0  0
 65 24  1  0  0  0  0
 82 66  1  0  0  0  0
 96 83  1  0  0  0  0
109100  1  0  0  0  0
121115  1  0  0  0  0
 10  5  1  0  0  0  0
 22 18  1  0  0  0  0
 34 27  1  0  0  0  0
 42 35  1  0  0  0  0
 64 43  2  0  0  0  0
 75 68  1  0  0  0  0
 96 89  1  0  0  0  0
108103  1  0  0  0  0
120116  1  0  0  0  0
 23  7  1  0  0  0  0
 55 48  1  0  0  0  0
 63 56  1  0  0  0  0
121105  1  0  0  0  0
  1122  1  0  0  0  0
  6123  1  0  0  0  0
  9124  1  0  0  0  0
 17125  1  0  0  0  0
 18126  1  0  0  0  0
 19127  1  0  0  0  0
 20128  1  0  0  0  0
 21129  1  0  0  0  0
 22130  1  0  0  0  0
 22131  1  0  0  0  0
 23132  1  0  0  0  0
 28133  1  0  0  0  0
 29134  1  0  0  0  0
 32135  1  0  0  0  0
 32136  1  0  0  0  0
 32137  1  0  0  0  0
 33138  1  0  0  0  0
 34139  1  0  0  0  0
 36140  1  0  0  0  0
 37141  1  0  0  0  0
 40142  1  0  0  0  0
 40143  1  0  0  0  0
 40144  1  0  0  0  0
 41145  1  0  0  0  0
 42146  1  0  0  0  0
 49147  1  0  0  0  0
 50148  1  0  0  0  0
 53149  1  0  0  0  0
 53150  1  0  0  0  0
 53151  1  0  0  0  0
 54152  1  0  0  0  0
 55153  1  0  0  0  0
 57154  1  0  0  0  0
 58155  1  0  0  0  0
 61156  1  0  0  0  0
 61157  1  0  0  0  0
 61158  1  0  0  0  0
 62159  1  0  0  0  0
 63160  1  0  0  0  0
 70161  1  0  0  0  0
 72162  1  0  0  0  0
 72163  1  0  0  0  0
 73164  1  0  0  0  0
 73165  1  0  0  0  0
 73166  1  0  0  0  0
 74167  1  0  0  0  0
 76168  1  0  0  0  0
 76169  1  0  0  0  0
 77170  1  0  0  0  0
 77171  1  0  0  0  0
 77172  1  0  0  0  0
 78173  1  0  0  0  0
 78174  1  0  0  0  0
 79175  1  0  0  0  0
 79176  1  0  0  0  0
 79177  1  0  0  0  0
 80178  1  0  0  0  0
 92179  1  0  0  0  0
 92180  1  0  0  0  0
 93181  1  0  0  0  0
 93182  1  0  0  0  0
 93183  1  0  0  0  0
 97184  1  0  0  0  0
 97185  1  0  0  0  0
 98186  1  0  0  0  0
 98187  1  0  0  0  0
 98188  1  0  0  0  0
 99189  1  0  0  0  0
104190  1  0  0  0  0
107191  1  0  0  0  0
115192  1  0  0  0  0
116193  1  0  0  0  0
117194  1  0  0  0  0
118195  1  0  0  0  0
119196  1  0  0  0  0
120197  1  0  0  0  0
120198  1  0  0  0  0
121199  1  0  0  0  0
M  END
