202

C         -3.41810       -2.91930       -2.67230
C         -4.57320       -2.66560       -3.37200
C         -5.49280       -1.54510       -3.15920
O         -5.60840       -0.85830       -2.15670
C         -6.29650       -1.43360       -4.38760
C         -7.21260       -0.43500       -4.70680
C         -7.78470       -0.58200       -5.94830
C         -7.47390       -1.64570       -6.80510
C         -6.57290       -2.63930       -6.49940
C         -5.97370       -2.50540       -5.24530
C         -4.95600       -3.33050       -4.59600
C         -4.45680       -4.51180       -5.08630
C         -3.54030       -5.34870       -4.42260
N         -2.80960       -6.10670       -3.95970
C         -4.81240       -5.08640       -6.32250
N         -5.02860       -5.62410       -7.31460
C         -8.39190       -1.14370       -7.89130
C         -7.74410       -0.43040       -9.10410
C         -6.44460        0.15780       -8.61280
C         -6.73790        1.16550       -7.80180
C         -8.24070        1.27700       -7.73010
C         -8.61260        0.83680       -9.15490
C         -8.73710        0.04260       -6.93660
C         -2.80530       -2.17680       -1.65880
C         -1.43730       -2.28050       -1.31480
N         -0.48370       -2.94850       -2.03410
C         -0.61750       -3.18120       -3.41930
C         -1.13990       -2.19970       -4.26330
C         -1.36800       -2.47940       -5.59000
C         -1.05270       -3.73570       -6.11000
S         -1.47880       -4.02600       -7.79560
C         -1.42950       -5.83370       -7.93380
C         -0.43680       -4.67610       -5.29500
C         -0.22750       -4.40230       -3.95670
C          0.77180       -3.23170       -1.45910
C          0.87150       -3.86950       -0.22680
C          2.11020       -4.15600        0.31670
C          3.26890       -3.81170       -0.36770
S          4.90290       -4.16010        0.18560
C          4.68340       -4.86180        1.84300
C          3.16830       -3.16860       -1.60290
C          1.93710       -2.88560       -2.14460
C         -1.14400       -1.46640       -0.20470
S          0.29170       -1.15040        0.68860
C         -0.51740        0.14640        1.59220
C         -1.86020        0.24490        1.26830
N         -2.78250        1.15180        1.73330
C         -2.81830        1.72040        3.01210
C         -3.29630        3.02480        3.12360
C         -3.51250        3.59730        4.35860
C         -3.25550        2.86850        5.51230
S         -3.58340        3.47990        7.13610
C         -4.54690        4.99270        6.84650
C         -2.73220        1.58120        5.40710
C         -2.51870        1.00760        4.17070
C         -3.94610        1.38630        0.94960
C         -5.19600        1.01110        1.42800
C         -6.31960        1.18810        0.64570
C         -6.20620        1.75260       -0.61790
S         -7.59530        1.95630       -1.68740
C         -8.60660        0.50980       -1.25030
C         -4.96730        2.18680       -1.07210
C         -3.84490        1.99610       -0.29550
C         -2.19990       -0.68750        0.24110
S         -3.63650       -0.96480       -0.68000
C          0.43450        0.87590        2.38950
C          1.64300        1.27290        1.83430
N          1.93210        1.30250        0.47740
C          3.20200        0.87050        0.06310
C          3.91770        1.60280       -0.87980
C          5.20020        1.23100       -1.23050
C          5.78330        0.11670       -0.64230
S          7.43160       -0.41840       -0.99620
C          8.26270        1.12620       -1.47360
C          5.05110       -0.64620        0.26090
C          3.77420       -0.27440        0.61550
C          0.98540        1.70630       -0.46550
C          0.86790        1.02170       -1.67490
C         -0.08860        1.39210       -2.59730
C         -0.93140        2.46330       -2.33480
S         -2.21020        2.96280       -3.46040
C         -2.87940        1.35750       -3.99610
C         -0.78090        3.18270       -1.15230
C          0.15490        2.79730       -0.21640
C          2.59020        1.61010        2.82210
S          4.25520        2.02920        2.73310
C          4.36390        2.00900        4.49230
C          3.15290        1.64630        5.09430
N          3.07310        1.33560        6.42980
C          1.86260        1.36100        7.12940
C          0.93180        2.37910        6.92340
C         -0.22240        2.41990        7.67270
C         -0.48160        1.44510        8.63520
S         -1.97930        1.61010        9.55010
C         -1.90520        0.25520       10.75920
C          0.43380        0.41800        8.82650
C          1.59350        0.38000        8.08120
C          4.21100        0.80030        7.07820
C          4.97230       -0.19100        6.46820
C          6.10560       -0.68290        7.08290
C          6.48900       -0.19660        8.32580
S          7.93210       -0.73620        9.18570
C          8.87880       -1.61510        7.91030
C          5.70000        0.76110        8.96020
C          4.57150        1.25620        8.34390
C          2.14010        1.45030        4.12560
S          0.47010        0.96910        4.15020
C          5.58430        2.37530        5.11150
C          6.81870        2.10030        4.59070
C          7.00990        1.06310        3.65990
C          8.18130        0.71870        3.04010
C          9.38310        1.57520        2.93190
O          9.59040        2.63630        3.48450
C         10.26990        0.87670        1.97720
C         11.47560        1.28230        1.44100
C         12.09980        0.45470        0.51840
C         11.53390       -0.75700        0.13130
C         12.21680       -1.63770       -0.86670
C         10.31980       -1.16570        0.68420
C          9.69080       -0.35060        1.60620
C          8.42100       -0.50190        2.31040
C          7.66350       -1.64580        2.35790
C          6.47010       -1.80170        3.08770
N          5.49940       -2.03690        3.65970
C          8.02000       -2.86120        1.73920
N          8.25390       -3.90010        1.30870
H         -2.84040       -3.77030       -3.00870
H         -7.41430        0.37680       -4.02520
H         -6.33700       -3.44630       -7.17310
H         -9.19730       -1.81380       -8.18530
H         -7.68630       -1.03530      -10.00510
H         -5.47760       -0.24400       -8.85310
H         -6.06490        1.77660       -7.22920
H         -8.63480        2.22710       -7.37930
H         -8.28170        1.54390       -9.91410
H         -9.67440        0.63040       -9.28230
H         -9.76910        0.14910       -6.60780
H         -1.39970       -1.23460       -3.85640
H         -1.80210       -1.73660       -6.24220
H         -0.40110       -6.18260       -7.96250
H         -1.92740       -6.06870       -8.86920
H         -1.97640       -6.27500       -7.10600
H         -0.14270       -5.63750       -5.68140
H          0.21390       -5.15070       -3.31710
H         -0.02670       -4.15610        0.29990
H          2.15750       -4.65470        1.27100
H          4.10880       -5.78140        1.78780
H          4.21560       -4.13140        2.49690
H          5.68930       -5.07570        2.19200
H          4.07280       -2.89580       -2.12420
H          1.86440       -2.39160       -3.10250
H         -3.51910        3.58400        2.22710
H         -3.88920        4.60580        4.40710
H         -4.87290        5.31640        7.83010
H         -5.40890        4.76850        6.22540
H         -3.92390        5.76040        6.39680
H         -2.52140        1.02550        6.30730
H         -2.15800       -0.00770        4.09890
H         -5.28050        0.56360        2.40770
H         -7.27890        0.87370        1.02510
H         -9.32100        0.37910       -2.05740
H         -9.13760        0.68030       -0.31830
H         -7.94910       -0.35180       -1.18270
H         -4.88790        2.65640       -2.03990
H         -2.87330        2.29520       -0.65150
H          3.46700        2.47640       -1.32750
H          5.74010        1.81990       -1.95520
H          7.99810        1.90830       -0.76830
H          9.32740        0.92040       -1.41740
H          7.99500        1.40540       -2.48850
H          5.49110       -1.53940        0.67260
H          3.21530       -0.86460        1.32630
H          1.52440        0.18740       -1.87570
H         -0.17140        0.84610       -3.52450
H         -3.83230        1.57180       -4.47000
H         -3.03830        0.72610       -3.12630
H         -2.21500        0.88780       -4.71580
H         -1.40230        4.04830       -0.97670
H          0.25060        3.33950        0.71260
H          1.13160        3.15120        6.19570
H         -0.93500        3.21620        7.53230
H         -1.92500       -0.70420       10.25060
H         -2.79670        0.36500       11.36860
H         -1.01990        0.35640       11.38000
H          0.25830       -0.35980        9.55150
H          2.30160       -0.42020        8.23640
H          4.68130       -0.58850        5.50770
H          6.66860       -1.45300        6.58150
H          8.98990       -0.97850        7.03730
H          9.85060       -1.81420        8.35110
H          8.39270       -2.55260        7.65570
H          5.99180        1.11930        9.93530
H          3.96800        2.00680        8.83250
H          5.51440        2.92930        6.03930
H          7.69210        2.59510        4.98740
H          6.15540        0.42640        3.47100
H         11.91070        2.22550        1.73420
H         13.04200        0.75770        0.08470
H         12.97080       -1.08980       -1.42610
H         11.49310       -2.06120       -1.55990
H         12.70590       -2.46610       -0.35400
H          9.87820       -2.09770        0.36880
