
  xtb     02132208343D
 energy: -362.444560232778 gnorm: 0.000930181281 xtb: 6.4.1 (unknown)
227250  0     0  0            999 V2000
   -5.2295   -4.5123   -4.7516 C   0  0  0  0  0  0  0  0  0  0  0  0
   -6.3836   -3.8812   -5.0797 C   0  0  0  0  0  0  0  0  0  0  0  0
   -6.4249   -2.4306   -5.4183 C   0  0  0  0  0  0  0  0  0  0  0  0
   -5.5144   -1.6367   -5.3324 O   0  0  0  0  0  0  0  0  0  0  0  0
   -7.7519   -2.2057   -6.0114 C   0  0  0  0  0  0  0  0  0  0  0  0
   -8.2454   -1.0020   -6.5102 C   0  0  0  0  0  0  0  0  0  0  0  0
   -9.5253   -1.0851   -7.0015 C   0  0  0  0  0  0  0  0  0  0  0  0
  -10.2570   -2.2816   -7.0202 C   0  0  0  0  0  0  0  0  0  0  0  0
   -9.7808   -3.4772   -6.5373 C   0  0  0  0  0  0  0  0  0  0  0  0
   -8.4850   -3.4119   -6.0135 C   0  0  0  0  0  0  0  0  0  0  0  0
   -7.6770   -4.4513   -5.3889 C   0  0  0  0  0  0  0  0  0  0  0  0
   -8.0943   -5.6992   -5.0043 C   0  0  0  0  0  0  0  0  0  0  0  0
   -7.3078   -6.5929   -4.2489 C   0  0  0  0  0  0  0  0  0  0  0  0
   -6.7408   -7.3524   -3.5999 N   0  0  0  0  0  0  0  0  0  0  0  0
   -9.3780   -6.2229   -5.2588 C   0  0  0  0  0  0  0  0  0  0  0  0
  -10.4032   -6.7047   -5.4456 N   0  0  0  0  0  0  0  0  0  0  0  0
  -11.4596   -1.6282   -7.6568 C   0  0  0  0  0  0  0  0  0  0  0  0
  -12.6521   -1.3281   -6.7245 C   0  0  0  0  0  0  0  0  0  0  0  0
  -13.4437   -0.2769   -7.4688 C   0  0  0  0  0  0  0  0  0  0  0  0
  -12.7504    0.8540   -7.4298 C   0  0  0  0  0  0  0  0  0  0  0  0
  -11.4768    0.5865   -6.6618 C   0  0  0  0  0  0  0  0  0  0  0  0
  -11.9902   -0.4507   -5.6554 C   0  0  0  0  0  0  0  0  0  0  0  0
  -10.6473   -0.2935   -7.6218 C   0  0  0  0  0  0  0  0  0  0  0  0
   -4.1254   -3.7925   -4.1852 C   0  0  0  0  0  0  0  0  0  0  0  0
   -4.1757   -3.0708   -3.0026 C   0  0  0  0  0  0  0  0  0  0  0  0
   -5.3269   -2.9828   -2.1946 N   0  0  0  0  0  0  0  0  0  0  0  0
   -6.2503   -1.9746   -2.5043 C   0  0  0  0  0  0  0  0  0  0  0  0
   -5.7931   -0.6837   -2.7648 C   0  0  0  0  0  0  0  0  0  0  0  0
   -6.6761    0.3058   -3.1449 C   0  0  0  0  0  0  0  0  0  0  0  0
   -8.0308    0.0277   -3.2641 C   0  0  0  0  0  0  0  0  0  0  0  0
   -9.1266    1.3154   -3.8079 S   0  0  0  0  0  0  0  0  0  0  0  0
  -10.4810    1.1562   -2.6019 C   0  0  0  0  0  0  0  0  0  0  0  0
   -8.4939   -1.2554   -3.0107 C   0  0  0  0  0  0  0  0  0  0  0  0
   -7.6119   -2.2470   -2.6350 C   0  0  0  0  0  0  0  0  0  0  0  0
   -5.6782   -4.0918   -1.4195 C   0  0  0  0  0  0  0  0  0  0  0  0
   -5.0666   -5.3324   -1.5904 C   0  0  0  0  0  0  0  0  0  0  0  0
   -5.4830   -6.4335   -0.8692 C   0  0  0  0  0  0  0  0  0  0  0  0
   -6.5199   -6.3201    0.0435 C   0  0  0  0  0  0  0  0  0  0  0  0
   -7.1756   -7.7062    0.9208 S   0  0  0  0  0  0  0  0  0  0  0  0
   -6.8056   -9.0780   -0.2142 C   0  0  0  0  0  0  0  0  0  0  0  0
   -7.0642   -5.0641    0.2972 C   0  0  0  0  0  0  0  0  0  0  0  0
   -6.6404   -3.9637   -0.4130 C   0  0  0  0  0  0  0  0  0  0  0  0
   -2.9090   -2.5680   -2.6595 C   0  0  0  0  0  0  0  0  0  0  0  0
   -2.3002   -1.6144   -1.3556 S   0  0  0  0  0  0  0  0  0  0  0  0
   -0.7119   -1.5676   -2.1042 C   0  0  0  0  0  0  0  0  0  0  0  0
   -0.6468   -2.3224   -3.2718 C   0  0  0  0  0  0  0  0  0  0  0  0
    0.4812   -2.5491   -4.0494 N   0  0  0  0  0  0  0  0  0  0  0  0
    0.3166   -2.6388   -5.4423 C   0  0  0  0  0  0  0  0  0  0  0  0
   -0.5606   -1.7829   -6.1092 C   0  0  0  0  0  0  0  0  0  0  0  0
   -0.7372   -1.8936   -7.4700 C   0  0  0  0  0  0  0  0  0  0  0  0
   -0.0354   -2.8516   -8.1991 C   0  0  0  0  0  0  0  0  0  0  0  0
   -0.3435   -2.8947   -9.9363 S   0  0  0  0  0  0  0  0  0  0  0  0
    0.7031   -4.2519  -10.5360 C   0  0  0  0  0  0  0  0  0  0  0  0
    0.8473   -3.6976   -7.5408 C   0  0  0  0  0  0  0  0  0  0  0  0
    1.0156   -3.5937   -6.1741 C   0  0  0  0  0  0  0  0  0  0  0  0
    1.7501   -2.6857   -3.4825 C   0  0  0  0  0  0  0  0  0  0  0  0
    1.9126   -3.2467   -2.2163 C   0  0  0  0  0  0  0  0  0  0  0  0
    3.1580   -3.2892   -1.6265 C   0  0  0  0  0  0  0  0  0  0  0  0
    4.2657   -2.7956   -2.2987 C   0  0  0  0  0  0  0  0  0  0  0  0
    5.8729   -2.8171   -1.5394 S   0  0  0  0  0  0  0  0  0  0  0  0
    6.0594   -4.6107   -1.2659 C   0  0  0  0  0  0  0  0  0  0  0  0
    4.1199   -2.2530   -3.5669 C   0  0  0  0  0  0  0  0  0  0  0  0
    2.8739   -2.1992   -4.1547 C   0  0  0  0  0  0  0  0  0  0  0  0
   -1.9116   -2.8769   -3.5778 C   0  0  0  0  0  0  0  0  0  0  0  0
   -2.5147   -3.8762   -4.8534 S   0  0  0  0  0  0  0  0  0  0  0  0
    0.3261   -0.8102   -1.4886 C   0  0  0  0  0  0  0  0  0  0  0  0
    1.4022   -0.2134   -2.0976 C   0  0  0  0  0  0  0  0  0  0  0  0
    2.3253    0.3534   -1.2051 C   0  0  0  0  0  0  0  0  0  0  0  0
    3.6542    0.7727   -1.6440 C   0  0  0  0  0  0  0  0  0  0  0  0
    3.8414    1.4334   -2.8541 C   0  0  0  0  0  0  0  0  0  0  0  0
    5.1152    1.6614   -3.3378 C   0  0  0  0  0  0  0  0  0  0  0  0
    6.2338    1.2398   -2.6311 C   0  0  0  0  0  0  0  0  0  0  0  0
    7.6141    1.3776   -3.2043 C   0  0  0  0  0  0  0  0  0  0  0  0
    8.0052    0.0855   -3.9255 C   0  0  0  0  0  0  0  0  0  0  0  0
    6.0449    0.6065   -1.4087 C   0  0  0  0  0  0  0  0  0  0  0  0
    4.7771    0.3719   -0.9222 C   0  0  0  0  0  0  0  0  0  0  0  0
    1.9062    0.2646    0.1148 C   0  0  0  0  0  0  0  0  0  0  0  0
    0.3975   -0.6027    0.2402 S   0  0  0  0  0  0  0  0  0  0  0  0
    2.4478    0.9387    1.2416 C   0  0  0  0  0  0  0  0  0  0  0  0
    2.2539    0.6520    2.5863 C   0  0  0  0  0  0  0  0  0  0  0  0
    1.6178   -0.4813    3.0686 N   0  0  0  0  0  0  0  0  0  0  0  0
    0.8530   -0.3232    4.2394 C   0  0  0  0  0  0  0  0  0  0  0  0
    0.9869   -1.1905    5.3181 C   0  0  0  0  0  0  0  0  0  0  0  0
    0.2766   -0.9610    6.4793 C   0  0  0  0  0  0  0  0  0  0  0  0
   -0.5736    0.1307    6.5989 C   0  0  0  0  0  0  0  0  0  0  0  0
   -1.2856    0.4159    7.8847 C   0  0  0  0  0  0  0  0  0  0  0  0
   -0.7195    0.9774    5.5070 C   0  0  0  0  0  0  0  0  0  0  0  0
   -0.0214    0.7556    4.3380 C   0  0  0  0  0  0  0  0  0  0  0  0
    1.9990   -1.7569    2.6402 C   0  0  0  0  0  0  0  0  0  0  0  0
    1.0746   -2.8006    2.6646 C   0  0  0  0  0  0  0  0  0  0  0  0
    1.4558   -4.0741    2.2973 C   0  0  0  0  0  0  0  0  0  0  0  0
    2.7597   -4.3486    1.8975 C   0  0  0  0  0  0  0  0  0  0  0  0
    3.1601   -5.7444    1.5199 C   0  0  0  0  0  0  0  0  0  0  0  0
    3.6686   -3.2983    1.8518 C   0  0  0  0  0  0  0  0  0  0  0  0
    3.2977   -2.0176    2.2125 C   0  0  0  0  0  0  0  0  0  0  0  0
    2.8069    1.6550    3.4154 C   0  0  0  0  0  0  0  0  0  0  0  0
    2.8426    1.8869    5.1251 S   0  0  0  0  0  0  0  0  0  0  0  0
    3.7721    3.3733    4.9065 C   0  0  0  0  0  0  0  0  0  0  0  0
    3.9355    3.7033    3.5340 C   0  0  0  0  0  0  0  0  0  0  0  0
    4.4808    4.8636    3.0593 N   0  0  0  0  0  0  0  0  0  0  0  0
    4.3417    6.0967    3.7280 C   0  0  0  0  0  0  0  0  0  0  0  0
    5.3821    7.0209    3.6907 C   0  0  0  0  0  0  0  0  0  0  0  0
    5.2551    8.2291    4.3466 C   0  0  0  0  0  0  0  0  0  0  0  0
    4.1031    8.5434    5.0578 C   0  0  0  0  0  0  0  0  0  0  0  0
    4.0031    9.8374    5.8048 C   0  0  0  0  0  0  0  0  0  0  0  0
    3.0607    7.6235    5.0671 C   0  0  0  0  0  0  0  0  0  0  0  0
    3.1671    6.4177    4.4036 C   0  0  0  0  0  0  0  0  0  0  0  0
    5.0445    4.8753    1.7676 C   0  0  0  0  0  0  0  0  0  0  0  0
    5.9296    3.8744    1.3767 C   0  0  0  0  0  0  0  0  0  0  0  0
    6.4634    3.8825    0.1035 C   0  0  0  0  0  0  0  0  0  0  0  0
    6.1387    4.8845   -0.8028 C   0  0  0  0  0  0  0  0  0  0  0  0
    6.6960    4.8682   -2.1912 C   0  0  0  0  0  0  0  0  0  0  0  0
    5.2677    5.8883   -0.3966 C   0  0  0  0  0  0  0  0  0  0  0  0
    4.7224    5.8893    0.8712 C   0  0  0  0  0  0  0  0  0  0  0  0
    3.4154    2.6887    2.7129 C   0  0  0  0  0  0  0  0  0  0  0  0
    3.3404    2.4359    0.9963 S   0  0  0  0  0  0  0  0  0  0  0  0
    4.3803    4.0830    5.9378 C   0  0  0  0  0  0  0  0  0  0  0  0
    4.2778    3.9400    7.3046 C   0  0  0  0  0  0  0  0  0  0  0  0
    3.3614    3.0495    8.0173 C   0  0  0  0  0  0  0  0  0  0  0  0
    2.6084    2.2131    7.5454 O   0  0  0  0  0  0  0  0  0  0  0  0
    3.5014    3.3740    9.4497 C   0  0  0  0  0  0  0  0  0  0  0  0
    2.8258    2.7836   10.5146 C   0  0  0  0  0  0  0  0  0  0  0  0
    3.1694    3.2910   11.7451 C   0  0  0  0  0  0  0  0  0  0  0  0
    4.1188    4.3078   11.9037 C   0  0  0  0  0  0  0  0  0  0  0  0
    4.7961    4.8955   10.8610 C   0  0  0  0  0  0  0  0  0  0  0  0
    4.4570    4.3978    9.6000 C   0  0  0  0  0  0  0  0  0  0  0  0
    4.9711    4.7500    8.2753 C   0  0  0  0  0  0  0  0  0  0  0  0
    5.9564    5.6781    8.0308 C   0  0  0  0  0  0  0  0  0  0  0  0
    6.5344    6.5070    9.0116 C   0  0  0  0  0  0  0  0  0  0  0  0
    7.0337    7.2349    9.7475 N   0  0  0  0  0  0  0  0  0  0  0  0
    6.5579    5.9282    6.7831 C   0  0  0  0  0  0  0  0  0  0  0  0
    7.1308    6.1773    5.8171 N   0  0  0  0  0  0  0  0  0  0  0  0
    3.9666    4.3270   13.4048 C   0  0  0  0  0  0  0  0  0  0  0  0
    3.1351    5.4829   13.9997 C   0  0  0  0  0  0  0  0  0  0  0  0
    2.7596    4.9871   15.3773 C   0  0  0  0  0  0  0  0  0  0  0  0
    1.8596    4.0236   15.2278 C   0  0  0  0  0  0  0  0  0  0  0  0
    1.6113    3.8525   13.7465 C   0  0  0  0  0  0  0  0  0  0  0  0
    1.7927    5.3025   13.2792 C   0  0  0  0  0  0  0  0  0  0  0  0
    2.9067    3.1928   13.2280 C   0  0  0  0  0  0  0  0  0  0  0  0
   -5.1142   -5.5799   -4.8956 H   0  0  0  0  0  0  0  0  0  0  0  0
   -7.6507   -0.1031   -6.4806 H   0  0  0  0  0  0  0  0  0  0  0  0
  -10.3478   -4.3935   -6.5639 H   0  0  0  0  0  0  0  0  0  0  0  0
  -11.7619   -2.0295   -8.6220 H   0  0  0  0  0  0  0  0  0  0  0  0
  -13.1983   -2.2052   -6.3877 H   0  0  0  0  0  0  0  0  0  0  0  0
  -14.3701   -0.4723   -7.9765 H   0  0  0  0  0  0  0  0  0  0  0  0
  -12.9823    1.7918   -7.8996 H   0  0  0  0  0  0  0  0  0  0  0  0
  -10.9459    1.4464   -6.2636 H   0  0  0  0  0  0  0  0  0  0  0  0
  -12.7158   -0.0267   -4.9629 H   0  0  0  0  0  0  0  0  0  0  0  0
  -11.1993   -0.9532   -5.1025 H   0  0  0  0  0  0  0  0  0  0  0  0
  -10.4167    0.2045   -8.5614 H   0  0  0  0  0  0  0  0  0  0  0  0
   -4.7414   -0.4615   -2.6811 H   0  0  0  0  0  0  0  0  0  0  0  0
   -6.3194    1.3015   -3.3576 H   0  0  0  0  0  0  0  0  0  0  0  0
  -11.1109    2.0292   -2.7376 H   0  0  0  0  0  0  0  0  0  0  0  0
  -11.0566    0.2552   -2.7881 H   0  0  0  0  0  0  0  0  0  0  0  0
  -10.0633    1.1473   -1.6000 H   0  0  0  0  0  0  0  0  0  0  0  0
   -9.5404   -1.4953   -3.1283 H   0  0  0  0  0  0  0  0  0  0  0  0
   -7.9782   -3.2504   -2.4702 H   0  0  0  0  0  0  0  0  0  0  0  0
   -4.2608   -5.4578   -2.2953 H   0  0  0  0  0  0  0  0  0  0  0  0
   -4.9977   -7.3796   -1.0420 H   0  0  0  0  0  0  0  0  0  0  0  0
   -6.9942   -8.7560   -1.2341 H   0  0  0  0  0  0  0  0  0  0  0  0
   -5.7765   -9.4033   -0.0896 H   0  0  0  0  0  0  0  0  0  0  0  0
   -7.4797   -9.8840    0.0583 H   0  0  0  0  0  0  0  0  0  0  0  0
   -7.8290   -4.9624    1.0518 H   0  0  0  0  0  0  0  0  0  0  0  0
   -7.0648   -2.9939   -0.2014 H   0  0  0  0  0  0  0  0  0  0  0  0
   -1.1032   -1.0314   -5.5551 H   0  0  0  0  0  0  0  0  0  0  0  0
   -1.4194   -1.2357   -7.9855 H   0  0  0  0  0  0  0  0  0  0  0  0
    0.5262   -4.3044  -11.6057 H   0  0  0  0  0  0  0  0  0  0  0  0
    1.7490   -4.0282  -10.3468 H   0  0  0  0  0  0  0  0  0  0  0  0
    0.4058   -5.1854  -10.0673 H   0  0  0  0  0  0  0  0  0  0  0  0
    1.4036   -4.4501   -8.0756 H   0  0  0  0  0  0  0  0  0  0  0  0
    1.6941   -4.2623   -5.6651 H   0  0  0  0  0  0  0  0  0  0  0  0
    1.0564   -3.6331   -1.6838 H   0  0  0  0  0  0  0  0  0  0  0  0
    3.2601   -3.6894   -0.6307 H   0  0  0  0  0  0  0  0  0  0  0  0
    5.2572   -4.9770   -0.6342 H   0  0  0  0  0  0  0  0  0  0  0  0
    6.0534   -5.1208   -2.2247 H   0  0  0  0  0  0  0  0  0  0  0  0
    7.0174   -4.7493   -0.7757 H   0  0  0  0  0  0  0  0  0  0  0  0
    4.9828   -1.8547   -4.0776 H   0  0  0  0  0  0  0  0  0  0  0  0
    2.7589   -1.7575   -5.1336 H   0  0  0  0  0  0  0  0  0  0  0  0
    1.5332   -0.1848   -3.1625 H   0  0  0  0  0  0  0  0  0  0  0  0
    2.9830    1.7668   -3.4190 H   0  0  0  0  0  0  0  0  0  0  0  0
    5.2414    2.1576   -4.2908 H   0  0  0  0  0  0  0  0  0  0  0  0
    8.3317    1.5702   -2.4041 H   0  0  0  0  0  0  0  0  0  0  0  0
    7.6520    2.2108   -3.9089 H   0  0  0  0  0  0  0  0  0  0  0  0
    7.9400   -0.7593   -3.2434 H   0  0  0  0  0  0  0  0  0  0  0  0
    9.0217    0.1525   -4.3065 H   0  0  0  0  0  0  0  0  0  0  0  0
    7.3332   -0.0967   -4.7615 H   0  0  0  0  0  0  0  0  0  0  0  0
    6.9016    0.2641   -0.8471 H   0  0  0  0  0  0  0  0  0  0  0  0
    4.6484   -0.1666    0.0044 H   0  0  0  0  0  0  0  0  0  0  0  0
    1.6644   -2.0289    5.2500 H   0  0  0  0  0  0  0  0  0  0  0  0
    0.4030   -1.6323    7.3164 H   0  0  0  0  0  0  0  0  0  0  0  0
   -1.4020   -0.4884    8.4773 H   0  0  0  0  0  0  0  0  0  0  0  0
   -2.2667    0.8486    7.7005 H   0  0  0  0  0  0  0  0  0  0  0  0
   -0.7049    1.1326    8.4662 H   0  0  0  0  0  0  0  0  0  0  0  0
   -1.3852    1.8258    5.5756 H   0  0  0  0  0  0  0  0  0  0  0  0
   -0.1390    1.4208    3.4944 H   0  0  0  0  0  0  0  0  0  0  0  0
    0.0624   -2.6016    2.9829 H   0  0  0  0  0  0  0  0  0  0  0  0
    0.7304   -4.8745    2.3270 H   0  0  0  0  0  0  0  0  0  0  0  0
    2.7240   -6.4659    2.2079 H   0  0  0  0  0  0  0  0  0  0  0  0
    4.2422   -5.8581    1.5382 H   0  0  0  0  0  0  0  0  0  0  0  0
    2.8035   -5.9885    0.5173 H   0  0  0  0  0  0  0  0  0  0  0  0
    4.6911   -3.4811    1.5513 H   0  0  0  0  0  0  0  0  0  0  0  0
    4.0266   -1.2206    2.1954 H   0  0  0  0  0  0  0  0  0  0  0  0
    6.2901    6.7808    3.1606 H   0  0  0  0  0  0  0  0  0  0  0  0
    6.0744    8.9315    4.3229 H   0  0  0  0  0  0  0  0  0  0  0  0
    4.6480    9.8100    6.6835 H   0  0  0  0  0  0  0  0  0  0  0  0
    2.9833   10.0222    6.1333 H   0  0  0  0  0  0  0  0  0  0  0  0
    4.3291   10.6677    5.1812 H   0  0  0  0  0  0  0  0  0  0  0  0
    2.1472    7.8560    5.5955 H   0  0  0  0  0  0  0  0  0  0  0  0
    2.3453    5.7168    4.4144 H   0  0  0  0  0  0  0  0  0  0  0  0
    6.1995    3.0986    2.0779 H   0  0  0  0  0  0  0  0  0  0  0  0
    7.1433    3.0980   -0.1924 H   0  0  0  0  0  0  0  0  0  0  0  0
    6.6715    5.8611   -2.6334 H   0  0  0  0  0  0  0  0  0  0  0  0
    6.0997    4.1995   -2.8119 H   0  0  0  0  0  0  0  0  0  0  0  0
    7.7202    4.5029   -2.1932 H   0  0  0  0  0  0  0  0  0  0  0  0
    5.0047    6.6776   -1.0856 H   0  0  0  0  0  0  0  0  0  0  0  0
    4.0391    6.6696    1.1721 H   0  0  0  0  0  0  0  0  0  0  0  0
    5.0386    4.8723    5.5990 H   0  0  0  0  0  0  0  0  0  0  0  0
    2.1092    1.9947   10.3467 H   0  0  0  0  0  0  0  0  0  0  0  0
    5.5291    5.6718   11.0022 H   0  0  0  0  0  0  0  0  0  0  0  0
    4.8678    4.1129   13.9763 H   0  0  0  0  0  0  0  0  0  0  0  0
    3.6076    6.4597   13.9424 H   0  0  0  0  0  0  0  0  0  0  0  0
    3.2142    5.3370   16.2856 H   0  0  0  0  0  0  0  0  0  0  0  0
    1.4123    3.4081   15.9864 H   0  0  0  0  0  0  0  0  0  0  0  0
    0.6942    3.3445   13.4598 H   0  0  0  0  0  0  0  0  0  0  0  0
    1.0214    5.9620   13.6741 H   0  0  0  0  0  0  0  0  0  0  0  0
    1.8512    5.4159   12.1983 H   0  0  0  0  0  0  0  0  0  0  0  0
    3.1020    2.2231   13.6827 H   0  0  0  0  0  0  0  0  0  0  0  0
  1  2  2  0  0  0  0
  2  3  1  0  0  0  0
  3  4  2  0  0  0  0
  3  5  1  0  0  0  0
  5  6  2  0  0  0  0
  6  7  1  0  0  0  0
  7  8  2  0  0  0  0
  8  9  1  0  0  0  0
  9 10  2  0  0  0  0
 10 11  1  0  0  0  0
 11 12  2  0  0  0  0
 12 13  1  0  0  0  0
 13 14  3  0  0  0  0
 12 15  1  0  0  0  0
 15 16  3  0  0  0  0
  8 17  1  0  0  0  0
 17 18  1  0  0  0  0
 18 19  1  0  0  0  0
 19 20  2  0  0  0  0
 20 21  1  0  0  0  0
 21 22  1  0  0  0  0
 21 23  1  0  0  0  0
  1 24  1  0  0  0  0
 24 25  2  0  0  0  0
 25 26  1  0  0  0  0
 26 27  1  0  0  0  0
 27 28  2  0  0  0  0
 28 29  1  0  0  0  0
 29 30  2  0  0  0  0
 30 31  1  0  0  0  0
 31 32  1  0  0  0  0
 30 33  1  0  0  0  0
 33 34  2  0  0  0  0
 26 35  1  0  0  0  0
 35 36  2  0  0  0  0
 36 37  1  0  0  0  0
 37 38  2  0  0  0  0
 38 39  1  0  0  0  0
 39 40  1  0  0  0  0
 38 41  1  0  0  0  0
 41 42  2  0  0  0  0
 25 43  1  0  0  0  0
 43 44  1  0  0  0  0
 44 45  1  0  0  0  0
 45 46  2  0  0  0  0
 46 47  1  0  0  0  0
 47 48  1  0  0  0  0
 48 49  2  0  0  0  0
 49 50  1  0  0  0  0
 50 51  2  0  0  0  0
 51 52  1  0  0  0  0
 52 53  1  0  0  0  0
 51 54  1  0  0  0  0
 54 55  2  0  0  0  0
 47 56  1  0  0  0  0
 56 57  2  0  0  0  0
 57 58  1  0  0  0  0
 58 59  2  0  0  0  0
 59 60  1  0  0  0  0
 60 61  1  0  0  0  0
 59 62  1  0  0  0  0
 62 63  2  0  0  0  0
 46 64  1  0  0  0  0
 64 65  1  0  0  0  0
 45 66  1  0  0  0  0
 66 67  2  0  0  0  0
 67 68  1  0  0  0  0
 68 69  1  0  0  0  0
 69 70  2  0  0  0  0
 70 71  1  0  0  0  0
 71 72  2  0  0  0  0
 72 73  1  0  0  0  0
 73 74  1  0  0  0  0
 72 75  1  0  0  0  0
 75 76  2  0  0  0  0
 68 77  2  0  0  0  0
 77 78  1  0  0  0  0
 77 79  1  0  0  0  0
 79 80  2  0  0  0  0
 80 81  1  0  0  0  0
 81 82  1  0  0  0  0
 82 83  2  0  0  0  0
 83 84  1  0  0  0  0
 84 85  2  0  0  0  0
 85 86  1  0  0  0  0
 85 87  1  0  0  0  0
 87 88  2  0  0  0  0
 81 89  1  0  0  0  0
 89 90  2  0  0  0  0
 90 91  1  0  0  0  0
 91 92  2  0  0  0  0
 92 93  1  0  0  0  0
 92 94  1  0  0  0  0
 94 95  2  0  0  0  0
 80 96  1  0  0  0  0
 96 97  1  0  0  0  0
 97 98  1  0  0  0  0
 98 99  2  0  0  0  0
 99100  1  0  0  0  0
100101  1  0  0  0  0
101102  2  0  0  0  0
102103  1  0  0  0  0
103104  2  0  0  0  0
104105  1  0  0  0  0
104106  1  0  0  0  0
106107  2  0  0  0  0
100108  1  0  0  0  0
108109  2  0  0  0  0
109110  1  0  0  0  0
110111  2  0  0  0  0
111112  1  0  0  0  0
111113  1  0  0  0  0
113114  2  0  0  0  0
 99115  1  0  0  0  0
115116  1  0  0  0  0
 98117  1  0  0  0  0
117118  2  0  0  0  0
118119  1  0  0  0  0
119120  2  0  0  0  0
119121  1  0  0  0  0
121122  2  0  0  0  0
122123  1  0  0  0  0
123124  2  0  0  0  0
124125  1  0  0  0  0
125126  2  0  0  0  0
126127  1  0  0  0  0
127128  2  0  0  0  0
128129  1  0  0  0  0
129130  3  0  0  0  0
128131  1  0  0  0  0
131132  3  0  0  0  0
124133  1  0  0  0  0
133134  1  0  0  0  0
134135  1  0  0  0  0
135136  2  0  0  0  0
136137  1  0  0  0  0
137138  1  0  0  0  0
137139  1  0  0  0  0
 11  2  1  0  0  0  0
 23 17  1  0  0  0  0
 65 24  1  0  0  0  0
 78 66  1  0  0  0  0
116 79  1  0  0  0  0
127118  1  0  0  0  0
139133  1  0  0  0  0
 10  5  1  0  0  0  0
 22 18  1  0  0  0  0
 34 27  1  0  0  0  0
 42 35  1  0  0  0  0
 64 43  2  0  0  0  0
 76 69  1  0  0  0  0
 88 82  1  0  0  0  0
 95 89  1  0  0  0  0
115 96  2  0  0  0  0
126121  1  0  0  0  0
138134  1  0  0  0  0
 23  7  1  0  0  0  0
 55 48  1  0  0  0  0
 63 56  1  0  0  0  0
107101  1  0  0  0  0
114108  1  0  0  0  0
139123  1  0  0  0  0
  1140  1  0  0  0  0
  6141  1  0  0  0  0
  9142  1  0  0  0  0
 17143  1  0  0  0  0
 18144  1  0  0  0  0
 19145  1  0  0  0  0
 20146  1  0  0  0  0
 21147  1  0  0  0  0
 22148  1  0  0  0  0
 22149  1  0  0  0  0
 23150  1  0  0  0  0
 28151  1  0  0  0  0
 29152  1  0  0  0  0
 32153  1  0  0  0  0
 32154  1  0  0  0  0
 32155  1  0  0  0  0
 33156  1  0  0  0  0
 34157  1  0  0  0  0
 36158  1  0  0  0  0
 37159  1  0  0  0  0
 40160  1  0  0  0  0
 40161  1  0  0  0  0
 40162  1  0  0  0  0
 41163  1  0  0  0  0
 42164  1  0  0  0  0
 49165  1  0  0  0  0
 50166  1  0  0  0  0
 53167  1  0  0  0  0
 53168  1  0  0  0  0
 53169  1  0  0  0  0
 54170  1  0  0  0  0
 55171  1  0  0  0  0
 57172  1  0  0  0  0
 58173  1  0  0  0  0
 61174  1  0  0  0  0
 61175  1  0  0  0  0
 61176  1  0  0  0  0
 62177  1  0  0  0  0
 63178  1  0  0  0  0
 67179  1  0  0  0  0
 70180  1  0  0  0  0
 71181  1  0  0  0  0
 73182  1  0  0  0  0
 73183  1  0  0  0  0
 74184  1  0  0  0  0
 74185  1  0  0  0  0
 74186  1  0  0  0  0
 75187  1  0  0  0  0
 76188  1  0  0  0  0
 83189  1  0  0  0  0
 84190  1  0  0  0  0
 86191  1  0  0  0  0
 86192  1  0  0  0  0
 86193  1  0  0  0  0
 87194  1  0  0  0  0
 88195  1  0  0  0  0
 90196  1  0  0  0  0
 91197  1  0  0  0  0
 93198  1  0  0  0  0
 93199  1  0  0  0  0
 93200  1  0  0  0  0
 94201  1  0  0  0  0
 95202  1  0  0  0  0
102203  1  0  0  0  0
103204  1  0  0  0  0
105205  1  0  0  0  0
105206  1  0  0  0  0
105207  1  0  0  0  0
106208  1  0  0  0  0
107209  1  0  0  0  0
109210  1  0  0  0  0
110211  1  0  0  0  0
112212  1  0  0  0  0
112213  1  0  0  0  0
112214  1  0  0  0  0
113215  1  0  0  0  0
114216  1  0  0  0  0
117217  1  0  0  0  0
122218  1  0  0  0  0
125219  1  0  0  0  0
133220  1  0  0  0  0
134221  1  0  0  0  0
135222  1  0  0  0  0
136223  1  0  0  0  0
137224  1  0  0  0  0
138225  1  0  0  0  0
138226  1  0  0  0  0
139227  1  0  0  0  0
M  END
