
  xtb     02042208283D
 energy: -297.750599410213 gnorm: 0.000576850466 xtb: 6.4.1 (unknown)
158175  0     0  0            999 V2000
   -1.1553   -6.3764    1.0914 C   0  0  0  0  0  0  0  0  0  0  0  0
   -0.4051   -7.2748    0.4077 C   0  0  0  0  0  0  0  0  0  0  0  0
   -0.8335   -8.7029    0.3901 C   0  0  0  0  0  0  0  0  0  0  0  0
   -1.6897   -9.2094    1.0781 O   0  0  0  0  0  0  0  0  0  0  0  0
   -0.0316   -9.3426   -0.6693 C   0  0  0  0  0  0  0  0  0  0  0  0
   -0.1295  -10.6582   -1.1170 C   0  0  0  0  0  0  0  0  0  0  0  0
    0.7597  -10.9798   -2.1137 C   0  0  0  0  0  0  0  0  0  0  0  0
    1.6813  -10.0589   -2.6307 C   0  0  0  0  0  0  0  0  0  0  0  0
    1.7920   -8.7603   -2.1964 C   0  0  0  0  0  0  0  0  0  0  0  0
    0.8941   -8.4101   -1.1831 C   0  0  0  0  0  0  0  0  0  0  0  0
    0.7550   -7.1538   -0.4480 C   0  0  0  0  0  0  0  0  0  0  0  0
    1.6687   -6.1309   -0.4492 C   0  0  0  0  0  0  0  0  0  0  0  0
    2.7276   -6.0134   -1.3696 C   0  0  0  0  0  0  0  0  0  0  0  0
    3.5664   -5.8281   -2.1327 N   0  0  0  0  0  0  0  0  0  0  0  0
    1.6835   -5.0743    0.4818 C   0  0  0  0  0  0  0  0  0  0  0  0
    1.7861   -4.2136    1.2349 N   0  0  0  0  0  0  0  0  0  0  0  0
    2.2715  -11.0649   -3.5867 C   0  0  0  0  0  0  0  0  0  0  0  0
    3.6373  -11.6929   -3.2143 C   0  0  0  0  0  0  0  0  0  0  0  0
    3.7371  -11.6416   -1.7096 C   0  0  0  0  0  0  0  0  0  0  0  0
    2.8682  -12.5139   -1.2165 C   0  0  0  0  0  0  0  0  0  0  0  0
    2.1651  -13.1708   -2.3787 C   0  0  0  0  0  0  0  0  0  0  0  0
    3.3024  -13.1799   -3.4127 C   0  0  0  0  0  0  0  0  0  0  0  0
    1.2480  -12.0922   -3.0075 C   0  0  0  0  0  0  0  0  0  0  0  0
   -1.1576   -4.9446    1.0474 C   0  0  0  0  0  0  0  0  0  0  0  0
   -1.4694   -4.2190    2.1966 C   0  0  0  0  0  0  0  0  0  0  0  0
   -1.7416   -4.9009    3.3228 F   0  0  0  0  0  0  0  0  0  0  0  0
   -1.4493   -2.8398    2.2860 C   0  0  0  0  0  0  0  0  0  0  0  0
   -1.1594   -2.0691    1.1659 C   0  0  0  0  0  0  0  0  0  0  0  0
   -0.8660   -2.7623   -0.0446 C   0  0  0  0  0  0  0  0  0  0  0  0
   -0.5595   -2.0364   -1.1326 N   0  0  0  0  0  0  0  0  0  0  0  0
   -0.3105   -2.6365   -2.2544 C   0  0  0  0  0  0  0  0  0  0  0  0
   -0.4006   -4.0539   -2.3526 C   0  0  0  0  0  0  0  0  0  0  0  0
   -0.2015   -4.5834   -3.5522 O   0  0  0  0  0  0  0  0  0  0  0  0
   -0.3286   -5.9946   -3.7246 C   0  0  0  0  0  0  0  0  0  0  0  0
    0.7575   -6.4666   -4.6766 C   0  0  0  0  0  0  0  0  0  0  0  0
   -0.6733   -4.7932   -1.3011 N   0  0  0  0  0  0  0  0  0  0  0  0
   -0.8824   -4.1767   -0.1194 C   0  0  0  0  0  0  0  0  0  0  0  0
   -1.0943   -0.6432    1.1778 C   0  0  0  0  0  0  0  0  0  0  0  0
   -1.6731    0.2619    2.0725 C   0  0  0  0  0  0  0  0  0  0  0  0
   -2.6121   -0.0383    3.0406 N   0  0  0  0  0  0  0  0  0  0  0  0
   -3.6298   -0.9713    2.7976 C   0  0  0  0  0  0  0  0  0  0  0  0
   -4.1405   -1.7413    3.8454 C   0  0  0  0  0  0  0  0  0  0  0  0
   -5.1150   -2.6821    3.6065 C   0  0  0  0  0  0  0  0  0  0  0  0
   -5.6033   -2.8856    2.3162 C   0  0  0  0  0  0  0  0  0  0  0  0
   -6.8348   -4.1326    2.1331 S   0  0  0  0  0  0  0  0  0  0  0  0
   -7.1589   -4.1746    0.3475 C   0  0  0  0  0  0  0  0  0  0  0  0
   -5.1083   -2.1128    1.2737 C   0  0  0  0  0  0  0  0  0  0  0  0
   -4.1347   -1.1640    1.5151 C   0  0  0  0  0  0  0  0  0  0  0  0
   -2.6155    0.7202    4.2212 C   0  0  0  0  0  0  0  0  0  0  0  0
   -3.8112    1.1504    4.7975 C   0  0  0  0  0  0  0  0  0  0  0  0
   -3.7912    1.8966    5.9528 C   0  0  0  0  0  0  0  0  0  0  0  0
   -2.5814    2.2381    6.5581 C   0  0  0  0  0  0  0  0  0  0  0  0
   -2.6895    3.1985    8.0316 S   0  0  0  0  0  0  0  0  0  0  0  0
   -0.9595    3.5320    8.4685 C   0  0  0  0  0  0  0  0  0  0  0  0
   -1.3898    1.8103    5.9880 C   0  0  0  0  0  0  0  0  0  0  0  0
   -1.4100    1.0554    4.8320 C   0  0  0  0  0  0  0  0  0  0  0  0
   -1.2491    1.5829    1.7959 C   0  0  0  0  0  0  0  0  0  0  0  0
   -1.5923    3.1388    2.4707 S   0  0  0  0  0  0  0  0  0  0  0  0
   -0.5454    3.9147    1.2937 C   0  0  0  0  0  0  0  0  0  0  0  0
    0.0224    2.9991    0.4029 C   0  0  0  0  0  0  0  0  0  0  0  0
    0.7385    3.2786   -0.7457 N   0  0  0  0  0  0  0  0  0  0  0  0
    1.9678    3.9815   -0.7321 C   0  0  0  0  0  0  0  0  0  0  0  0
    3.0108    3.5527    0.0850 C   0  0  0  0  0  0  0  0  0  0  0  0
    4.2211    4.2089    0.0518 C   0  0  0  0  0  0  0  0  0  0  0  0
    4.4044    5.3044   -0.7911 C   0  0  0  0  0  0  0  0  0  0  0  0
    5.9755    6.1043   -0.7085 S   0  0  0  0  0  0  0  0  0  0  0  0
    5.6984    7.6751   -1.5729 C   0  0  0  0  0  0  0  0  0  0  0  0
    3.3697    5.7180   -1.6219 C   0  0  0  0  0  0  0  0  0  0  0  0
    2.1592    5.0514   -1.5951 C   0  0  0  0  0  0  0  0  0  0  0  0
    0.4481    2.5174   -1.8841 C   0  0  0  0  0  0  0  0  0  0  0  0
   -0.8808    2.2267   -2.2068 C   0  0  0  0  0  0  0  0  0  0  0  0
   -1.1754    1.4132   -3.2748 C   0  0  0  0  0  0  0  0  0  0  0  0
   -0.1533    0.8760   -4.0566 C   0  0  0  0  0  0  0  0  0  0  0  0
   -0.6473   -0.2153   -5.3519 S   0  0  0  0  0  0  0  0  0  0  0  0
    0.9194   -0.8209   -6.0422 C   0  0  0  0  0  0  0  0  0  0  0  0
    1.1646    1.2116   -3.7787 C   0  0  0  0  0  0  0  0  0  0  0  0
    1.4609    2.0263   -2.7042 C   0  0  0  0  0  0  0  0  0  0  0  0
   -0.3981    1.6804    0.7077 C   0  0  0  0  0  0  0  0  0  0  0  0
   -0.1441    0.1496   -0.0616 S   0  0  0  0  0  0  0  0  0  0  0  0
   -0.5243    5.3420    1.2690 C   0  0  0  0  0  0  0  0  0  0  0  0
    0.6393    6.1351    1.1952 C   0  0  0  0  0  0  0  0  0  0  0  0
    0.6038    7.5576    0.9411 C   0  0  0  0  0  0  0  0  0  0  0  0
    1.8199    8.0974    1.0132 N   0  0  0  0  0  0  0  0  0  0  0  0
    2.8825    6.9511    1.3659 S   0  0  0  0  0  4  0  0  0  0  0  0
    1.8779    5.7088    1.4518 N   0  0  0  0  0  0  0  0  0  0  0  0
   -0.6090    8.2658    0.7719 C   0  0  0  0  0  0  0  0  0  0  0  0
   -1.7652    7.5109    1.0802 C   0  0  0  0  0  0  0  0  0  0  0  0
   -3.0125    7.9767    1.1046 N   0  0  0  0  0  0  0  0  0  0  0  0
   -4.0224    6.7685    1.4192 S   0  0  0  0  0  0  0  0  0  0  0  0
   -2.9476    5.5824    1.5137 N   0  0  0  0  0  0  0  0  0  0  0  0
   -1.7252    6.0840    1.3239 C   0  0  0  0  0  0  0  0  0  0  0  0
   -0.7020    9.6262    0.4128 C   0  0  0  0  0  0  0  0  0  0  0  0
    0.2052   10.3041   -0.3640 C   0  0  0  0  0  0  0  0  0  0  0  0
    1.1345    9.6579   -1.3049 C   0  0  0  0  0  0  0  0  0  0  0  0
    1.2484    8.4799   -1.5698 O   0  0  0  0  0  0  0  0  0  0  0  0
    1.8579   10.7729   -1.9695 C   0  0  0  0  0  0  0  0  0  0  0  0
    2.8903   10.7068   -2.8851 C   0  0  0  0  0  0  0  0  0  0  0  0
    3.3745    9.2234   -3.5713 Cl  0  0  0  0  0  0  0  0  0  0  0  0
    3.5396   11.8921   -3.2511 C   0  0  0  0  0  0  0  0  0  0  0  0
    4.8131   11.8552   -4.3947 Cl  0  0  0  0  0  0  0  0  0  0  0  0
    3.1775   13.0941   -2.6472 C   0  0  0  0  0  0  0  0  0  0  0  0
    4.0503   14.5160   -3.0282 Cl  0  0  0  0  0  0  0  0  0  0  0  0
    2.1171   13.1600   -1.7281 C   0  0  0  0  0  0  0  0  0  0  0  0
    1.8490   14.6451   -0.9129 Cl  0  0  0  0  0  0  0  0  0  0  0  0
    1.4013   12.0006   -1.4515 C   0  0  0  0  0  0  0  0  0  0  0  0
    0.2482   11.7326   -0.5922 C   0  0  0  0  0  0  0  0  0  0  0  0
   -0.6918   12.6481   -0.1880 C   0  0  0  0  0  0  0  0  0  0  0  0
   -1.7178   12.4022    0.7499 C   0  0  0  0  0  0  0  0  0  0  0  0
   -2.5497   12.3294    1.5386 N   0  0  0  0  0  0  0  0  0  0  0  0
   -0.8761   13.9280   -0.7527 C   0  0  0  0  0  0  0  0  0  0  0  0
   -1.1833   14.9252   -1.2316 N   0  0  0  0  0  0  0  0  0  0  0  0
   -1.8842   -6.8198    1.7654 H   0  0  0  0  0  0  0  0  0  0  0  0
   -0.8486  -11.3368   -0.6856 H   0  0  0  0  0  0  0  0  0  0  0  0
    2.5115   -8.0680   -2.5996 H   0  0  0  0  0  0  0  0  0  0  0  0
    2.2032  -10.8176   -4.6444 H   0  0  0  0  0  0  0  0  0  0  0  0
    4.4835  -11.2916   -3.7654 H   0  0  0  0  0  0  0  0  0  0  0  0
    4.3689  -10.9571   -1.1747 H   0  0  0  0  0  0  0  0  0  0  0  0
    2.6288  -12.7038   -0.1866 H   0  0  0  0  0  0  0  0  0  0  0  0
    1.6715  -14.1160   -2.1690 H   0  0  0  0  0  0  0  0  0  0  0  0
    2.9701  -13.4194   -4.4219 H   0  0  0  0  0  0  0  0  0  0  0  0
    4.1229  -13.8373   -3.1299 H   0  0  0  0  0  0  0  0  0  0  0  0
    0.5123  -12.5185   -3.6867 H   0  0  0  0  0  0  0  0  0  0  0  0
   -1.6083   -2.3929    3.2519 H   0  0  0  0  0  0  0  0  0  0  0  0
   -0.0670   -2.0326   -3.1141 H   0  0  0  0  0  0  0  0  0  0  0  0
   -1.3234   -6.1916   -4.1412 H   0  0  0  0  0  0  0  0  0  0  0  0
   -0.2526   -6.4879   -2.7533 H   0  0  0  0  0  0  0  0  0  0  0  0
    0.6462   -5.9795   -5.6416 H   0  0  0  0  0  0  0  0  0  0  0  0
    0.6837   -7.5423   -4.8083 H   0  0  0  0  0  0  0  0  0  0  0  0
    1.7382   -6.2215   -4.2764 H   0  0  0  0  0  0  0  0  0  0  0  0
   -3.7592   -1.6036    4.8462 H   0  0  0  0  0  0  0  0  0  0  0  0
   -5.5018   -3.2830    4.4146 H   0  0  0  0  0  0  0  0  0  0  0  0
   -7.8866   -4.9671    0.2031 H   0  0  0  0  0  0  0  0  0  0  0  0
   -7.5778   -3.2273    0.0207 H   0  0  0  0  0  0  0  0  0  0  0  0
   -6.2451   -4.4111   -0.1899 H   0  0  0  0  0  0  0  0  0  0  0  0
   -5.4757   -2.2323    0.2674 H   0  0  0  0  0  0  0  0  0  0  0  0
   -3.7650   -0.5652    0.6963 H   0  0  0  0  0  0  0  0  0  0  0  0
   -4.7511    0.9026    4.3283 H   0  0  0  0  0  0  0  0  0  0  0  0
   -4.7133    2.2346    6.3996 H   0  0  0  0  0  0  0  0  0  0  0  0
   -0.4473    2.6034    8.7031 H   0  0  0  0  0  0  0  0  0  0  0  0
   -0.4691    4.0625    7.6577 H   0  0  0  0  0  0  0  0  0  0  0  0
   -0.9986    4.1624    9.3514 H   0  0  0  0  0  0  0  0  0  0  0  0
   -0.4388    2.0485    6.4354 H   0  0  0  0  0  0  0  0  0  0  0  0
   -0.4804    0.7145    4.4003 H   0  0  0  0  0  0  0  0  0  0  0  0
    2.8596    2.7119    0.7445 H   0  0  0  0  0  0  0  0  0  0  0  0
    5.0366    3.8888    0.6815 H   0  0  0  0  0  0  0  0  0  0  0  0
    5.5894    7.5049   -2.6398 H   0  0  0  0  0  0  0  0  0  0  0  0
    6.5845    8.2741   -1.3871 H   0  0  0  0  0  0  0  0  0  0  0  0
    4.8228    8.1679   -1.1607 H   0  0  0  0  0  0  0  0  0  0  0  0
    3.4822    6.5588   -2.2852 H   0  0  0  0  0  0  0  0  0  0  0  0
    1.3533    5.3793   -2.2336 H   0  0  0  0  0  0  0  0  0  0  0  0
   -1.6774    2.6359   -1.6033 H   0  0  0  0  0  0  0  0  0  0  0  0
   -2.2003    1.1763   -3.5155 H   0  0  0  0  0  0  0  0  0  0  0  0
    0.6415   -1.5458   -6.8010 H   0  0  0  0  0  0  0  0  0  0  0  0
    1.5065   -1.3061   -5.2676 H   0  0  0  0  0  0  0  0  0  0  0  0
    1.4673   -0.0023   -6.4995 H   0  0  0  0  0  0  0  0  0  0  0  0
    1.9757    0.8325   -4.3789 H   0  0  0  0  0  0  0  0  0  0  0  0
    2.4912    2.2586   -2.4823 H   0  0  0  0  0  0  0  0  0  0  0  0
   -1.5871   10.1358    0.7709 H   0  0  0  0  0  0  0  0  0  0  0  0
  1  2  2  0  0  0  0
  2  3  1  0  0  0  0
  3  4  2  0  0  0  0
  3  5  1  0  0  0  0
  5  6  2  0  0  0  0
  6  7  1  0  0  0  0
  7  8  2  0  0  0  0
  8  9  1  0  0  0  0
  9 10  2  0  0  0  0
 10 11  1  0  0  0  0
 11 12  2  0  0  0  0
 12 13  1  0  0  0  0
 13 14  3  0  0  0  0
 12 15  1  0  0  0  0
 15 16  3  0  0  0  0
  8 17  1  0  0  0  0
 17 18  1  0  0  0  0
 18 19  1  0  0  0  0
 19 20  2  0  0  0  0
 20 21  1  0  0  0  0
 21 22  1  0  0  0  0
 21 23  1  0  0  0  0
  1 24  1  0  0  0  0
 24 25  2  0  0  0  0
 25 26  1  0  0  0  0
 25 27  1  0  0  0  0
 27 28  2  0  0  0  0
 28 29  1  0  0  0  0
 29 30  2  0  0  0  0
 30 31  1  0  0  0  0
 31 32  2  0  0  0  0
 32 33  1  0  0  0  0
 33 34  1  0  0  0  0
 34 35  1  0  0  0  0
 32 36  1  0  0  0  0
 36 37  2  0  0  0  0
 28 38  1  0  0  0  0
 38 39  2  0  0  0  0
 39 40  1  0  0  0  0
 40 41  1  0  0  0  0
 41 42  2  0  0  0  0
 42 43  1  0  0  0  0
 43 44  2  0  0  0  0
 44 45  1  0  0  0  0
 45 46  1  0  0  0  0
 44 47  1  0  0  0  0
 47 48  2  0  0  0  0
 40 49  1  0  0  0  0
 49 50  2  0  0  0  0
 50 51  1  0  0  0  0
 51 52  2  0  0  0  0
 52 53  1  0  0  0  0
 53 54  1  0  0  0  0
 52 55  1  0  0  0  0
 55 56  2  0  0  0  0
 39 57  1  0  0  0  0
 57 58  1  0  0  0  0
 58 59  1  0  0  0  0
 59 60  2  0  0  0  0
 60 61  1  0  0  0  0
 61 62  1  0  0  0  0
 62 63  2  0  0  0  0
 63 64  1  0  0  0  0
 64 65  2  0  0  0  0
 65 66  1  0  0  0  0
 66 67  1  0  0  0  0
 65 68  1  0  0  0  0
 68 69  2  0  0  0  0
 61 70  1  0  0  0  0
 70 71  2  0  0  0  0
 71 72  1  0  0  0  0
 72 73  2  0  0  0  0
 73 74  1  0  0  0  0
 74 75  1  0  0  0  0
 73 76  1  0  0  0  0
 76 77  2  0  0  0  0
 60 78  1  0  0  0  0
 78 79  1  0  0  0  0
 59 80  1  0  0  0  0
 80 81  2  0  0  0  0
 81 82  1  0  0  0  0
 82 83  1  0  0  0  0
 83 84  2  0  0  0  0
 84 85  2  0  0  0  0
 82 86  2  0  0  0  0
 86 87  1  0  0  0  0
 87 88  2  0  0  0  0
 88 89  1  0  0  0  0
 89 90  1  0  0  0  0
 90 91  2  0  0  0  0
 86 92  1  0  0  0  0
 92 93  2  0  0  0  0
 93 94  1  0  0  0  0
 94 95  2  0  0  0  0
 94 96  1  0  0  0  0
 96 97  2  0  0  0  0
 97 98  1  0  0  0  0
 97 99  1  0  0  0  0
 99100  1  0  0  0  0
 99101  2  0  0  0  0
101102  1  0  0  0  0
101103  1  0  0  0  0
103104  1  0  0  0  0
103105  2  0  0  0  0
105106  1  0  0  0  0
106107  2  0  0  0  0
107108  1  0  0  0  0
108109  3  0  0  0  0
107110  1  0  0  0  0
110111  3  0  0  0  0
 11  2  1  0  0  0  0
 23 17  1  0  0  0  0
 37 24  1  0  0  0  0
 79 38  1  0  0  0  0
 91 80  1  0  0  0  0
106 93  1  0  0  0  0
 10  5  1  0  0  0  0
 22 18  1  0  0  0  0
 37 29  1  0  0  0  0
 48 41  1  0  0  0  0
 56 49  1  0  0  0  0
 78 57  2  0  0  0  0
 85 81  1  0  0  0  0
 91 87  1  0  0  0  0
105 96  1  0  0  0  0
 23  7  1  0  0  0  0
 69 62  1  0  0  0  0
 77 70  1  0  0  0  0
  1112  1  0  0  0  0
  6113  1  0  0  0  0
  9114  1  0  0  0  0
 17115  1  0  0  0  0
 18116  1  0  0  0  0
 19117  1  0  0  0  0
 20118  1  0  0  0  0
 21119  1  0  0  0  0
 22120  1  0  0  0  0
 22121  1  0  0  0  0
 23122  1  0  0  0  0
 27123  1  0  0  0  0
 31124  1  0  0  0  0
 34125  1  0  0  0  0
 34126  1  0  0  0  0
 35127  1  0  0  0  0
 35128  1  0  0  0  0
 35129  1  0  0  0  0
 42130  1  0  0  0  0
 43131  1  0  0  0  0
 46132  1  0  0  0  0
 46133  1  0  0  0  0
 46134  1  0  0  0  0
 47135  1  0  0  0  0
 48136  1  0  0  0  0
 50137  1  0  0  0  0
 51138  1  0  0  0  0
 54139  1  0  0  0  0
 54140  1  0  0  0  0
 54141  1  0  0  0  0
 55142  1  0  0  0  0
 56143  1  0  0  0  0
 63144  1  0  0  0  0
 64145  1  0  0  0  0
 67146  1  0  0  0  0
 67147  1  0  0  0  0
 67148  1  0  0  0  0
 68149  1  0  0  0  0
 69150  1  0  0  0  0
 71151  1  0  0  0  0
 72152  1  0  0  0  0
 75153  1  0  0  0  0
 75154  1  0  0  0  0
 75155  1  0  0  0  0
 76156  1  0  0  0  0
 77157  1  0  0  0  0
 92158  1  0  0  0  0
M  END
