
  xtb     02072223063D
 energy: -353.175977440187 gnorm: 0.000961506352 xtb: 6.4.1 (unknown)
202221  0     0  0            999 V2000
   -5.9442   -0.3555    3.4107 C   0  0  0  0  0  0  0  0  0  0  0  0
   -5.7939   -1.3496    4.3568 C   0  0  0  0  0  0  0  0  0  0  0  0
   -4.8082   -2.4321    4.2630 C   0  0  0  0  0  0  0  0  0  0  0  0
   -4.0170   -2.6351    3.3532 O   0  0  0  0  0  0  0  0  0  0  0  0
   -5.0503   -3.3059    5.4253 C   0  0  0  0  0  0  0  0  0  0  0  0
   -4.3269   -4.4364    5.7937 C   0  0  0  0  0  0  0  0  0  0  0  0
   -4.7419   -5.0064    6.9736 C   0  0  0  0  0  0  0  0  0  0  0  0
   -5.8102   -4.5009    7.7241 C   0  0  0  0  0  0  0  0  0  0  0  0
   -6.5434   -3.3953    7.3632 C   0  0  0  0  0  0  0  0  0  0  0  0
   -6.1285   -2.7937    6.1731 C   0  0  0  0  0  0  0  0  0  0  0  0
   -6.6118   -1.5818    5.5149 C   0  0  0  0  0  0  0  0  0  0  0  0
   -7.5590   -0.7193    6.0119 C   0  0  0  0  0  0  0  0  0  0  0  0
   -8.2775   -0.9190    7.2041 C   0  0  0  0  0  0  0  0  0  0  0  0
   -8.8834   -0.9985    8.1779 N   0  0  0  0  0  0  0  0  0  0  0  0
   -7.8698    0.5300    5.4396 C   0  0  0  0  0  0  0  0  0  0  0  0
   -8.1369    1.5817    5.0616 N   0  0  0  0  0  0  0  0  0  0  0  0
   -5.6711   -5.5612    8.7878 C   0  0  0  0  0  0  0  0  0  0  0  0
   -6.6901   -6.7194    8.7488 C   0  0  0  0  0  0  0  0  0  0  0  0
   -6.0321   -7.8079    9.5656 C   0  0  0  0  0  0  0  0  0  0  0  0
   -5.0169   -8.2860    8.8576 C   0  0  0  0  0  0  0  0  0  0  0  0
   -4.9719   -7.5288    7.5500 C   0  0  0  0  0  0  0  0  0  0  0  0
   -6.4706   -7.2796    7.3374 C   0  0  0  0  0  0  0  0  0  0  0  0
   -4.4764   -6.1238    7.9524 C   0  0  0  0  0  0  0  0  0  0  0  0
   -4.9376    0.1125    2.5662 C   0  0  0  0  0  0  0  0  0  0  0  0
   -3.5322    0.0604    2.6661 C   0  0  0  0  0  0  0  0  0  0  0  0
   -2.7647   -0.3188    3.7307 N   0  0  0  0  0  0  0  0  0  0  0  0
   -3.1739   -0.3760    5.0627 C   0  0  0  0  0  0  0  0  0  0  0  0
   -2.6176   -1.3506    5.8982 C   0  0  0  0  0  0  0  0  0  0  0  0
   -3.0392   -1.4762    7.2001 C   0  0  0  0  0  0  0  0  0  0  0  0
   -4.0218   -0.6287    7.7141 C   0  0  0  0  0  0  0  0  0  0  0  0
   -4.5392   -0.9497    9.3633 S   0  0  0  0  0  0  0  0  0  0  0  0
   -5.7734    0.3328    9.7141 C   0  0  0  0  0  0  0  0  0  0  0  0
   -4.5259    0.3870    6.9103 C   0  0  0  0  0  0  0  0  0  0  0  0
   -4.1070    0.5096    5.5994 C   0  0  0  0  0  0  0  0  0  0  0  0
   -1.4037   -0.6261    3.4513 C   0  0  0  0  0  0  0  0  0  0  0  0
   -0.3976    0.2269    3.8877 C   0  0  0  0  0  0  0  0  0  0  0  0
    0.9020    0.0383    3.4577 C   0  0  0  0  0  0  0  0  0  0  0  0
    1.2017   -1.0099    2.5965 C   0  0  0  0  0  0  0  0  0  0  0  0
    2.7959   -1.2251    1.8697 S   0  0  0  0  0  0  0  0  0  0  0  0
    3.4732    0.4612    1.8935 C   0  0  0  0  0  0  0  0  0  0  0  0
    0.2144   -1.9346    2.2611 C   0  0  0  0  0  0  0  0  0  0  0  0
   -1.0832   -1.7422    2.6826 C   0  0  0  0  0  0  0  0  0  0  0  0
   -2.9491    0.5490    1.4728 C   0  0  0  0  0  0  0  0  0  0  0  0
   -1.3143    0.7124    0.9614 S   0  0  0  0  0  0  0  0  0  0  0  0
   -1.8318    1.3317   -0.5957 C   0  0  0  0  0  0  0  0  0  0  0  0
   -3.2059    1.5141   -0.6704 C   0  0  0  0  0  0  0  0  0  0  0  0
   -3.8493    2.1387   -1.7143 N   0  0  0  0  0  0  0  0  0  0  0  0
   -3.1353    3.0005   -2.5673 C   0  0  0  0  0  0  0  0  0  0  0  0
   -2.1858    3.8903   -2.0743 C   0  0  0  0  0  0  0  0  0  0  0  0
   -1.4688    4.7051   -2.9298 C   0  0  0  0  0  0  0  0  0  0  0  0
   -1.7146    4.6658   -4.2951 C   0  0  0  0  0  0  0  0  0  0  0  0
   -0.8374    5.6202   -5.4937 S   0  0  0  0  0  0  0  0  0  0  0  0
    0.2206    6.7087   -4.4976 C   0  0  0  0  0  0  0  0  0  0  0  0
   -2.7001    3.8102   -4.7879 C   0  0  0  0  0  0  0  0  0  0  0  0
   -3.3935    2.9796   -3.9371 C   0  0  0  0  0  0  0  0  0  0  0  0
   -5.2420    2.0461   -1.8934 C   0  0  0  0  0  0  0  0  0  0  0  0
   -5.9122    0.8370   -1.7534 C   0  0  0  0  0  0  0  0  0  0  0  0
   -7.2814    0.7607   -1.9290 C   0  0  0  0  0  0  0  0  0  0  0  0
   -8.0054    1.8990   -2.2492 C   0  0  0  0  0  0  0  0  0  0  0  0
   -9.7516    1.9225   -2.4966 S   0  0  0  0  0  0  0  0  0  0  0  0
  -10.2903    0.2983   -1.8900 C   0  0  0  0  0  0  0  0  0  0  0  0
   -7.3351    3.1120   -2.4065 C   0  0  0  0  0  0  0  0  0  0  0  0
   -5.9730    3.1873   -2.2286 C   0  0  0  0  0  0  0  0  0  0  0  0
   -3.8305    1.0329    0.5146 C   0  0  0  0  0  0  0  0  0  0  0  0
   -5.4599    0.9319    1.0811 S   0  0  0  0  0  0  0  0  0  0  0  0
   -0.7380    1.5399   -1.5048 C   0  0  0  0  0  0  0  0  0  0  0  0
   -0.4565    0.9775   -2.7394 C   0  0  0  0  0  0  0  0  0  0  0  0
   -1.3102    0.1927   -3.4905 N   0  0  0  0  0  0  0  0  0  0  0  0
   -1.1572    0.1636   -4.8854 C   0  0  0  0  0  0  0  0  0  0  0  0
   -1.3268   -1.0210   -5.5971 C   0  0  0  0  0  0  0  0  0  0  0  0
   -1.1815   -1.0484   -6.9701 C   0  0  0  0  0  0  0  0  0  0  0  0
   -0.8542    0.1108   -7.6612 C   0  0  0  0  0  0  0  0  0  0  0  0
   -0.6416    0.2011   -9.4101 S   0  0  0  0  0  0  0  0  0  0  0  0
   -1.0231   -1.4773   -9.9876 C   0  0  0  0  0  0  0  0  0  0  0  0
   -0.6701    1.2958   -6.9524 C   0  0  0  0  0  0  0  0  0  0  0  0
   -0.8180    1.3229   -5.5843 C   0  0  0  0  0  0  0  0  0  0  0  0
   -2.2126   -0.6794   -2.8634 C   0  0  0  0  0  0  0  0  0  0  0  0
   -1.8825   -1.3208   -1.6719 C   0  0  0  0  0  0  0  0  0  0  0  0
   -2.7957   -2.1332   -1.0266 C   0  0  0  0  0  0  0  0  0  0  0  0
   -4.0421   -2.3618   -1.5923 C   0  0  0  0  0  0  0  0  0  0  0  0
   -5.3120   -3.3332   -0.8470 S   0  0  0  0  0  0  0  0  0  0  0  0
   -4.5050   -4.1135    0.5753 C   0  0  0  0  0  0  0  0  0  0  0  0
   -4.3512   -1.7740   -2.8200 C   0  0  0  0  0  0  0  0  0  0  0  0
   -3.4594   -0.9263   -3.4372 C   0  0  0  0  0  0  0  0  0  0  0  0
    0.8898    1.2316   -3.1144 C   0  0  0  0  0  0  0  0  0  0  0  0
    1.8935    0.6752   -4.4095 S   0  0  0  0  0  0  0  0  0  0  0  0
    3.3108    1.3946   -3.6536 C   0  0  0  0  0  0  0  0  0  0  0  0
    3.0092    2.0285   -2.4481 C   0  0  0  0  0  0  0  0  0  0  0  0
    3.8866    2.6304   -1.5644 N   0  0  0  0  0  0  0  0  0  0  0  0
    5.1365    2.0798   -1.2770 C   0  0  0  0  0  0  0  0  0  0  0  0
    5.3316    0.6991   -1.3163 C   0  0  0  0  0  0  0  0  0  0  0  0
    6.5911    0.1575   -1.1520 C   0  0  0  0  0  0  0  0  0  0  0  0
    7.6786    0.9890   -0.9201 C   0  0  0  0  0  0  0  0  0  0  0  0
    9.3462    0.4224   -0.7869 S   0  0  0  0  0  0  0  0  0  0  0  0
    9.2738   -1.2839   -1.3978 C   0  0  0  0  0  0  0  0  0  0  0  0
    7.4726    2.3626   -0.7886 C   0  0  0  0  0  0  0  0  0  0  0  0
    6.2216    2.9048   -0.9715 C   0  0  0  0  0  0  0  0  0  0  0  0
    3.4412    3.7823   -0.8963 C   0  0  0  0  0  0  0  0  0  0  0  0
    2.6904    4.7349   -1.5796 C   0  0  0  0  0  0  0  0  0  0  0  0
    2.2166    5.8596   -0.9338 C   0  0  0  0  0  0  0  0  0  0  0  0
    2.4923    6.0548    0.4129 C   0  0  0  0  0  0  0  0  0  0  0  0
    1.9403    7.4415    1.3498 S   0  0  0  0  0  0  0  0  0  0  0  0
    1.0084    8.4402    0.1539 C   0  0  0  0  0  0  0  0  0  0  0  0
    3.2558    5.1090    1.0971 C   0  0  0  0  0  0  0  0  0  0  0  0
    3.7240    3.9861    0.4546 C   0  0  0  0  0  0  0  0  0  0  0  0
    1.6241    1.9341   -2.1765 C   0  0  0  0  0  0  0  0  0  0  0  0
    0.6664    2.3483   -0.8032 S   0  0  0  0  0  0  0  0  0  0  0  0
    4.5714    1.1961   -4.2715 C   0  0  0  0  0  0  0  0  0  0  0  0
    4.9470    0.2820   -5.2550 C   0  0  0  0  0  0  0  0  0  0  0  0
    6.3292    0.3598   -5.3616 C   0  0  0  0  0  0  0  0  0  0  0  0
    6.7511    1.3328   -4.4556 C   0  0  0  0  0  0  0  0  0  0  0  0
    5.6506    1.8599   -3.8371 O   0  0  0  0  0  0  0  0  0  0  0  0
    7.9740    1.8457   -3.9928 C   0  0  0  0  0  0  0  0  0  0  0  0
    9.2459    1.3484   -4.0913 C   0  0  0  0  0  0  0  0  0  0  0  0
    9.6623    0.0852   -4.7190 C   0  0  0  0  0  0  0  0  0  0  0  0
    9.0218   -0.6427   -5.4466 O   0  0  0  0  0  0  0  0  0  0  0  0
   11.0412   -0.1618   -4.2270 C   0  0  0  0  0  0  0  0  0  0  0  0
   11.8252   -1.2886   -4.3989 C   0  0  0  0  0  0  0  0  0  0  0  0
   11.3391   -2.5671   -5.4216 Cl  0  0  0  0  0  0  0  0  0  0  0  0
   13.0332   -1.3706   -3.6925 C   0  0  0  0  0  0  0  0  0  0  0  0
   14.0511   -2.7309   -3.8964 Cl  0  0  0  0  0  0  0  0  0  0  0  0
   13.3805   -0.3706   -2.7864 C   0  0  0  0  0  0  0  0  0  0  0  0
   14.8046   -0.5446   -1.8541 Cl  0  0  0  0  0  0  0  0  0  0  0  0
   12.5752    0.7662   -2.6079 C   0  0  0  0  0  0  0  0  0  0  0  0
   12.9680    1.8480   -1.3393 Cl  0  0  0  0  0  0  0  0  0  0  0  0
   11.4364    0.9028   -3.3922 C   0  0  0  0  0  0  0  0  0  0  0  0
   10.4075    1.9374   -3.4496 C   0  0  0  0  0  0  0  0  0  0  0  0
   10.5595    3.2616   -3.1276 C   0  0  0  0  0  0  0  0  0  0  0  0
   11.7873    3.9116   -2.8792 C   0  0  0  0  0  0  0  0  0  0  0  0
   12.7375    4.5482   -2.7822 N   0  0  0  0  0  0  0  0  0  0  0  0
    9.5217    4.2181   -3.1471 C   0  0  0  0  0  0  0  0  0  0  0  0
    8.7361    5.0550   -3.0983 N   0  0  0  0  0  0  0  0  0  0  0  0
   -6.9183    0.0989    3.2783 H   0  0  0  0  0  0  0  0  0  0  0  0
   -3.5042   -4.7907    5.1920 H   0  0  0  0  0  0  0  0  0  0  0  0
   -7.3641   -3.0184    7.9505 H   0  0  0  0  0  0  0  0  0  0  0  0
   -5.4764   -5.1962    9.7942 H   0  0  0  0  0  0  0  0  0  0  0  0
   -7.7036   -6.4437    9.0267 H   0  0  0  0  0  0  0  0  0  0  0  0
   -6.3283   -8.0708   10.5641 H   0  0  0  0  0  0  0  0  0  0  0  0
   -4.2956   -9.0279    9.1466 H   0  0  0  0  0  0  0  0  0  0  0  0
   -4.4202   -7.9915    6.7358 H   0  0  0  0  0  0  0  0  0  0  0  0
   -7.0222   -8.2034    7.1707 H   0  0  0  0  0  0  0  0  0  0  0  0
   -6.6936   -6.5729    6.5402 H   0  0  0  0  0  0  0  0  0  0  0  0
   -3.4860   -6.1339    8.4040 H   0  0  0  0  0  0  0  0  0  0  0  0
   -1.8736   -2.0251    5.5032 H   0  0  0  0  0  0  0  0  0  0  0  0
   -2.6309   -2.2476    7.8344 H   0  0  0  0  0  0  0  0  0  0  0  0
   -5.3279    1.3168    9.6041 H   0  0  0  0  0  0  0  0  0  0  0  0
   -6.6387    0.2098    9.0696 H   0  0  0  0  0  0  0  0  0  0  0  0
   -6.0665    0.1748   10.7474 H   0  0  0  0  0  0  0  0  0  0  0  0
   -5.2585    1.0836    7.2859 H   0  0  0  0  0  0  0  0  0  0  0  0
   -4.5111    1.3045    4.9908 H   0  0  0  0  0  0  0  0  0  0  0  0
   -0.6429    1.0612    4.5280 H   0  0  0  0  0  0  0  0  0  0  0  0
    1.6664    0.7276    3.7776 H   0  0  0  0  0  0  0  0  0  0  0  0
    3.8054    0.7249    2.8934 H   0  0  0  0  0  0  0  0  0  0  0  0
    2.7170    1.1532    1.5328 H   0  0  0  0  0  0  0  0  0  0  0  0
    4.3242    0.4480    1.2180 H   0  0  0  0  0  0  0  0  0  0  0  0
    0.4725   -2.7780    1.6393 H   0  0  0  0  0  0  0  0  0  0  0  0
   -1.8721   -2.4255    2.4100 H   0  0  0  0  0  0  0  0  0  0  0  0
   -2.0083    3.9563   -1.0112 H   0  0  0  0  0  0  0  0  0  0  0  0
   -0.7256    5.3650   -2.5123 H   0  0  0  0  0  0  0  0  0  0  0  0
    0.9504    6.1208   -3.9487 H   0  0  0  0  0  0  0  0  0  0  0  0
   -0.3918    7.3085   -3.8304 H   0  0  0  0  0  0  0  0  0  0  0  0
    0.7292    7.3518   -5.2092 H   0  0  0  0  0  0  0  0  0  0  0  0
   -2.8964    3.7916   -5.8487 H   0  0  0  0  0  0  0  0  0  0  0  0
   -4.1437    2.3082   -4.3259 H   0  0  0  0  0  0  0  0  0  0  0  0
   -5.3602   -0.0587   -1.5253 H   0  0  0  0  0  0  0  0  0  0  0  0
   -7.7604   -0.1979   -1.8153 H   0  0  0  0  0  0  0  0  0  0  0  0
  -11.3754    0.3290   -1.8960 H   0  0  0  0  0  0  0  0  0  0  0  0
   -9.9288    0.1493   -0.8770 H   0  0  0  0  0  0  0  0  0  0  0  0
   -9.9420   -0.4877   -2.5539 H   0  0  0  0  0  0  0  0  0  0  0  0
   -7.9014    3.9951   -2.6590 H   0  0  0  0  0  0  0  0  0  0  0  0
   -5.4658    4.1339   -2.3415 H   0  0  0  0  0  0  0  0  0  0  0  0
   -1.5700   -1.9320   -5.0708 H   0  0  0  0  0  0  0  0  0  0  0  0
   -1.3182   -1.9853   -7.4853 H   0  0  0  0  0  0  0  0  0  0  0  0
   -2.0384   -1.7439   -9.7091 H   0  0  0  0  0  0  0  0  0  0  0  0
   -0.3028   -2.1836   -9.5852 H   0  0  0  0  0  0  0  0  0  0  0  0
   -0.9358   -1.4395  -11.0690 H   0  0  0  0  0  0  0  0  0  0  0  0
   -0.4142    2.1972   -7.4873 H   0  0  0  0  0  0  0  0  0  0  0  0
   -0.6819    2.2494   -5.0504 H   0  0  0  0  0  0  0  0  0  0  0  0
   -0.9003   -1.1881   -1.2434 H   0  0  0  0  0  0  0  0  0  0  0  0
   -2.5200   -2.5833   -0.0868 H   0  0  0  0  0  0  0  0  0  0  0  0
   -5.2263   -4.8288    0.9598 H   0  0  0  0  0  0  0  0  0  0  0  0
   -4.2812   -3.3774    1.3431 H   0  0  0  0  0  0  0  0  0  0  0  0
   -3.6112   -4.6354    0.2461 H   0  0  0  0  0  0  0  0  0  0  0  0
   -5.3132   -1.9713   -3.2679 H   0  0  0  0  0  0  0  0  0  0  0  0
   -3.7226   -0.4484   -4.3684 H   0  0  0  0  0  0  0  0  0  0  0  0
    4.4937    0.0437   -1.5057 H   0  0  0  0  0  0  0  0  0  0  0  0
    6.7093   -0.9123   -1.2109 H   0  0  0  0  0  0  0  0  0  0  0  0
    8.7968   -1.3051   -2.3737 H   0  0  0  0  0  0  0  0  0  0  0  0
   10.3066   -1.6087   -1.4838 H   0  0  0  0  0  0  0  0  0  0  0  0
    8.7483   -1.9146   -0.6866 H   0  0  0  0  0  0  0  0  0  0  0  0
    8.3148    3.0031   -0.5761 H   0  0  0  0  0  0  0  0  0  0  0  0
    6.0875    3.9740   -0.9221 H   0  0  0  0  0  0  0  0  0  0  0  0
    2.4855    4.5905   -2.6308 H   0  0  0  0  0  0  0  0  0  0  0  0
    1.6457    6.5835   -1.4931 H   0  0  0  0  0  0  0  0  0  0  0  0
    0.6593    9.3056    0.7084 H   0  0  0  0  0  0  0  0  0  0  0  0
    0.1582    7.8766   -0.2192 H   0  0  0  0  0  0  0  0  0  0  0  0
    1.6609    8.7603   -0.6533 H   0  0  0  0  0  0  0  0  0  0  0  0
    3.4698    5.2677    2.1428 H   0  0  0  0  0  0  0  0  0  0  0  0
    4.3090    3.2574    0.9950 H   0  0  0  0  0  0  0  0  0  0  0  0
    4.2833   -0.3648   -5.7922 H   0  0  0  0  0  0  0  0  0  0  0  0
    6.9669   -0.2154   -5.9993 H   0  0  0  0  0  0  0  0  0  0  0  0
    7.8354    2.7176   -3.3670 H   0  0  0  0  0  0  0  0  0  0  0  0
  1  2  2  0  0  0  0
  2  3  1  0  0  0  0
  3  4  2  0  0  0  0
  3  5  1  0  0  0  0
  5  6  2  0  0  0  0
  6  7  1  0  0  0  0
  7  8  2  0  0  0  0
  8  9  1  0  0  0  0
  9 10  2  0  0  0  0
 10 11  1  0  0  0  0
 11 12  2  0  0  0  0
 12 13  1  0  0  0  0
 13 14  3  0  0  0  0
 12 15  1  0  0  0  0
 15 16  3  0  0  0  0
  8 17  1  0  0  0  0
 17 18  1  0  0  0  0
 18 19  1  0  0  0  0
 19 20  2  0  0  0  0
 20 21  1  0  0  0  0
 21 22  1  0  0  0  0
 21 23  1  0  0  0  0
  1 24  1  0  0  0  0
 24 25  2  0  0  0  0
 25 26  1  0  0  0  0
 26 27  1  0  0  0  0
 27 28  2  0  0  0  0
 28 29  1  0  0  0  0
 29 30  2  0  0  0  0
 30 31  1  0  0  0  0
 31 32  1  0  0  0  0
 30 33  1  0  0  0  0
 33 34  2  0  0  0  0
 26 35  1  0  0  0  0
 35 36  2  0  0  0  0
 36 37  1  0  0  0  0
 37 38  2  0  0  0  0
 38 39  1  0  0  0  0
 39 40  1  0  0  0  0
 38 41  1  0  0  0  0
 41 42  2  0  0  0  0
 25 43  1  0  0  0  0
 43 44  1  0  0  0  0
 44 45  1  0  0  0  0
 45 46  2  0  0  0  0
 46 47  1  0  0  0  0
 47 48  1  0  0  0  0
 48 49  2  0  0  0  0
 49 50  1  0  0  0  0
 50 51  2  0  0  0  0
 51 52  1  0  0  0  0
 52 53  1  0  0  0  0
 51 54  1  0  0  0  0
 54 55  2  0  0  0  0
 47 56  1  0  0  0  0
 56 57  2  0  0  0  0
 57 58  1  0  0  0  0
 58 59  2  0  0  0  0
 59 60  1  0  0  0  0
 60 61  1  0  0  0  0
 59 62  1  0  0  0  0
 62 63  2  0  0  0  0
 46 64  1  0  0  0  0
 64 65  1  0  0  0  0
 45 66  1  0  0  0  0
 66 67  2  0  0  0  0
 67 68  1  0  0  0  0
 68 69  1  0  0  0  0
 69 70  2  0  0  0  0
 70 71  1  0  0  0  0
 71 72  2  0  0  0  0
 72 73  1  0  0  0  0
 73 74  1  0  0  0  0
 72 75  1  0  0  0  0
 75 76  2  0  0  0  0
 68 77  1  0  0  0  0
 77 78  2  0  0  0  0
 78 79  1  0  0  0  0
 79 80  2  0  0  0  0
 80 81  1  0  0  0  0
 81 82  1  0  0  0  0
 80 83  1  0  0  0  0
 83 84  2  0  0  0  0
 67 85  1  0  0  0  0
 85 86  1  0  0  0  0
 86 87  1  0  0  0  0
 87 88  2  0  0  0  0
 88 89  1  0  0  0  0
 89 90  1  0  0  0  0
 90 91  2  0  0  0  0
 91 92  1  0  0  0  0
 92 93  2  0  0  0  0
 93 94  1  0  0  0  0
 94 95  1  0  0  0  0
 93 96  1  0  0  0  0
 96 97  2  0  0  0  0
 89 98  1  0  0  0  0
 98 99  2  0  0  0  0
 99100  1  0  0  0  0
100101  2  0  0  0  0
101102  1  0  0  0  0
102103  1  0  0  0  0
101104  1  0  0  0  0
104105  2  0  0  0  0
 88106  1  0  0  0  0
106107  1  0  0  0  0
 87108  1  0  0  0  0
108109  2  0  0  0  0
109110  1  0  0  0  0
110111  2  0  0  0  0
111112  1  0  0  0  0
111113  1  0  0  0  0
113114  2  0  0  0  0
114115  1  0  0  0  0
115116  2  0  0  0  0
115117  1  0  0  0  0
117118  2  0  0  0  0
118119  1  0  0  0  0
118120  1  0  0  0  0
120121  1  0  0  0  0
120122  2  0  0  0  0
122123  1  0  0  0  0
122124  1  0  0  0  0
124125  1  0  0  0  0
124126  2  0  0  0  0
126127  1  0  0  0  0
127128  2  0  0  0  0
128129  1  0  0  0  0
129130  3  0  0  0  0
128131  1  0  0  0  0
131132  3  0  0  0  0
 11  2  1  0  0  0  0
 23 17  1  0  0  0  0
 65 24  1  0  0  0  0
107 66  1  0  0  0  0
112108  1  0  0  0  0
127114  1  0  0  0  0
 10  5  1  0  0  0  0
 22 18  1  0  0  0  0
 34 27  1  0  0  0  0
 42 35  1  0  0  0  0
 64 43  2  0  0  0  0
 76 69  1  0  0  0  0
 84 77  1  0  0  0  0
106 85  2  0  0  0  0
126117  1  0  0  0  0
 23  7  1  0  0  0  0
 55 48  1  0  0  0  0
 63 56  1  0  0  0  0
 97 90  1  0  0  0  0
105 98  1  0  0  0  0
  1133  1  0  0  0  0
  6134  1  0  0  0  0
  9135  1  0  0  0  0
 17136  1  0  0  0  0
 18137  1  0  0  0  0
 19138  1  0  0  0  0
 20139  1  0  0  0  0
 21140  1  0  0  0  0
 22141  1  0  0  0  0
 22142  1  0  0  0  0
 23143  1  0  0  0  0
 28144  1  0  0  0  0
 29145  1  0  0  0  0
 32146  1  0  0  0  0
 32147  1  0  0  0  0
 32148  1  0  0  0  0
 33149  1  0  0  0  0
 34150  1  0  0  0  0
 36151  1  0  0  0  0
 37152  1  0  0  0  0
 40153  1  0  0  0  0
 40154  1  0  0  0  0
 40155  1  0  0  0  0
 41156  1  0  0  0  0
 42157  1  0  0  0  0
 49158  1  0  0  0  0
 50159  1  0  0  0  0
 53160  1  0  0  0  0
 53161  1  0  0  0  0
 53162  1  0  0  0  0
 54163  1  0  0  0  0
 55164  1  0  0  0  0
 57165  1  0  0  0  0
 58166  1  0  0  0  0
 61167  1  0  0  0  0
 61168  1  0  0  0  0
 61169  1  0  0  0  0
 62170  1  0  0  0  0
 63171  1  0  0  0  0
 70172  1  0  0  0  0
 71173  1  0  0  0  0
 74174  1  0  0  0  0
 74175  1  0  0  0  0
 74176  1  0  0  0  0
 75177  1  0  0  0  0
 76178  1  0  0  0  0
 78179  1  0  0  0  0
 79180  1  0  0  0  0
 82181  1  0  0  0  0
 82182  1  0  0  0  0
 82183  1  0  0  0  0
 83184  1  0  0  0  0
 84185  1  0  0  0  0
 91186  1  0  0  0  0
 92187  1  0  0  0  0
 95188  1  0  0  0  0
 95189  1  0  0  0  0
 95190  1  0  0  0  0
 96191  1  0  0  0  0
 97192  1  0  0  0  0
 99193  1  0  0  0  0
100194  1  0  0  0  0
103195  1  0  0  0  0
103196  1  0  0  0  0
103197  1  0  0  0  0
104198  1  0  0  0  0
105199  1  0  0  0  0
109200  1  0  0  0  0
110201  1  0  0  0  0
113202  1  0  0  0  0
M  END
