
  xtb     02152207163D
 energy: -318.294768745835 gnorm: 0.000168163722 xtb: 6.4.1 (unknown)
181198  0     0  0            999 V2000
    4.7930    4.0209    1.0966 C   0  0  0  0  0  0  0  0  0  0  0  0
    6.0648    3.8538    0.6078 C   0  0  0  0  0  0  0  0  0  0  0  0
    6.5050    2.8489   -0.3651 C   0  0  0  0  0  0  0  0  0  0  0  0
    5.8992    1.8584   -0.7419 O   0  0  0  0  0  0  0  0  0  0  0  0
    7.8339    3.2888   -0.8318 C   0  0  0  0  0  0  0  0  0  0  0  0
    8.6352    2.6844   -1.7969 C   0  0  0  0  0  0  0  0  0  0  0  0
    9.8202    3.3386   -2.0349 C   0  0  0  0  0  0  0  0  0  0  0  0
   10.1870    4.5111   -1.3628 C   0  0  0  0  0  0  0  0  0  0  0  0
    9.4074    5.1185   -0.4067 C   0  0  0  0  0  0  0  0  0  0  0  0
    8.1979    4.4687   -0.1506 C   0  0  0  0  0  0  0  0  0  0  0  0
    7.1323    4.8107    0.7878 C   0  0  0  0  0  0  0  0  0  0  0  0
    7.1563    5.8615    1.6713 C   0  0  0  0  0  0  0  0  0  0  0  0
    6.1959    6.1148    2.6691 C   0  0  0  0  0  0  0  0  0  0  0  0
    5.4856    6.3928    3.5300 N   0  0  0  0  0  0  0  0  0  0  0  0
    8.1620    6.8465    1.7288 C   0  0  0  0  0  0  0  0  0  0  0  0
    8.9125    7.7102    1.8331 N   0  0  0  0  0  0  0  0  0  0  0  0
   11.5005    4.6159   -2.0964 C   0  0  0  0  0  0  0  0  0  0  0  0
   12.7847    4.1909   -1.3424 C   0  0  0  0  0  0  0  0  0  0  0  0
   12.3596    3.1796   -0.3069 C   0  0  0  0  0  0  0  0  0  0  0  0
   12.0124    2.0692   -0.9437 C   0  0  0  0  0  0  0  0  0  0  0  0
   12.1961    2.3098   -2.4218 C   0  0  0  0  0  0  0  0  0  0  0  0
   13.4060    3.2573   -2.3936 C   0  0  0  0  0  0  0  0  0  0  0  0
   11.0913    3.3087   -2.8460 C   0  0  0  0  0  0  0  0  0  0  0  0
    3.6291    3.2766    0.8880 C   0  0  0  0  0  0  0  0  0  0  0  0
    2.3338    3.7568    1.1914 C   0  0  0  0  0  0  0  0  0  0  0  0
    2.0225    5.0355    1.5723 N   0  0  0  0  0  0  0  0  0  0  0  0
    2.7702    6.1521    1.1555 C   0  0  0  0  0  0  0  0  0  0  0  0
    3.2808    6.2239   -0.1426 C   0  0  0  0  0  0  0  0  0  0  0  0
    4.1106    7.2609   -0.4988 C   0  0  0  0  0  0  0  0  0  0  0  0
    4.4282    8.2615    0.4213 C   0  0  0  0  0  0  0  0  0  0  0  0
    5.5791    9.4886   -0.1066 S   0  0  0  0  0  0  0  0  0  0  0  0
    6.1066   10.2675    1.4446 C   0  0  0  0  0  0  0  0  0  0  0  0
    3.8395    8.2437    1.6780 C   0  0  0  0  0  0  0  0  0  0  0  0
    3.0221    7.1916    2.0447 C   0  0  0  0  0  0  0  0  0  0  0  0
    0.8703    5.2435    2.3528 C   0  0  0  0  0  0  0  0  0  0  0  0
   -0.0104    6.2822    2.0558 C   0  0  0  0  0  0  0  0  0  0  0  0
   -1.1743    6.4248    2.7772 C   0  0  0  0  0  0  0  0  0  0  0  0
   -1.4832    5.5343    3.8042 C   0  0  0  0  0  0  0  0  0  0  0  0
   -3.0304    5.7446    4.6207 S   0  0  0  0  0  0  0  0  0  0  0  0
   -3.3365    4.0984    5.3267 C   0  0  0  0  0  0  0  0  0  0  0  0
   -0.5760    4.5387    4.1436 C   0  0  0  0  0  0  0  0  0  0  0  0
    0.5926    4.3982    3.4238 C   0  0  0  0  0  0  0  0  0  0  0  0
    1.3730    2.7435    1.0053 C   0  0  0  0  0  0  0  0  0  0  0  0
   -0.3466    2.6866    1.1815 S   0  0  0  0  0  0  0  0  0  0  0  0
   -0.3589    1.0191    0.6498 C   0  0  0  0  0  0  0  0  0  0  0  0
    0.9136    0.5174    0.4076 C   0  0  0  0  0  0  0  0  0  0  0  0
    1.2121   -0.8076    0.1598 N   0  0  0  0  0  0  0  0  0  0  0  0
    2.3226   -1.1158   -0.6348 C   0  0  0  0  0  0  0  0  0  0  0  0
    2.6576   -0.3063   -1.7182 C   0  0  0  0  0  0  0  0  0  0  0  0
    3.7977   -0.5582   -2.4536 C   0  0  0  0  0  0  0  0  0  0  0  0
    4.6161   -1.6275   -2.1176 C   0  0  0  0  0  0  0  0  0  0  0  0
    6.1227   -1.9606   -2.9755 S   0  0  0  0  0  0  0  0  0  0  0  0
    6.6726   -0.2741   -3.3778 C   0  0  0  0  0  0  0  0  0  0  0  0
    4.2530   -2.4752   -1.0757 C   0  0  0  0  0  0  0  0  0  0  0  0
    3.1193   -2.2209   -0.3366 C   0  0  0  0  0  0  0  0  0  0  0  0
    0.4049   -1.8356    0.6646 C   0  0  0  0  0  0  0  0  0  0  0  0
   -0.1460   -1.7506    1.9422 C   0  0  0  0  0  0  0  0  0  0  0  0
   -1.0093   -2.7230    2.4050 C   0  0  0  0  0  0  0  0  0  0  0  0
   -1.3290   -3.8109    1.6025 C   0  0  0  0  0  0  0  0  0  0  0  0
   -2.4797   -5.0624    2.0841 S   0  0  0  0  0  0  0  0  0  0  0  0
   -2.2137   -5.1529    3.8826 C   0  0  0  0  0  0  0  0  0  0  0  0
   -0.7438   -3.9262    0.3452 C   0  0  0  0  0  0  0  0  0  0  0  0
    0.1185   -2.9566   -0.1157 C   0  0  0  0  0  0  0  0  0  0  0  0
    1.8974    1.5289    0.5799 C   0  0  0  0  0  0  0  0  0  0  0  0
    3.6023    1.6143    0.3012 S   0  0  0  0  0  0  0  0  0  0  0  0
   -1.6103    0.3121    0.5368 C   0  0  0  0  0  0  0  0  0  0  0  0
   -2.6219    0.4329    1.4713 C   0  0  0  0  0  0  0  0  0  0  0  0
   -2.4854    1.2740    2.5166 F   0  0  0  0  0  0  0  0  0  0  0  0
   -3.7835   -0.3474    1.4221 C   0  0  0  0  0  0  0  0  0  0  0  0
   -4.7096   -0.1407    2.3776 F   0  0  0  0  0  0  0  0  0  0  0  0
   -3.9912   -1.2914    0.4404 C   0  0  0  0  0  0  0  0  0  0  0  0
   -3.0140   -1.3764   -0.5928 C   0  0  0  0  0  0  0  0  0  0  0  0
   -3.1844   -2.2500   -1.5957 N   0  0  0  0  0  0  0  0  0  0  0  0
   -2.3259   -2.2902   -2.5795 C   0  0  0  0  0  0  0  0  0  0  0  0
   -2.5903   -3.3135   -3.6409 C   0  0  0  0  0  0  0  0  0  0  0  0
   -1.9685   -4.6572   -3.2542 C   0  0  0  0  0  0  0  0  0  0  0  0
   -1.2032   -1.4112   -2.5901 C   0  0  0  0  0  0  0  0  0  0  0  0
   -0.9910   -0.5933   -1.5897 N   0  0  0  0  0  0  0  0  0  0  0  0
   -1.8562   -0.5637   -0.5616 C   0  0  0  0  0  0  0  0  0  0  0  0
   -0.2238   -1.3497   -3.7219 C   0  0  0  0  0  0  0  0  0  0  0  0
   -0.7019   -0.3587   -4.7861 C   0  0  0  0  0  0  0  0  0  0  0  0
   -5.1209   -2.2077    0.3954 C   0  0  0  0  0  0  0  0  0  0  0  0
   -5.5119   -3.0350    1.4543 C   0  0  0  0  0  0  0  0  0  0  0  0
   -5.0190   -3.0385    2.7883 C   0  0  0  0  0  0  0  0  0  0  0  0
   -5.6135   -3.9714    3.5760 C   0  0  0  0  0  0  0  0  0  0  0  0
   -5.4210   -4.2323    5.0046 C   0  0  0  0  0  0  0  0  0  0  0  0
   -5.9838   -5.1069    5.6141 O   0  0  0  0  0  0  0  0  0  0  0  0
   -4.5376   -3.3785    5.5482 O   0  0  0  0  0  0  0  0  0  0  0  0
   -4.3180   -3.5027    6.9552 C   0  0  0  0  0  0  0  0  0  0  0  0
   -5.4135   -2.8116    7.7531 C   0  0  0  0  0  0  0  0  0  0  0  0
   -6.7681   -4.9535    2.7194 S   0  0  0  0  0  0  0  0  0  0  0  0
   -6.4947   -4.0521    1.2673 C   0  0  0  0  0  0  0  0  0  0  0  0
   -7.1059   -4.3427    0.0407 C   0  0  0  0  0  0  0  0  0  0  0  0
   -6.7691   -3.4418   -0.9947 C   0  0  0  0  0  0  0  0  0  0  0  0
   -5.8108   -2.3983   -0.8095 C   0  0  0  0  0  0  0  0  0  0  0  0
   -5.7443   -1.7100   -1.9633 N   0  0  0  0  0  0  0  0  0  0  0  0
   -6.5797   -2.3125   -2.7463 N   0  0  0  0  0  0  0  0  0  0  0  0
   -6.7769   -1.9009   -4.1078 C   0  0  0  0  0  0  0  0  0  0  0  0
   -8.2401   -1.5600   -4.3582 C   0  0  0  0  0  0  0  0  0  0  0  0
   -7.2218   -3.3403   -2.2527 N   0  0  0  0  0  0  0  0  0  0  0  0
   -8.0254   -5.4199   -0.0942 C   0  0  0  0  0  0  0  0  0  0  0  0
   -8.4248   -6.0662   -1.2253 C   0  0  0  0  0  0  0  0  0  0  0  0
   -9.6929   -6.8446   -1.2252 C   0  0  0  0  0  0  0  0  0  0  0  0
  -10.3325   -7.1937   -0.2628 O   0  0  0  0  0  0  0  0  0  0  0  0
  -10.0191   -7.0383   -2.6581 C   0  0  0  0  0  0  0  0  0  0  0  0
  -11.1428   -7.5965   -3.2489 C   0  0  0  0  0  0  0  0  0  0  0  0
  -12.4160   -8.2390   -2.3007 Cl  0  0  0  0  0  0  0  0  0  0  0  0
  -11.2282   -7.6278   -4.6395 C   0  0  0  0  0  0  0  0  0  0  0  0
  -10.1943   -7.1057   -5.3984 C   0  0  0  0  0  0  0  0  0  0  0  0
  -10.3454   -7.1417   -7.2879 Br  0  0  0  0  0  0  0  0  0  0  0  0
   -9.0509   -6.5534   -4.8311 C   0  0  0  0  0  0  0  0  0  0  0  0
   -8.9737   -6.5246   -3.4510 C   0  0  0  0  0  0  0  0  0  0  0  0
   -7.9100   -6.0481   -2.5695 C   0  0  0  0  0  0  0  0  0  0  0  0
   -6.6107   -5.8152   -2.9397 C   0  0  0  0  0  0  0  0  0  0  0  0
   -5.5472   -5.6956   -2.0202 C   0  0  0  0  0  0  0  0  0  0  0  0
   -4.6321   -5.6446   -1.3296 N   0  0  0  0  0  0  0  0  0  0  0  0
   -6.1701   -5.6821   -4.2683 C   0  0  0  0  0  0  0  0  0  0  0  0
   -5.7606   -5.4726   -5.3215 N   0  0  0  0  0  0  0  0  0  0  0  0
    4.6411    4.9043    1.7029 H   0  0  0  0  0  0  0  0  0  0  0  0
    8.3231    1.7817   -2.2969 H   0  0  0  0  0  0  0  0  0  0  0  0
    9.6985    6.0230    0.1011 H   0  0  0  0  0  0  0  0  0  0  0  0
   11.6455    5.5184   -2.6868 H   0  0  0  0  0  0  0  0  0  0  0  0
   13.3922    5.0178   -0.9848 H   0  0  0  0  0  0  0  0  0  0  0  0
   12.3021    3.3884    0.7453 H   0  0  0  0  0  0  0  0  0  0  0  0
   11.6066    1.1646   -0.5299 H   0  0  0  0  0  0  0  0  0  0  0  0
   12.2688    1.4238   -3.0473 H   0  0  0  0  0  0  0  0  0  0  0  0
   14.3140    2.7707   -2.0409 H   0  0  0  0  0  0  0  0  0  0  0  0
   13.5972    3.7453   -3.3485 H   0  0  0  0  0  0  0  0  0  0  0  0
   10.9691    3.3584   -3.9265 H   0  0  0  0  0  0  0  0  0  0  0  0
    3.0489    5.4454   -0.8539 H   0  0  0  0  0  0  0  0  0  0  0  0
    4.5321    7.3086   -1.4912 H   0  0  0  0  0  0  0  0  0  0  0  0
    6.9643   10.8805    1.1863 H   0  0  0  0  0  0  0  0  0  0  0  0
    6.4035    9.5008    2.1541 H   0  0  0  0  0  0  0  0  0  0  0  0
    5.3125   10.8926    1.8429 H   0  0  0  0  0  0  0  0  0  0  0  0
    4.0334    9.0241    2.3947 H   0  0  0  0  0  0  0  0  0  0  0  0
    2.6036    7.1594    3.0385 H   0  0  0  0  0  0  0  0  0  0  0  0
    0.2129    6.9554    1.2418 H   0  0  0  0  0  0  0  0  0  0  0  0
   -1.8717    7.2125    2.5380 H   0  0  0  0  0  0  0  0  0  0  0  0
   -2.7285    3.9470    6.2141 H   0  0  0  0  0  0  0  0  0  0  0  0
   -3.1350    3.3423    4.5739 H   0  0  0  0  0  0  0  0  0  0  0  0
   -4.3875    4.0842    5.5981 H   0  0  0  0  0  0  0  0  0  0  0  0
   -0.7696    3.8682    4.9646 H   0  0  0  0  0  0  0  0  0  0  0  0
    1.2985    3.6249    3.6892 H   0  0  0  0  0  0  0  0  0  0  0  0
    2.0177    0.5234   -1.9785 H   0  0  0  0  0  0  0  0  0  0  0  0
    4.0431    0.0838   -3.2841 H   0  0  0  0  0  0  0  0  0  0  0  0
    6.4225    0.3753   -2.5428 H   0  0  0  0  0  0  0  0  0  0  0  0
    6.2068    0.0699   -4.2973 H   0  0  0  0  0  0  0  0  0  0  0  0
    7.7481   -0.3359   -3.5160 H   0  0  0  0  0  0  0  0  0  0  0  0
    4.8846   -3.3164   -0.8356 H   0  0  0  0  0  0  0  0  0  0  0  0
    2.8574   -2.8600    0.4933 H   0  0  0  0  0  0  0  0  0  0  0  0
    0.0994   -0.9101    2.5746 H   0  0  0  0  0  0  0  0  0  0  0  0
   -1.4299   -2.6256    3.3937 H   0  0  0  0  0  0  0  0  0  0  0  0
   -1.1503   -5.2426    4.0815 H   0  0  0  0  0  0  0  0  0  0  0  0
   -2.6330   -4.2835    4.3781 H   0  0  0  0  0  0  0  0  0  0  0  0
   -2.7321   -6.0474    4.2136 H   0  0  0  0  0  0  0  0  0  0  0  0
   -0.9833   -4.7814   -0.2663 H   0  0  0  0  0  0  0  0  0  0  0  0
    0.5676   -3.0501   -1.0932 H   0  0  0  0  0  0  0  0  0  0  0  0
   -2.2039   -2.9838   -4.6047 H   0  0  0  0  0  0  0  0  0  0  0  0
   -3.6702   -3.4441   -3.7220 H   0  0  0  0  0  0  0  0  0  0  0  0
   -0.8944   -4.5623   -3.1074 H   0  0  0  0  0  0  0  0  0  0  0  0
   -2.1509   -5.3869   -4.0390 H   0  0  0  0  0  0  0  0  0  0  0  0
   -2.4229   -5.0167   -2.3344 H   0  0  0  0  0  0  0  0  0  0  0  0
    0.7353   -1.0139   -3.3255 H   0  0  0  0  0  0  0  0  0  0  0  0
   -0.0926   -2.3367   -4.1654 H   0  0  0  0  0  0  0  0  0  0  0  0
   -1.6667   -0.6572   -5.1907 H   0  0  0  0  0  0  0  0  0  0  0  0
   -0.8039    0.6327   -4.3516 H   0  0  0  0  0  0  0  0  0  0  0  0
    0.0165   -0.3110   -5.6006 H   0  0  0  0  0  0  0  0  0  0  0  0
   -4.2673   -2.3673    3.1574 H   0  0  0  0  0  0  0  0  0  0  0  0
   -4.2731   -4.5658    7.2140 H   0  0  0  0  0  0  0  0  0  0  0  0
   -3.3469   -3.0347    7.1304 H   0  0  0  0  0  0  0  0  0  0  0  0
   -6.3660   -3.3065    7.5811 H   0  0  0  0  0  0  0  0  0  0  0  0
   -5.1777   -2.8614    8.8121 H   0  0  0  0  0  0  0  0  0  0  0  0
   -5.4963   -1.7694    7.4539 H   0  0  0  0  0  0  0  0  0  0  0  0
   -6.4669   -2.7213   -4.7636 H   0  0  0  0  0  0  0  0  0  0  0  0
   -6.1273   -1.0395   -4.2701 H   0  0  0  0  0  0  0  0  0  0  0  0
   -8.3837   -1.2996   -5.4026 H   0  0  0  0  0  0  0  0  0  0  0  0
   -8.5473   -0.7188   -3.7416 H   0  0  0  0  0  0  0  0  0  0  0  0
   -8.8646   -2.4168   -4.1185 H   0  0  0  0  0  0  0  0  0  0  0  0
   -8.5227   -5.7316    0.8199 H   0  0  0  0  0  0  0  0  0  0  0  0
  -12.0964   -8.0548   -5.1156 H   0  0  0  0  0  0  0  0  0  0  0  0
   -8.2677   -6.1581   -5.4576 H   0  0  0  0  0  0  0  0  0  0  0  0
  1  2  2  0  0  0  0
  2  3  1  0  0  0  0
  3  4  2  0  0  0  0
  3  5  1  0  0  0  0
  5  6  2  0  0  0  0
  6  7  1  0  0  0  0
  7  8  2  0  0  0  0
  8  9  1  0  0  0  0
  9 10  2  0  0  0  0
 10 11  1  0  0  0  0
 11 12  2  0  0  0  0
 12 13  1  0  0  0  0
 13 14  3  0  0  0  0
 12 15  1  0  0  0  0
 15 16  3  0  0  0  0
  8 17  1  0  0  0  0
 17 18  1  0  0  0  0
 18 19  1  0  0  0  0
 19 20  2  0  0  0  0
 20 21  1  0  0  0  0
 21 22  1  0  0  0  0
 21 23  1  0  0  0  0
  1 24  1  0  0  0  0
 24 25  2  0  0  0  0
 25 26  1  0  0  0  0
 26 27  1  0  0  0  0
 27 28  2  0  0  0  0
 28 29  1  0  0  0  0
 29 30  2  0  0  0  0
 30 31  1  0  0  0  0
 31 32  1  0  0  0  0
 30 33  1  0  0  0  0
 33 34  2  0  0  0  0
 26 35  1  0  0  0  0
 35 36  2  0  0  0  0
 36 37  1  0  0  0  0
 37 38  2  0  0  0  0
 38 39  1  0  0  0  0
 39 40  1  0  0  0  0
 38 41  1  0  0  0  0
 41 42  2  0  0  0  0
 25 43  1  0  0  0  0
 43 44  1  0  0  0  0
 44 45  1  0  0  0  0
 45 46  2  0  0  0  0
 46 47  1  0  0  0  0
 47 48  1  0  0  0  0
 48 49  2  0  0  0  0
 49 50  1  0  0  0  0
 50 51  2  0  0  0  0
 51 52  1  0  0  0  0
 52 53  1  0  0  0  0
 51 54  1  0  0  0  0
 54 55  2  0  0  0  0
 47 56  1  0  0  0  0
 56 57  2  0  0  0  0
 57 58  1  0  0  0  0
 58 59  2  0  0  0  0
 59 60  1  0  0  0  0
 60 61  1  0  0  0  0
 59 62  1  0  0  0  0
 62 63  2  0  0  0  0
 46 64  1  0  0  0  0
 64 65  1  0  0  0  0
 45 66  1  0  0  0  0
 66 67  2  0  0  0  0
 67 68  1  0  0  0  0
 67 69  1  0  0  0  0
 69 70  1  0  0  0  0
 69 71  2  0  0  0  0
 71 72  1  0  0  0  0
 72 73  2  0  0  0  0
 73 74  1  0  0  0  0
 74 75  1  0  0  0  0
 75 76  1  0  0  0  0
 74 77  2  0  0  0  0
 77 78  1  0  0  0  0
 78 79  2  0  0  0  0
 77 80  1  0  0  0  0
 80 81  1  0  0  0  0
 71 82  1  0  0  0  0
 82 83  2  0  0  0  0
 83 84  1  0  0  0  0
 84 85  2  0  0  0  0
 85 86  1  0  0  0  0
 86 87  2  0  0  0  0
 86 88  1  0  0  0  0
 88 89  1  0  0  0  0
 89 90  1  0  0  0  0
 85 91  1  0  0  0  0
 91 92  1  0  0  0  0
 92 93  2  0  0  0  0
 93 94  1  0  0  0  0
 94 95  1  0  0  0  0
 95 96  2  0  0  0  0
 96 97  1  0  0  0  0
 97 98  1  0  0  0  0
 98 99  1  0  0  0  0
 97100  1  0  0  0  0
 93101  1  0  0  0  0
101102  2  0  0  0  0
102103  1  0  0  0  0
103104  2  0  0  0  0
103105  1  0  0  0  0
105106  2  0  0  0  0
106107  1  0  0  0  0
106108  1  0  0  0  0
108109  2  0  0  0  0
109110  1  0  0  0  0
109111  1  0  0  0  0
111112  2  0  0  0  0
112113  1  0  0  0  0
113114  2  0  0  0  0
114115  1  0  0  0  0
115116  3  0  0  0  0
114117  1  0  0  0  0
117118  3  0  0  0  0
 11  2  1  0  0  0  0
 23 17  1  0  0  0  0
 65 24  1  0  0  0  0
 79 66  1  0  0  0  0
 95 82  1  0  0  0  0
113102  1  0  0  0  0
 10  5  1  0  0  0  0
 22 18  1  0  0  0  0
 34 27  1  0  0  0  0
 42 35  1  0  0  0  0
 64 43  2  0  0  0  0
 79 72  1  0  0  0  0
 92 83  1  0  0  0  0
100 94  2  0  0  0  0
112105  1  0  0  0  0
 23  7  1  0  0  0  0
 55 48  1  0  0  0  0
 63 56  1  0  0  0  0
  1119  1  0  0  0  0
  6120  1  0  0  0  0
  9121  1  0  0  0  0
 17122  1  0  0  0  0
 18123  1  0  0  0  0
 19124  1  0  0  0  0
 20125  1  0  0  0  0
 21126  1  0  0  0  0
 22127  1  0  0  0  0
 22128  1  0  0  0  0
 23129  1  0  0  0  0
 28130  1  0  0  0  0
 29131  1  0  0  0  0
 32132  1  0  0  0  0
 32133  1  0  0  0  0
 32134  1  0  0  0  0
 33135  1  0  0  0  0
 34136  1  0  0  0  0
 36137  1  0  0  0  0
 37138  1  0  0  0  0
 40139  1  0  0  0  0
 40140  1  0  0  0  0
 40141  1  0  0  0  0
 41142  1  0  0  0  0
 42143  1  0  0  0  0
 49144  1  0  0  0  0
 50145  1  0  0  0  0
 53146  1  0  0  0  0
 53147  1  0  0  0  0
 53148  1  0  0  0  0
 54149  1  0  0  0  0
 55150  1  0  0  0  0
 57151  1  0  0  0  0
 58152  1  0  0  0  0
 61153  1  0  0  0  0
 61154  1  0  0  0  0
 61155  1  0  0  0  0
 62156  1  0  0  0  0
 63157  1  0  0  0  0
 75158  1  0  0  0  0
 75159  1  0  0  0  0
 76160  1  0  0  0  0
 76161  1  0  0  0  0
 76162  1  0  0  0  0
 80163  1  0  0  0  0
 80164  1  0  0  0  0
 81165  1  0  0  0  0
 81166  1  0  0  0  0
 81167  1  0  0  0  0
 84168  1  0  0  0  0
 89169  1  0  0  0  0
 89170  1  0  0  0  0
 90171  1  0  0  0  0
 90172  1  0  0  0  0
 90173  1  0  0  0  0
 98174  1  0  0  0  0
 98175  1  0  0  0  0
 99176  1  0  0  0  0
 99177  1  0  0  0  0
 99178  1  0  0  0  0
101179  1  0  0  0  0
108180  1  0  0  0  0
111181  1  0  0  0  0
M  END
