268

C         -8.81690        0.86960       -0.59650
C         -9.54710        0.37940       -1.65310
C         -9.03840       -0.43030       -2.76420
O         -7.87440       -0.64010       -3.06020
C        -10.22450       -0.95500       -3.46610
C        -10.24360       -1.80150       -4.57100
C        -11.50740       -2.12630       -5.00450
C        -12.66730       -1.64060       -4.38770
C        -12.66200       -0.79920       -3.29990
C        -11.38730       -0.46250       -2.83970
C        -10.98670        0.41150       -1.73920
C        -11.84450        1.13880       -0.94870
C        -11.45870        2.12570       -0.02340
N        -11.24650        2.97450        0.72340
C        -13.24740        1.02200       -0.96150
N        -14.39160        0.96570       -0.86840
C        -13.57800       -2.37990       -5.33520
C        -14.25870       -3.67160       -4.81870
C        -13.36130       -4.22860       -3.74150
C        -12.26390       -4.68900       -4.32710
C        -12.39960       -4.45140       -5.81080
C        -13.91790       -4.62480       -5.97520
C        -12.28560       -2.92140       -6.02350
C         -7.44860        0.80070       -0.33030
C         -6.87310        1.18560        0.90820
N         -7.58300        1.49020        2.04490
C         -7.13600        2.50470        2.90300
C         -7.34570        2.40290        4.27580
C         -7.02840        3.44900        5.11670
C         -6.48330        4.61440        4.59520
S         -6.13380        6.04430        5.56940
C         -7.04410        5.73930        7.10990
C         -6.20350        4.69370        3.23380
C         -6.53060        3.65330        2.39340
C         -8.79000        0.82650        2.33700
C         -8.92000       -0.53850        2.07120
C        -10.13510       -1.16170        2.23500
C        -11.24220       -0.44440        2.68970
S        -12.77440       -1.31350        2.77970
C        -14.00720        0.01300        2.90220
C        -11.09110        0.88940        3.04200
C         -9.87660        1.52190        2.85950
C         -5.47090        1.15650        0.84150
S         -4.18360        1.48840        1.96640
C         -2.99660        0.98580        0.77080
C         -3.58250        0.66340       -0.44530
N         -2.85080        0.38950       -1.59630
C         -1.83590        1.27550       -1.96710
C         -0.67270        0.80310       -2.57360
C          0.34120        1.67110       -2.91000
C          0.21210        3.03440       -2.66070
S          1.58530        4.06790       -3.09250
C          0.90790        5.74960       -3.01220
C         -0.94490        3.51460       -2.06360
C         -1.95680        2.64060       -1.71710
C         -3.22360       -0.69080       -2.40110
C         -3.75260       -1.84150       -1.81740
C         -4.15540       -2.89690       -2.60420
C         -4.03120       -2.83190       -3.98900
S         -4.58800       -4.23850       -4.90280
C         -4.06130       -3.88190       -6.60320
C         -3.49550       -1.69380       -4.57360
C         -3.09910       -0.63290       -3.78560
C         -4.98800        0.73630       -0.39310
S         -6.23030        0.31760       -1.51100
C         -1.60440        0.77880        1.02830
C         -0.64650        1.54320        1.66600
N         -0.84950        2.78510        2.26770
C         -1.72990        2.89510        3.34630
C         -2.30210        4.12650        3.66560
C         -3.06960        4.27060        4.80090
C         -3.29410        3.17920        5.62950
S         -4.18440        3.32840        7.15370
C         -3.52470        4.90370        7.79060
C         -2.80110        1.93120        5.27520
C         -2.02050        1.78910        4.14690
C          0.14120        3.75540        2.03730
C          0.56860        4.64100        3.02550
C          1.59890        5.51990        2.77640
C          2.24170        5.53130        1.54140
S          3.58050        6.66650        1.34140
C          4.37220        6.11840       -0.19890
C          1.80720        4.66930        0.54550
C          0.76350        3.80070        0.79180
C          0.63460        0.94380        1.56430
S          2.20820        1.41430        2.10040
C          2.90210       -0.02990        1.38270
C          1.93780       -0.84950        0.81650
N          2.20850       -2.10370        0.29370
C          1.52670       -2.51470       -0.86890
C          0.79610       -3.69790       -0.87440
C          0.12120       -4.10170       -2.00930
C          0.18730       -3.33350       -3.16460
S         -0.61560       -3.75970       -4.67420
C         -1.32000       -5.39990       -4.34350
C          0.92920       -2.15380       -3.16520
C          1.58350       -1.74010       -2.02440
C          3.04630       -2.99500        0.96410
C          3.76490       -3.94740        0.24520
C          4.57730       -4.85960        0.89140
C          4.68420       -4.83830        2.27460
S          5.68410       -5.95420        3.21250
C          6.25210       -7.17070        1.98970
C          3.97960       -3.87820        2.99870
C          3.17540       -2.96610        2.35470
C          0.65140       -0.27330        0.90720
S         -0.92610       -0.72410        0.38060
C          4.30430       -0.20390        1.13220
C          5.43480       -0.19450        1.92990
N          5.45010       -0.09560        3.30920
C          6.26380       -0.94790        4.06390
C          6.64000       -2.19620        3.57600
C          7.44040       -3.03790        4.32180
C          7.86440       -2.65610        5.58560
S          8.85510       -3.66790        6.63800
C          9.05820       -5.20320        5.69100
C          7.49310       -1.40680        6.07930
C          6.71130       -0.55910        5.32750
C          4.62140        0.83680        3.95870
C          3.75910        0.42450        4.96990
C          2.94180        1.33630        5.60540
C          2.98210        2.67680        5.24180
S          1.97760        3.90410        6.01870
C          0.55470        2.94280        6.61860
C          3.86520        3.09970        4.25290
C          4.67490        2.18580        3.61120
C          6.60410       -0.39530        1.14890
S          8.28170       -0.51910        1.52650
C          8.68110       -0.72350       -0.19040
C          7.52170       -0.79760       -0.99270
N          7.43930       -1.16550       -2.30260
C          8.41870       -1.91880       -2.95970
C          9.07360       -2.97380       -2.32840
C         10.07640       -3.66930       -2.97240
C         10.45190       -3.31640       -4.26460
S         11.77710       -4.05770       -5.15130
C         12.44350       -5.30110       -4.01150
C          9.75730       -2.30030       -4.92110
C          8.74990       -1.61420       -4.28220
C          6.29250       -0.80350       -3.04920
C          5.56070       -1.78860       -3.70800
C          4.45140       -1.44240       -4.44750
C          4.06430       -0.10740       -4.54990
S          2.64260        0.23640       -5.53890
C          2.84730        1.98800       -5.97470
C          4.78960        0.87530       -3.88740
C          5.89950        0.52730       -3.14210
C          6.37120       -0.55840       -0.20750
S          4.68870       -0.45720       -0.57080
C         10.03280       -0.80080       -0.52210
C         10.57580       -0.51310       -1.75950
C          9.97980        0.42630       -2.72030
O          8.92880        1.03220       -2.61480
C         10.98950        0.58780       -3.79040
C         10.92630        1.36570       -4.92730
C         11.99460        1.36120       -5.81930
C         11.99160        2.17500       -7.07270
C         13.09280        0.56030       -5.50790
F         14.13300        0.55530       -6.36430
C         13.18340       -0.22730       -4.37070
C         12.10940       -0.20750       -3.49890
C         11.85970       -0.92170       -2.25020
C         12.62990       -1.93460       -1.73160
C         12.23210       -2.73940       -0.64700
N         11.94350       -3.47770        0.18540
C         13.85410       -2.35880       -2.27950
N         14.85110       -2.76450       -2.68140
H         -9.39150        1.36130        0.17740
H         -9.32570       -2.15040       -5.01780
H        -13.56280       -0.43130       -2.83720
H        -14.25210       -1.76440       -5.92790
H        -15.30710       -3.55530       -4.55720
H        -13.58370       -4.17840       -2.69180
H        -11.38590       -5.10030       -3.86450
H        -11.75530       -5.04600       -6.45330
H        -14.29160       -4.28650       -6.94080
H        -14.24760       -5.64620       -5.79040
H        -12.11590       -2.65870       -7.06610
H         -7.77680        1.50120        4.68410
H         -7.20590        3.34020        6.17360
H         -8.08130        5.51890        6.87690
H         -6.97870        6.66130        7.67950
H         -6.58190        4.92720        7.66400
H         -5.75930        5.59400        2.83790
H         -6.35680        3.74270        1.33160
H         -8.07070       -1.09550        1.70480
H        -10.24720       -2.21010        2.00510
H        -14.96990       -0.47000        2.76730
H        -13.84570        0.73730        2.10920
H        -13.96410        0.48010        3.88180
H        -11.91880        1.46090        3.42800
H         -9.78380        2.57180        3.08810
H         -0.56960       -0.25250       -2.76520
H          1.24370        1.29280       -3.36260
H          0.01080        5.80750       -3.62110
H          0.70350        6.02510       -1.98070
H          1.67570        6.39830       -3.42350
H         -1.07080        4.56460       -1.85240
H         -2.85100        3.02460       -1.24890
H         -3.83870       -1.90350       -0.74260
H         -4.57190       -3.78510       -2.15310
H         -4.28530       -4.77720       -7.17510
H         -2.99350       -3.68260       -6.62140
H         -4.62650       -3.04310       -6.99900
H         -3.38880       -1.61180       -5.64250
H         -2.70010        0.25520       -4.25200
H         -2.12930        4.97600        3.02260
H         -3.48980        5.23500        5.03740
H         -3.79950        4.94560        8.83970
H         -3.96100        5.74310        7.25770
H         -2.44410        4.90230        7.68910
H         -3.00640        1.08070        5.90690
H         -1.60390        0.82350        3.89970
H          0.11600        4.62640        4.00340
H          1.93250        6.18960        3.55410
H          4.60280        5.05920       -0.13500
H          5.28880        6.69450       -0.27820
H          3.73220        6.32950       -1.05090
H          2.27900        4.64910       -0.42300
H          0.43840        3.13140        0.01010
H          0.75390       -4.30020        0.02130
H         -0.45450       -5.01210       -1.97670
H         -2.09970       -5.32480       -3.59150
H         -1.75290       -5.73210       -5.28180
H         -0.53270       -6.08350       -4.03990
H          0.99590       -1.57480       -4.07430
H          2.15640       -0.82480       -2.02300
H          3.68470       -3.96860       -0.83170
H          5.12340       -5.57760        0.30060
H          5.39700       -7.61820        1.49180
H          6.78710       -7.92700        2.55580
H          6.92470       -6.70230        1.27690
H          4.07100       -3.86190        4.07400
H          2.62830       -2.23380        2.92920
H          6.29150       -2.52450        2.60880
H          7.70860       -3.99430        3.90700
H          8.08510       -5.63290        5.47040
H          9.62190       -5.87060        6.33540
H          9.62030       -5.00620        4.78270
H          7.83230       -1.10700        7.05900
H          6.44100        0.41110        5.71620
H          3.73490       -0.61770        5.25290
H          2.27840        0.99470        6.38400
H          0.20850        2.27750        5.83320
H         -0.21900        3.66830        6.84960
H          0.81530        2.39190        7.51750
H          3.90250        4.14490        3.98940
H          5.35330        2.50820        2.83540
H          8.80400       -3.24940       -1.31980
H         10.56610       -4.47470       -2.44970
H         13.27270       -5.76010       -4.54070
H         12.81060       -4.82550       -3.10700
H         11.68610       -6.04750       -3.79080
H         10.03520       -2.04590       -5.93220
H          8.22610       -0.81890       -4.79000
H          5.87010       -2.82090       -3.63740
H          3.87400       -2.19830       -4.95680
H          3.85510        2.14910       -6.34490
H          2.63240        2.62480       -5.12120
H          2.12590        2.17770       -6.76340
H          4.49710        1.91180       -3.94400
H          6.48860        1.28270       -2.64620
H         10.70330       -1.06800        0.28650
H         10.05070        1.96660       -5.12140
H         12.82720        2.87420       -7.06770
H         12.11530        1.52940       -7.94140
H         11.06370        2.73120       -7.17030
H         14.07040       -0.81530       -4.20130
