
  xtb     02162208343D
 energy: -314.412146524816 gnorm: 0.000324813639 xtb: 6.4.1 (unknown)
184204  0     0  0            999 V2000
   -1.0106   -4.8955   -8.9912 C   0  0  0  0  0  0  0  0  0  0  0  0
   -1.0835   -3.6434   -9.4857 C   0  0  0  0  0  0  0  0  0  0  0  0
   -1.8399   -2.5260   -8.8407 C   0  0  0  0  0  0  0  0  0  0  0  0
   -2.5315   -2.5865   -7.8478 O   0  0  0  0  0  0  0  0  0  0  0  0
   -1.6662   -1.3641   -9.7215 C   0  0  0  0  0  0  0  0  0  0  0  0
   -2.1549   -0.0771   -9.5009 C   0  0  0  0  0  0  0  0  0  0  0  0
   -1.8373    0.8185  -10.4920 C   0  0  0  0  0  0  0  0  0  0  0  0
   -1.0961    0.4590  -11.6281 C   0  0  0  0  0  0  0  0  0  0  0  0
   -0.6165   -0.8066  -11.8626 C   0  0  0  0  0  0  0  0  0  0  0  0
   -0.9199   -1.7354  -10.8603 C   0  0  0  0  0  0  0  0  0  0  0  0
   -0.5661   -3.1456  -10.7582 C   0  0  0  0  0  0  0  0  0  0  0  0
    0.1542   -3.8600  -11.6744 C   0  0  0  0  0  0  0  0  0  0  0  0
    0.5164   -5.2193  -11.5477 C   0  0  0  0  0  0  0  0  0  0  0  0
    0.8567   -6.3151  -11.5191 N   0  0  0  0  0  0  0  0  0  0  0  0
    0.6447   -3.3397  -12.8926 C   0  0  0  0  0  0  0  0  0  0  0  0
    1.0713   -2.9905  -13.8990 N   0  0  0  0  0  0  0  0  0  0  0  0
   -1.1363    1.8557  -12.1936 C   0  0  0  0  0  0  0  0  0  0  0  0
    0.1414    2.7212  -12.0582 C   0  0  0  0  0  0  0  0  0  0  0  0
    0.8798    2.2108  -10.8454 C   0  0  0  0  0  0  0  0  0  0  0  0
    0.1793    2.5508   -9.7716 C   0  0  0  0  0  0  0  0  0  0  0  0
   -1.0455    3.2980  -10.2390 C   0  0  0  0  0  0  0  0  0  0  0  0
   -0.4753    4.0046  -11.4791 C   0  0  0  0  0  0  0  0  0  0  0  0
   -1.9605    2.2559  -10.9294 C   0  0  0  0  0  0  0  0  0  0  0  0
   -1.4443   -5.2623   -7.6504 C   0  0  0  0  0  0  0  0  0  0  0  0
   -2.2606   -6.3931   -7.4682 C   0  0  0  0  0  0  0  0  0  0  0  0
   -2.7241   -6.7288   -6.2156 C   0  0  0  0  0  0  0  0  0  0  0  0
   -3.6196   -7.8874   -6.0478 C   0  0  0  0  0  0  0  0  0  0  0  0
   -3.9882   -8.6059   -6.9491 O   0  0  0  0  0  0  0  0  0  0  0  0
   -4.0422   -8.1154   -4.7515 N   0  0  0  0  0  0  0  0  0  0  0  0
   -3.7453   -7.4058   -3.6049 C   0  0  0  0  0  0  0  0  0  0  0  0
   -4.2381   -7.7173   -2.5426 O   0  0  0  0  0  0  0  0  0  0  0  0
   -2.8206   -6.2763   -3.7947 C   0  0  0  0  0  0  0  0  0  0  0  0
   -2.4332   -5.5188   -2.7125 C   0  0  0  0  0  0  0  0  0  0  0  0
   -1.5684   -4.4209   -2.8725 C   0  0  0  0  0  0  0  0  0  0  0  0
   -1.0829   -4.1163   -4.1263 C   0  0  0  0  0  0  0  0  0  0  0  0
   -1.4678   -4.8674   -5.2551 C   0  0  0  0  0  0  0  0  0  0  0  0
   -1.0397   -4.5312   -6.5504 C   0  0  0  0  0  0  0  0  0  0  0  0
   -2.3483   -5.9669   -5.0882 C   0  0  0  0  0  0  0  0  0  0  0  0
   -1.2501   -3.5771   -1.7154 C   0  0  0  0  0  0  0  0  0  0  0  0
    0.0144   -3.0941   -1.4592 C   0  0  0  0  0  0  0  0  0  0  0  0
    1.0504   -3.4552   -2.2384 F   0  0  0  0  0  0  0  0  0  0  0  0
    0.2749   -2.2008   -0.4116 C   0  0  0  0  0  0  0  0  0  0  0  0
    1.5339   -1.7394   -0.2885 F   0  0  0  0  0  0  0  0  0  0  0  0
   -0.7226   -1.7388    0.4252 C   0  0  0  0  0  0  0  0  0  0  0  0
   -2.0157   -2.3097    0.2569 C   0  0  0  0  0  0  0  0  0  0  0  0
   -2.9843   -2.0311    1.1482 N   0  0  0  0  0  0  0  0  0  0  0  0
   -4.1859   -2.5121    0.9596 C   0  0  0  0  0  0  0  0  0  0  0  0
   -5.1957   -2.2330    2.0295 C   0  0  0  0  0  0  0  0  0  0  0  0
   -5.1720   -3.3443    3.0824 C   0  0  0  0  0  0  0  0  0  0  0  0
   -4.4872   -3.2807   -0.2068 C   0  0  0  0  0  0  0  0  0  0  0  0
   -3.5406   -3.6044   -1.0462 N   0  0  0  0  0  0  0  0  0  0  0  0
   -2.2819   -3.1828   -0.8250 C   0  0  0  0  0  0  0  0  0  0  0  0
   -5.8799   -3.7383   -0.5188 C   0  0  0  0  0  0  0  0  0  0  0  0
   -5.9549   -4.6212   -1.7576 C   0  0  0  0  0  0  0  0  0  0  0  0
   -0.5074   -0.6813    1.3858 C   0  0  0  0  0  0  0  0  0  0  0  0
   -1.3183    0.4240    1.5916 C   0  0  0  0  0  0  0  0  0  0  0  0
   -2.4444    0.7505    0.8541 N   0  0  0  0  0  0  0  0  0  0  0  0
   -2.5048    0.4103   -0.5033 C   0  0  0  0  0  0  0  0  0  0  0  0
   -3.6795   -0.0727   -1.0749 C   0  0  0  0  0  0  0  0  0  0  0  0
   -3.6940   -0.5353   -2.3761 C   0  0  0  0  0  0  0  0  0  0  0  0
   -2.5331   -0.5166   -3.1371 C   0  0  0  0  0  0  0  0  0  0  0  0
   -2.4232   -1.1471   -4.7835 S   0  0  0  0  0  0  0  0  0  0  0  0
   -3.8848   -2.2061   -4.9275 C   0  0  0  0  0  0  0  0  0  0  0  0
   -1.3769    0.0436   -2.5968 C   0  0  0  0  0  0  0  0  0  0  0  0
   -1.3623    0.5050   -1.3008 C   0  0  0  0  0  0  0  0  0  0  0  0
   -3.5365    1.3329    1.5028 C   0  0  0  0  0  0  0  0  0  0  0  0
   -4.3488    2.2534    0.8388 C   0  0  0  0  0  0  0  0  0  0  0  0
   -5.4137    2.8337    1.4890 C   0  0  0  0  0  0  0  0  0  0  0  0
   -5.6905    2.5200    2.8188 C   0  0  0  0  0  0  0  0  0  0  0  0
   -7.0837    3.3240    3.5479 S   0  0  0  0  0  0  0  0  0  0  0  0
   -6.8827    3.0005    5.3235 C   0  0  0  0  0  0  0  0  0  0  0  0
   -4.8901    1.6011    3.4819 C   0  0  0  0  0  0  0  0  0  0  0  0
   -3.8254    1.0117    2.8271 C   0  0  0  0  0  0  0  0  0  0  0  0
   -0.7707    1.2620    2.5943 C   0  0  0  0  0  0  0  0  0  0  0  0
   -1.2914    2.7203    3.3422 S   0  0  0  0  0  0  0  0  0  0  0  0
    0.2014    2.8076    4.2868 C   0  0  0  0  0  0  0  0  0  0  0  0
    1.0266    1.6894    4.0705 C   0  0  0  0  0  0  0  0  0  0  0  0
    2.2041    1.3738    4.7088 N   0  0  0  0  0  0  0  0  0  0  0  0
    3.0705    0.4572    4.0548 C   0  0  0  0  0  0  0  0  0  0  0  0
    3.4618   -0.7171    4.6955 C   0  0  0  0  0  0  0  0  0  0  0  0
    4.2461   -1.6345    4.0339 C   0  0  0  0  0  0  0  0  0  0  0  0
    4.6525   -1.4002    2.7207 C   0  0  0  0  0  0  0  0  0  0  0  0
    5.5912   -2.6636    1.9340 S   0  0  0  0  0  0  0  0  0  0  0  0
    5.4090   -2.2710    0.1701 C   0  0  0  0  0  0  0  0  0  0  0  0
    4.3043   -0.2080    2.0994 C   0  0  0  0  0  0  0  0  0  0  0  0
    3.5166    0.7120    2.7626 C   0  0  0  0  0  0  0  0  0  0  0  0
    2.4969    1.6923    6.0377 C   0  0  0  0  0  0  0  0  0  0  0  0
    3.8348    1.7565    6.4454 C   0  0  0  0  0  0  0  0  0  0  0  0
    4.1557    2.0974    7.7371 C   0  0  0  0  0  0  0  0  0  0  0  0
    3.1543    2.4002    8.6605 C   0  0  0  0  0  0  0  0  0  0  0  0
    3.6821    2.9214   10.2561 S   0  0  0  0  0  0  0  0  0  0  0  0
    2.1528    3.5025   11.0418 C   0  0  0  0  0  0  0  0  0  0  0  0
    1.8250    2.2803    8.2801 C   0  0  0  0  0  0  0  0  0  0  0  0
    1.5021    1.9235    6.9851 C   0  0  0  0  0  0  0  0  0  0  0  0
    0.4509    0.8360    3.0941 C   0  0  0  0  0  0  0  0  0  0  0  0
    0.9441   -0.6492    2.3582 S   0  0  0  0  0  0  0  0  0  0  0  0
    0.3047    3.9374    5.1158 C   0  0  0  0  0  0  0  0  0  0  0  0
    1.3931    4.5113    5.7157 C   0  0  0  0  0  0  0  0  0  0  0  0
    1.2137    5.3288    6.9383 C   0  0  0  0  0  0  0  0  0  0  0  0
    0.1655    5.6961    7.4263 O   0  0  0  0  0  0  0  0  0  0  0  0
    2.5719    5.5147    7.4859 C   0  0  0  0  0  0  0  0  0  0  0  0
    2.9183    6.1150    8.6946 C   0  0  0  0  0  0  0  0  0  0  0  0
    4.2645    6.0883    8.9689 C   0  0  0  0  0  0  0  0  0  0  0  0
    5.2049    5.5279    8.0945 C   0  0  0  0  0  0  0  0  0  0  0  0
    4.8811    4.9549    6.8879 C   0  0  0  0  0  0  0  0  0  0  0  0
    3.5137    4.9496    6.6030 C   0  0  0  0  0  0  0  0  0  0  0  0
    2.8009    4.4163    5.4458 C   0  0  0  0  0  0  0  0  0  0  0  0
    3.3525    4.1014    4.2241 C   0  0  0  0  0  0  0  0  0  0  0  0
    2.5758    3.9411    3.0654 C   0  0  0  0  0  0  0  0  0  0  0  0
    1.9787    3.8432    2.0877 N   0  0  0  0  0  0  0  0  0  0  0  0
    4.7311    3.9758    3.9813 C   0  0  0  0  0  0  0  0  0  0  0  0
    5.8413    3.8117    3.7345 N   0  0  0  0  0  0  0  0  0  0  0  0
    6.3619    5.8443    9.0092 C   0  0  0  0  0  0  0  0  0  0  0  0
    7.2374    7.0547    8.6232 C   0  0  0  0  0  0  0  0  0  0  0  0
    7.9546    7.4072    9.9062 C   0  0  0  0  0  0  0  0  0  0  0  0
    7.0643    7.9401   10.7331 C   0  0  0  0  0  0  0  0  0  0  0  0
    5.7298    7.9566   10.0229 C   0  0  0  0  0  0  0  0  0  0  0  0
    6.2014    8.1856    8.5810 C   0  0  0  0  0  0  0  0  0  0  0  0
    5.3134    6.4715    9.9830 C   0  0  0  0  0  0  0  0  0  0  0  0
   -0.6192   -5.7027   -9.5965 H   0  0  0  0  0  0  0  0  0  0  0  0
   -2.7179    0.1530   -8.6100 H   0  0  0  0  0  0  0  0  0  0  0  0
   -0.0519   -1.0648  -12.7427 H   0  0  0  0  0  0  0  0  0  0  0  0
   -1.6090    1.9628  -13.1676 H   0  0  0  0  0  0  0  0  0  0  0  0
    0.7230    2.8120  -12.9714 H   0  0  0  0  0  0  0  0  0  0  0  0
    1.7790    1.6251  -10.8950 H   0  0  0  0  0  0  0  0  0  0  0  0
    0.3746    2.3053   -8.7443 H   0  0  0  0  0  0  0  0  0  0  0  0
   -1.5444    3.9142   -9.4959 H   0  0  0  0  0  0  0  0  0  0  0  0
   -1.2393    4.4458  -12.1177 H   0  0  0  0  0  0  0  0  0  0  0  0
    0.2730    4.7547  -11.2286 H   0  0  0  0  0  0  0  0  0  0  0  0
   -2.9736    2.6249  -11.0760 H   0  0  0  0  0  0  0  0  0  0  0  0
   -2.5636   -6.9920   -8.3144 H   0  0  0  0  0  0  0  0  0  0  0  0
   -4.6712   -8.9041   -4.6299 H   0  0  0  0  0  0  0  0  0  0  0  0
   -2.7984   -5.7852   -1.7343 H   0  0  0  0  0  0  0  0  0  0  0  0
   -0.4283   -3.2708   -4.2703 H   0  0  0  0  0  0  0  0  0  0  0  0
   -0.3796   -3.6858   -6.6741 H   0  0  0  0  0  0  0  0  0  0  0  0
   -6.1943   -2.1495    1.6001 H   0  0  0  0  0  0  0  0  0  0  0  0
   -4.9358   -1.2856    2.5034 H   0  0  0  0  0  0  0  0  0  0  0  0
   -5.4100   -4.3085    2.6388 H   0  0  0  0  0  0  0  0  0  0  0  0
   -4.1840   -3.4079    3.5316 H   0  0  0  0  0  0  0  0  0  0  0  0
   -5.8983   -3.1343    3.8634 H   0  0  0  0  0  0  0  0  0  0  0  0
   -6.5056   -2.8503   -0.6583 H   0  0  0  0  0  0  0  0  0  0  0  0
   -6.2769   -4.2802    0.3429 H   0  0  0  0  0  0  0  0  0  0  0  0
   -6.9902   -4.8800   -1.9656 H   0  0  0  0  0  0  0  0  0  0  0  0
   -5.3910   -5.5380   -1.6122 H   0  0  0  0  0  0  0  0  0  0  0  0
   -5.5427   -4.1033   -2.6193 H   0  0  0  0  0  0  0  0  0  0  0  0
   -4.5826   -0.1115   -0.4833 H   0  0  0  0  0  0  0  0  0  0  0  0
   -4.6146   -0.9243   -2.7805 H   0  0  0  0  0  0  0  0  0  0  0  0
   -3.9077   -2.9020   -4.0932 H   0  0  0  0  0  0  0  0  0  0  0  0
   -3.7552   -2.7363   -5.8655 H   0  0  0  0  0  0  0  0  0  0  0  0
   -4.7857   -1.6004   -4.9673 H   0  0  0  0  0  0  0  0  0  0  0  0
   -0.4890    0.1051   -3.2069 H   0  0  0  0  0  0  0  0  0  0  0  0
   -0.4591    0.9307   -0.8904 H   0  0  0  0  0  0  0  0  0  0  0  0
   -4.1296    2.5175   -0.1846 H   0  0  0  0  0  0  0  0  0  0  0  0
   -6.0394    3.5498    0.9789 H   0  0  0  0  0  0  0  0  0  0  0  0
   -7.6263    3.6165    5.8195 H   0  0  0  0  0  0  0  0  0  0  0  0
   -5.8863    3.2972    5.6368 H   0  0  0  0  0  0  0  0  0  0  0  0
   -7.0713    1.9530    5.5412 H   0  0  0  0  0  0  0  0  0  0  0  0
   -5.0882    1.3261    4.5054 H   0  0  0  0  0  0  0  0  0  0  0  0
   -3.2152    0.2853    3.3427 H   0  0  0  0  0  0  0  0  0  0  0  0
    3.1280   -0.9131    5.7038 H   0  0  0  0  0  0  0  0  0  0  0  0
    4.5348   -2.5549    4.5171 H   0  0  0  0  0  0  0  0  0  0  0  0
    4.3605   -2.0976   -0.0527 H   0  0  0  0  0  0  0  0  0  0  0  0
    6.0186   -1.4109   -0.0912 H   0  0  0  0  0  0  0  0  0  0  0  0
    5.7641   -3.1466   -0.3644 H   0  0  0  0  0  0  0  0  0  0  0  0
    4.6327    0.0161    1.0985 H   0  0  0  0  0  0  0  0  0  0  0  0
    3.2323    1.6251    2.2639 H   0  0  0  0  0  0  0  0  0  0  0  0
    4.6209    1.5593    5.7321 H   0  0  0  0  0  0  0  0  0  0  0  0
    5.1881    2.1571    8.0436 H   0  0  0  0  0  0  0  0  0  0  0  0
    1.6637    4.2237   10.3940 H   0  0  0  0  0  0  0  0  0  0  0  0
    2.4599    3.9805   11.9667 H   0  0  0  0  0  0  0  0  0  0  0  0
    1.5015    2.6619   11.2629 H   0  0  0  0  0  0  0  0  0  0  0  0
    1.0248    2.4624    8.9784 H   0  0  0  0  0  0  0  0  0  0  0  0
    0.4633    1.8133    6.7155 H   0  0  0  0  0  0  0  0  0  0  0  0
   -0.6445    4.4003    5.3723 H   0  0  0  0  0  0  0  0  0  0  0  0
    2.1660    6.5506    9.3346 H   0  0  0  0  0  0  0  0  0  0  0  0
    5.6098    4.5231    6.2217 H   0  0  0  0  0  0  0  0  0  0  0  0
    6.9395    4.9883    9.3522 H   0  0  0  0  0  0  0  0  0  0  0  0
    7.8547    6.9075    7.7412 H   0  0  0  0  0  0  0  0  0  0  0  0
    8.9895    7.1891   10.0946 H   0  0  0  0  0  0  0  0  0  0  0  0
    7.2067    8.2560   11.7499 H   0  0  0  0  0  0  0  0  0  0  0  0
    4.9749    8.6323   10.4163 H   0  0  0  0  0  0  0  0  0  0  0  0
    5.4238    8.0467    7.8322 H   0  0  0  0  0  0  0  0  0  0  0  0
    6.6634    9.1627    8.4492 H   0  0  0  0  0  0  0  0  0  0  0  0
    5.1977    6.0307   10.9712 H   0  0  0  0  0  0  0  0  0  0  0  0
  1  2  2  0  0  0  0
  2  3  1  0  0  0  0
  3  4  2  0  0  0  0
  3  5  1  0  0  0  0
  5  6  2  0  0  0  0
  6  7  1  0  0  0  0
  7  8  2  0  0  0  0
  8  9  1  0  0  0  0
  9 10  2  0  0  0  0
 10 11  1  0  0  0  0
 11 12  2  0  0  0  0
 12 13  1  0  0  0  0
 13 14  3  0  0  0  0
 12 15  1  0  0  0  0
 15 16  3  0  0  0  0
  8 17  1  0  0  0  0
 17 18  1  0  0  0  0
 18 19  1  0  0  0  0
 19 20  2  0  0  0  0
 20 21  1  0  0  0  0
 21 22  1  0  0  0  0
 21 23  1  0  0  0  0
  1 24  1  0  0  0  0
 24 25  2  0  0  0  0
 25 26  1  0  0  0  0
 26 27  1  0  0  0  0
 27 28  2  0  0  0  0
 27 29  1  0  0  0  0
 29 30  1  0  0  0  0
 30 31  2  0  0  0  0
 30 32  1  0  0  0  0
 32 33  2  0  0  0  0
 33 34  1  0  0  0  0
 34 35  2  0  0  0  0
 35 36  1  0  0  0  0
 36 37  2  0  0  0  0
 36 38  1  0  0  0  0
 34 39  1  0  0  0  0
 39 40  2  0  0  0  0
 40 41  1  0  0  0  0
 40 42  1  0  0  0  0
 42 43  1  0  0  0  0
 42 44  2  0  0  0  0
 44 45  1  0  0  0  0
 45 46  2  0  0  0  0
 46 47  1  0  0  0  0
 47 48  1  0  0  0  0
 48 49  1  0  0  0  0
 47 50  2  0  0  0  0
 50 51  1  0  0  0  0
 51 52  2  0  0  0  0
 50 53  1  0  0  0  0
 53 54  1  0  0  0  0
 44 55  1  0  0  0  0
 55 56  2  0  0  0  0
 56 57  1  0  0  0  0
 57 58  1  0  0  0  0
 58 59  2  0  0  0  0
 59 60  1  0  0  0  0
 60 61  2  0  0  0  0
 61 62  1  0  0  0  0
 62 63  1  0  0  0  0
 61 64  1  0  0  0  0
 64 65  2  0  0  0  0
 57 66  1  0  0  0  0
 66 67  2  0  0  0  0
 67 68  1  0  0  0  0
 68 69  2  0  0  0  0
 69 70  1  0  0  0  0
 70 71  1  0  0  0  0
 69 72  1  0  0  0  0
 72 73  2  0  0  0  0
 56 74  1  0  0  0  0
 74 75  1  0  0  0  0
 75 76  1  0  0  0  0
 76 77  2  0  0  0  0
 77 78  1  0  0  0  0
 78 79  1  0  0  0  0
 79 80  2  0  0  0  0
 80 81  1  0  0  0  0
 81 82  2  0  0  0  0
 82 83  1  0  0  0  0
 83 84  1  0  0  0  0
 82 85  1  0  0  0  0
 85 86  2  0  0  0  0
 78 87  1  0  0  0  0
 87 88  2  0  0  0  0
 88 89  1  0  0  0  0
 89 90  2  0  0  0  0
 90 91  1  0  0  0  0
 91 92  1  0  0  0  0
 90 93  1  0  0  0  0
 93 94  2  0  0  0  0
 77 95  1  0  0  0  0
 95 96  1  0  0  0  0
 76 97  1  0  0  0  0
 97 98  2  0  0  0  0
 98 99  1  0  0  0  0
 99100  2  0  0  0  0
 99101  1  0  0  0  0
101102  2  0  0  0  0
102103  1  0  0  0  0
103104  2  0  0  0  0
104105  1  0  0  0  0
105106  2  0  0  0  0
106107  1  0  0  0  0
107108  2  0  0  0  0
108109  1  0  0  0  0
109110  3  0  0  0  0
108111  1  0  0  0  0
111112  3  0  0  0  0
104113  1  0  0  0  0
113114  1  0  0  0  0
114115  1  0  0  0  0
115116  2  0  0  0  0
116117  1  0  0  0  0
117118  1  0  0  0  0
117119  1  0  0  0  0
 11  2  1  0  0  0  0
 23 17  1  0  0  0  0
 37 24  1  0  0  0  0
 52 39  1  0  0  0  0
 96 55  1  0  0  0  0
107 98  1  0  0  0  0
119113  1  0  0  0  0
 10  5  1  0  0  0  0
 22 18  1  0  0  0  0
 38 26  2  0  0  0  0
 52 45  1  0  0  0  0
 65 58  1  0  0  0  0
 73 66  1  0  0  0  0
 95 74  2  0  0  0  0
106101  1  0  0  0  0
118114  1  0  0  0  0
 23  7  1  0  0  0  0
 38 32  1  0  0  0  0
 86 79  1  0  0  0  0
 94 87  1  0  0  0  0
119103  1  0  0  0  0
  1120  1  0  0  0  0
  6121  1  0  0  0  0
  9122  1  0  0  0  0
 17123  1  0  0  0  0
 18124  1  0  0  0  0
 19125  1  0  0  0  0
 20126  1  0  0  0  0
 21127  1  0  0  0  0
 22128  1  0  0  0  0
 22129  1  0  0  0  0
 23130  1  0  0  0  0
 25131  1  0  0  0  0
 29132  1  0  0  0  0
 33133  1  0  0  0  0
 35134  1  0  0  0  0
 37135  1  0  0  0  0
 48136  1  0  0  0  0
 48137  1  0  0  0  0
 49138  1  0  0  0  0
 49139  1  0  0  0  0
 49140  1  0  0  0  0
 53141  1  0  0  0  0
 53142  1  0  0  0  0
 54143  1  0  0  0  0
 54144  1  0  0  0  0
 54145  1  0  0  0  0
 59146  1  0  0  0  0
 60147  1  0  0  0  0
 63148  1  0  0  0  0
 63149  1  0  0  0  0
 63150  1  0  0  0  0
 64151  1  0  0  0  0
 65152  1  0  0  0  0
 67153  1  0  0  0  0
 68154  1  0  0  0  0
 71155  1  0  0  0  0
 71156  1  0  0  0  0
 71157  1  0  0  0  0
 72158  1  0  0  0  0
 73159  1  0  0  0  0
 80160  1  0  0  0  0
 81161  1  0  0  0  0
 84162  1  0  0  0  0
 84163  1  0  0  0  0
 84164  1  0  0  0  0
 85165  1  0  0  0  0
 86166  1  0  0  0  0
 88167  1  0  0  0  0
 89168  1  0  0  0  0
 92169  1  0  0  0  0
 92170  1  0  0  0  0
 92171  1  0  0  0  0
 93172  1  0  0  0  0
 94173  1  0  0  0  0
 97174  1  0  0  0  0
102175  1  0  0  0  0
105176  1  0  0  0  0
113177  1  0  0  0  0
114178  1  0  0  0  0
115179  1  0  0  0  0
116180  1  0  0  0  0
117181  1  0  0  0  0
118182  1  0  0  0  0
118183  1  0  0  0  0
119184  1  0  0  0  0
M  END
