180

C          6.05760       -1.43850       -2.57010
C          6.64940       -0.22970       -2.86400
C          6.26880        1.07460       -2.27950
O          5.36990        1.31430       -1.49630
C          7.30410        2.03110       -2.71130
C          7.34200        3.39590       -2.43620
C          8.44450        4.03490       -2.95130
C          9.44080        3.36500       -3.67310
C          9.40980        2.01950       -3.95660
C          8.29070        1.35170       -3.45170
C          7.87980       -0.04460       -3.58980
C          8.49750       -0.97950       -4.38700
C          7.95470       -2.23120       -4.72160
N          7.55740       -3.23590       -5.11620
C          9.72150       -0.77970       -5.05430
N         10.72230       -0.69590       -5.61250
C         10.25600        4.61980       -3.86810
C         11.49450        4.78800       -2.96250
C         11.79550        6.26770       -3.03380
C         10.84850        6.90520       -2.35740
C          9.89180        5.86720       -1.81710
C         10.87030        4.71330       -1.56300
C          9.14090        5.36820       -3.06950
C          4.76100       -1.60240       -2.05490
C          4.25570       -2.64070       -1.24370
N          4.96420       -3.71760       -0.77890
C          4.71040       -4.20490        0.51370
C          4.69010       -5.57730        0.76230
C          4.43950       -6.04520        2.03150
C          4.19810       -5.15820        3.08040
S          3.88300       -5.87780        4.65830
C          3.41150       -4.46490        5.69670
C          4.23020       -3.79120        2.83850
C          4.48840       -3.32120        1.56610
C          5.88170       -4.40010       -1.59370
C          7.09120       -4.84930       -1.06320
C          7.98350       -5.52770       -1.86200
C          7.68650       -5.77780       -3.20170
S          8.89760       -6.64520       -4.13570
C          8.40440       -6.32540       -5.85280
C          6.46920       -5.35440       -3.72420
C          5.57910       -4.66550       -2.92670
C          2.91880       -2.37570       -0.86900
S          1.73300       -3.21880        0.07340
C          0.56790       -1.94370       -0.22110
C          1.05230       -0.94960       -1.05610
N          0.35590        0.14630       -1.53260
C          1.08470        1.33720       -1.70250
C          0.90320        2.13010       -2.83010
C          1.69320        3.24610       -3.03410
C          2.67920        3.57860       -2.11490
S          3.77680        4.94900       -2.30660
C          3.63300        5.36790       -4.06740
C          2.83030        2.81610       -0.95990
C          2.04000        1.70860       -0.75530
C         -1.02350        0.10680       -1.74320
C         -1.82120        1.21320       -1.44770
C         -3.19190        1.13110       -1.54810
C         -3.80410       -0.05390       -1.94700
S         -5.57020       -0.08910       -1.92360
C         -5.97620       -1.45560       -3.04930
C         -3.01450       -1.13820       -2.30610
C         -1.63970       -1.05120       -2.21770
C          2.39630       -1.21300       -1.41710
S          3.53300       -0.39390       -2.40700
C         -0.76340       -1.98390        0.33410
C         -1.57980       -3.09700        0.26460
F         -1.09310       -4.25200       -0.22300
C         -2.93700       -3.06240        0.60410
F         -3.61710       -4.21620        0.49150
C         -3.56710       -1.89850        1.01960
C         -2.70730       -0.77950        1.23870
N         -3.23080        0.33330        1.75300
C         -2.47570        1.36370        2.03920
C         -3.19880        2.54880        2.59550
C         -4.01330        3.24090        1.50000
C         -1.06970        1.28110        1.82200
N         -0.54360        0.21990        1.25740
C         -1.32930       -0.81900        0.92870
C         -0.11000        2.35500        2.23980
C         -0.12840        3.56310        1.30180
C         -4.97490       -1.73930        1.23330
S         -5.55400       -0.40570        2.18660
C         -7.22700       -0.87360        1.96100
C         -7.30590       -1.99760        1.12110
C         -8.36830       -2.73810        0.54880
C         -7.93300       -3.74080       -0.25580
C         -8.74910       -4.73130       -1.00860
C         -8.58080       -6.13930       -0.43440
S         -6.18710       -3.83830       -0.33410
C         -6.03620       -2.48260        0.73730
C         -8.36410       -0.25330        2.48010
C         -8.48870        0.84720        3.29440
C         -7.39010        1.66090        3.81840
O         -6.19350        1.50860        3.63470
C         -8.01190        2.72030        4.63340
C         -7.36000        3.73220        5.33300
C         -8.20410        4.57140        6.02000
C         -9.59600        4.41760        6.00710
C        -10.25210        3.42640        5.31560
C         -9.41160        2.55850        4.61400
C         -9.73420        1.39850        3.78140
C        -11.00270        0.93810        3.52540
C        -12.18230        1.51690        4.03670
N        -13.18730        1.92720        4.41240
C        -11.33410       -0.17070        2.72020
N        -11.70050       -1.05450        2.08240
C         -9.81550        5.59920        6.91840
C        -10.14380        5.31320        8.40460
C         -9.53600        3.97100        8.72790
C         -8.21770        4.11610        8.74100
C         -7.91040        5.55940        8.42650
C         -9.12250        6.24260        9.07960
C         -8.26370        5.77050        6.93330
H          6.64480       -2.33860       -2.71590
H          6.54980        3.87350       -1.88060
H         10.18130        1.51890       -4.51790
H         10.44260        4.90940       -4.90060
H         12.31490        4.11030       -3.18270
H         12.60760        6.68820       -3.59750
H         10.71160        7.96470       -2.24360
H          9.25120        6.17240       -0.99410
H         11.58880        4.94740       -0.77900
H         10.38740        3.76320       -1.34290
H          8.58050        6.15490       -3.57150
H          4.86260       -6.27010       -0.04710
H          4.41640       -7.10610        2.22670
H          2.56800       -3.94630        5.25070
H          4.25920       -3.79980        5.83400
H          3.12090       -4.88980        6.65240
H          4.06600       -3.07960        3.63110
H          4.52760       -2.25650        1.38810
H          7.32620       -4.65000       -0.02820
H          8.92710       -5.86520       -1.46190
H          8.19190       -5.26620       -5.96290
H          7.54630       -6.93670       -6.11750
H          9.25750       -6.60490       -6.46300
H          6.20310       -5.55990       -4.74660
H          4.63600       -4.33250       -3.33450
H          0.15160        1.86110       -3.55770
H          1.53840        3.83710       -3.92270
H          3.77480        4.47210       -4.66480
H          4.42900        6.07800       -4.26890
H          2.67110        5.83010       -4.27050
H          3.58450        3.08920       -0.24030
H          2.16050        1.11000        0.13420
H         -1.35820        2.13020       -1.11670
H         -3.80900        1.98000       -1.29920
H         -5.71340       -2.40920       -2.60050
H         -5.46280       -1.30890       -3.99460
H         -7.05070       -1.40440       -3.19580
H         -3.45870       -2.05850       -2.65040
H         -1.03390       -1.89750       -2.50580
H         -2.50860        3.25250        3.05840
H         -3.90500        2.18090        3.34160
H         -4.73040        2.53700        1.08720
H         -3.37110        3.60320        0.69920
H         -4.55660        4.08370        1.91940
H          0.89070        1.92210        2.23940
H         -0.34930        2.67670        3.25580
H         -1.11570        4.01430        1.25760
H          0.57730        4.31140        1.65420
H          0.16940        3.26600        0.29940
H         -9.40980       -2.53160        0.71980
H         -8.44190       -4.73540       -2.05790
H         -9.79800       -4.43340       -0.95850
H         -8.89990       -6.16390        0.60480
H         -7.53830       -6.44580       -0.48420
H         -9.17990       -6.84880       -0.99910
H         -9.28540       -0.74000        2.18780
H         -6.28430        3.81500        5.31450
H        -11.32440        3.32560        5.31600
H        -10.41420        6.41140        6.51070
H        -11.19000        5.44220        8.66850
H        -10.10700        3.06970        8.85300
H         -7.46710        3.35990        8.87890
H         -6.92290        5.91320        8.71160
H         -9.12310        6.15190       10.16480
H         -9.23510        7.28870        8.79780
H         -7.84970        6.69550        6.53590
