
  xtb     02082223533D
 energy: -427.575793161197 gnorm: 0.000311517082 xtb: 6.4.1 (unknown)
267290  0     0  0            999 V2000
    5.4663    1.4541    5.7239 C   0  0  0  0  0  0  0  0  0  0  0  0
    4.1738    1.3024    6.1666 C   0  0  0  0  0  0  0  0  0  0  0  0
    3.1678    0.5279    5.4131 C   0  0  0  0  0  0  0  0  0  0  0  0
    3.3481   -0.3427    4.5812 O   0  0  0  0  0  0  0  0  0  0  0  0
    1.8655    1.0960    5.7976 C   0  0  0  0  0  0  0  0  0  0  0  0
    0.6328    0.8013    5.2219 C   0  0  0  0  0  0  0  0  0  0  0  0
   -0.4107    1.5342    5.7330 C   0  0  0  0  0  0  0  0  0  0  0  0
   -0.2449    2.4734    6.7587 C   0  0  0  0  0  0  0  0  0  0  0  0
    0.9677    2.7693    7.3389 C   0  0  0  0  0  0  0  0  0  0  0  0
    2.0470    2.0521    6.8155 C   0  0  0  0  0  0  0  0  0  0  0  0
    3.4765    2.1444    7.1046 C   0  0  0  0  0  0  0  0  0  0  0  0
    4.0643    2.8710    8.1098 C   0  0  0  0  0  0  0  0  0  0  0  0
    3.3643    3.6862    9.0190 C   0  0  0  0  0  0  0  0  0  0  0  0
    2.8478    4.3780    9.7766 N   0  0  0  0  0  0  0  0  0  0  0  0
    5.4459    2.8504    8.3701 C   0  0  0  0  0  0  0  0  0  0  0  0
    6.5603    2.8569    8.6535 N   0  0  0  0  0  0  0  0  0  0  0  0
   -1.7086    2.8420    6.7623 C   0  0  0  0  0  0  0  0  0  0  0  0
   -2.5789    2.2477    7.8902 C   0  0  0  0  0  0  0  0  0  0  0  0
   -3.9897    2.3897    7.3652 C   0  0  0  0  0  0  0  0  0  0  0  0
   -4.1452    1.5136    6.3810 C   0  0  0  0  0  0  0  0  0  0  0  0
   -2.8433    0.7625    6.2263 C   0  0  0  0  0  0  0  0  0  0  0  0
   -2.3720    0.7413    7.6860 C   0  0  0  0  0  0  0  0  0  0  0  0
   -1.8886    1.8036    5.6088 C   0  0  0  0  0  0  0  0  0  0  0  0
    6.0243    0.6391    4.7190 C   0  0  0  0  0  0  0  0  0  0  0  0
    5.8554   -0.7344    4.4570 C   0  0  0  0  0  0  0  0  0  0  0  0
    5.7384   -1.6813    5.4215 N   0  0  0  0  0  0  0  0  0  0  0  0
    5.8846   -3.0548    5.1709 C   0  0  0  0  0  0  0  0  0  0  0  0
    5.2008   -3.9915    5.9472 C   0  0  0  0  0  0  0  0  0  0  0  0
    5.3394   -5.3394    5.7008 C   0  0  0  0  0  0  0  0  0  0  0  0
    6.1585   -5.7923    4.6700 C   0  0  0  0  0  0  0  0  0  0  0  0
    6.2404   -7.5355    4.4012 S   0  0  0  0  0  0  0  0  0  0  0  0
    6.7300   -7.6483    2.6562 C   0  0  0  0  0  0  0  0  0  0  0  0
    6.8927   -4.8704    3.9377 C   0  0  0  0  0  0  0  0  0  0  0  0
    6.7674   -3.5196    4.1966 C   0  0  0  0  0  0  0  0  0  0  0  0
    5.6029   -1.2554    6.7774 C   0  0  0  0  0  0  0  0  0  0  0  0
    6.7178   -0.7679    7.4441 C   0  0  0  0  0  0  0  0  0  0  0  0
    6.6134   -0.2915    8.7367 C   0  0  0  0  0  0  0  0  0  0  0  0
    5.3793   -0.2924    9.3757 C   0  0  0  0  0  0  0  0  0  0  0  0
    5.1063    0.3434   10.9929 S   0  0  0  0  0  0  0  0  0  0  0  0
    6.6856    1.1178   11.4326 C   0  0  0  0  0  0  0  0  0  0  0  0
    4.2665   -0.8138    8.7177 C   0  0  0  0  0  0  0  0  0  0  0  0
    4.3746   -1.2908    7.4283 C   0  0  0  0  0  0  0  0  0  0  0  0
    5.8241   -0.9644    3.0577 C   0  0  0  0  0  0  0  0  0  0  0  0
    5.1206   -2.2321    2.1056 S   0  0  0  0  0  0  0  0  0  0  0  0
    4.8211   -1.1164    0.7767 C   0  0  0  0  0  0  0  0  0  0  0  0
    5.3814    0.1224    1.0108 C   0  0  0  0  0  0  0  0  0  0  0  0
    5.0835    1.2994    0.2804 N   0  0  0  0  0  0  0  0  0  0  0  0
    6.1058    1.9159   -0.4407 C   0  0  0  0  0  0  0  0  0  0  0  0
    5.8161    3.0197   -1.2418 C   0  0  0  0  0  0  0  0  0  0  0  0
    6.8032    3.6248   -1.9923 C   0  0  0  0  0  0  0  0  0  0  0  0
    8.1030    3.1408   -1.9507 C   0  0  0  0  0  0  0  0  0  0  0  0
    9.4276    3.8288   -2.9072 S   0  0  0  0  0  0  0  0  0  0  0  0
    8.8746    5.5287   -3.2225 C   0  0  0  0  0  0  0  0  0  0  0  0
    8.3962    2.0314   -1.1659 C   0  0  0  0  0  0  0  0  0  0  0  0
    7.4097    1.4224   -0.4226 C   0  0  0  0  0  0  0  0  0  0  0  0
    4.1475    2.0798    1.0100 C   0  0  0  0  0  0  0  0  0  0  0  0
    4.4573    3.3453    1.4998 C   0  0  0  0  0  0  0  0  0  0  0  0
    3.5916    4.0025    2.3526 C   0  0  0  0  0  0  0  0  0  0  0  0
    2.4011    3.4024    2.7387 C   0  0  0  0  0  0  0  0  0  0  0  0
    1.2757    4.1367    3.8914 S   0  0  0  0  0  0  0  0  0  0  0  0
    2.3800    5.1415    4.9274 C   0  0  0  0  0  0  0  0  0  0  0  0
    2.0581    2.1645    2.2069 C   0  0  0  0  0  0  0  0  0  0  0  0
    2.9223    1.5098    1.3569 C   0  0  0  0  0  0  0  0  0  0  0  0
    5.9687    0.1848    2.2944 C   0  0  0  0  0  0  0  0  0  0  0  0
    6.4745    1.5373    3.2416 S   0  0  0  0  0  0  0  0  0  0  0  0
    3.7640   -1.4683   -0.1173 C   0  0  0  0  0  0  0  0  0  0  0  0
    3.3740   -0.9841   -1.3601 C   0  0  0  0  0  0  0  0  0  0  0  0
    4.1166   -0.2341   -2.2511 N   0  0  0  0  0  0  0  0  0  0  0  0
    5.4727   -0.4277   -2.5076 C   0  0  0  0  0  0  0  0  0  0  0  0
    6.1705    0.5039   -3.2763 C   0  0  0  0  0  0  0  0  0  0  0  0
    7.5119    0.3419   -3.5545 C   0  0  0  0  0  0  0  0  0  0  0  0
    8.2007   -0.7515   -3.0499 C   0  0  0  0  0  0  0  0  0  0  0  0
    9.9268   -1.0317   -3.2856 S   0  0  0  0  0  0  0  0  0  0  0  0
   10.4739    0.3867   -4.2750 C   0  0  0  0  0  0  0  0  0  0  0  0
    7.5078   -1.6965   -2.2982 C   0  0  0  0  0  0  0  0  0  0  0  0
    6.1637   -1.5463   -2.0392 C   0  0  0  0  0  0  0  0  0  0  0  0
    3.3627    0.6730   -3.0343 C   0  0  0  0  0  0  0  0  0  0  0  0
    3.3437    0.5907   -4.4212 C   0  0  0  0  0  0  0  0  0  0  0  0
    2.5285    1.4240   -5.1617 C   0  0  0  0  0  0  0  0  0  0  0  0
    1.7105    2.3467   -4.5238 C   0  0  0  0  0  0  0  0  0  0  0  0
    0.5868    3.4126   -5.3646 S   0  0  0  0  0  0  0  0  0  0  0  0
    0.6906    2.8841   -7.0978 C   0  0  0  0  0  0  0  0  0  0  0  0
    1.7534    2.4547   -3.1346 C   0  0  0  0  0  0  0  0  0  0  0  0
    2.5715    1.6280   -2.3971 C   0  0  0  0  0  0  0  0  0  0  0  0
    2.0206   -1.3434   -1.6245 C   0  0  0  0  0  0  0  0  0  0  0  0
    0.8742   -0.9661   -2.8683 S   0  0  0  0  0  0  0  0  0  0  0  0
   -0.4218   -1.7180   -1.9452 C   0  0  0  0  0  0  0  0  0  0  0  0
    0.0277   -2.2762   -0.7584 C   0  0  0  0  0  0  0  0  0  0  0  0
   -0.7096   -2.9440    0.2187 N   0  0  0  0  0  0  0  0  0  0  0  0
   -0.0470   -4.0514    0.7845 C   0  0  0  0  0  0  0  0  0  0  0  0
    0.1031   -4.2016    2.1592 C   0  0  0  0  0  0  0  0  0  0  0  0
    0.8585   -5.2368    2.6749 C   0  0  0  0  0  0  0  0  0  0  0  0
    1.4845   -6.1361    1.8223 C   0  0  0  0  0  0  0  0  0  0  0  0
    2.5358   -7.4451    2.3610 S   0  0  0  0  0  0  0  0  0  0  0  0
    2.6373   -7.2128    4.1562 C   0  0  0  0  0  0  0  0  0  0  0  0
    1.3019   -6.0130    0.4456 C   0  0  0  0  0  0  0  0  0  0  0  0
    0.5434   -4.9864   -0.0676 C   0  0  0  0  0  0  0  0  0  0  0  0
   -1.7345   -2.3020    0.9187 C   0  0  0  0  0  0  0  0  0  0  0  0
   -2.7128   -3.0599    1.5616 C   0  0  0  0  0  0  0  0  0  0  0  0
   -3.7416   -2.4487    2.2514 C   0  0  0  0  0  0  0  0  0  0  0  0
   -3.8137   -1.0628    2.3128 C   0  0  0  0  0  0  0  0  0  0  0  0
   -5.0875   -0.1776    3.1547 S   0  0  0  0  0  0  0  0  0  0  0  0
   -5.8737   -1.4442    4.1934 C   0  0  0  0  0  0  0  0  0  0  0  0
   -2.8413   -0.3010    1.6687 C   0  0  0  0  0  0  0  0  0  0  0  0
   -1.8127   -0.9088    0.9830 C   0  0  0  0  0  0  0  0  0  0  0  0
    1.4204   -2.0802   -0.6184 C   0  0  0  0  0  0  0  0  0  0  0  0
    2.5163   -2.4510    0.6554 S   0  0  0  0  0  0  0  0  0  0  0  0
   -1.7328   -1.5591   -2.4727 C   0  0  0  0  0  0  0  0  0  0  0  0
   -2.9793   -1.6691   -1.9087 C   0  0  0  0  0  0  0  0  0  0  0  0
   -3.9056   -1.2091   -2.8728 C   0  0  0  0  0  0  0  0  0  0  0  0
   -5.2950   -0.9759   -2.8431 C   0  0  0  0  0  0  0  0  0  0  0  0
   -6.1513   -1.2060   -1.7113 C   0  0  0  0  0  0  0  0  0  0  0  0
   -5.9723   -2.0083   -0.6096 C   0  0  0  0  0  0  0  0  0  0  0  0
   -7.0335   -1.9270    0.3020 C   0  0  0  0  0  0  0  0  0  0  0  0
   -8.0296   -1.0662   -0.0697 C   0  0  0  0  0  0  0  0  0  0  0  0
   -9.6616   -0.6353    0.7736 Si  0  0  0  0  0  4  0  0  0  0  0  0
  -11.0122   -1.7981    0.0730 C   0  0  0  0  0  0  0  0  0  0  0  0
  -11.0352   -1.8281   -1.4533 C   0  0  0  0  0  0  0  0  0  0  0  0
  -10.0347    1.1971    0.3704 C   0  0  0  0  0  0  0  0  0  0  0  0
  -11.5117    1.5730    0.4489 C   0  0  0  0  0  0  0  0  0  0  0  0
   -9.4007   -0.9326    2.6466 C   0  0  0  0  0  0  0  0  0  0  0  0
  -10.5966   -0.5282    3.4991 C   0  0  0  0  0  0  0  0  0  0  0  0
   -7.6677   -0.3615   -1.6004 S   0  0  0  0  0  0  0  0  0  0  0  0
   -5.7869   -0.4250   -4.0244 C   0  0  0  0  0  0  0  0  0  0  0  0
   -5.0173   -0.1351   -5.1858 C   0  0  0  0  0  0  0  0  0  0  0  0
   -3.6181   -0.3567   -5.2027 C   0  0  0  0  0  0  0  0  0  0  0  0
   -2.7669   -0.1055   -6.3320 C   0  0  0  0  0  0  0  0  0  0  0  0
   -2.9370    0.7572   -7.3877 C   0  0  0  0  0  0  0  0  0  0  0  0
   -1.9125    0.6649   -8.3385 C   0  0  0  0  0  0  0  0  0  0  0  0
   -0.9457   -0.2602   -8.0391 C   0  0  0  0  0  0  0  0  0  0  0  0
    0.4582   -0.8963   -9.1294 Si  0  0  0  0  0  4  0  0  0  0  0  0
    0.6889    0.3151  -10.5931 C   0  0  0  0  0  0  0  0  0  0  0  0
   -0.3337    0.1325  -11.7093 C   0  0  0  0  0  0  0  0  0  0  0  0
    2.1210   -1.0186   -8.1889 C   0  0  0  0  0  0  0  0  0  0  0  0
    2.0478   -1.8242   -6.8970 C   0  0  0  0  0  0  0  0  0  0  0  0
   -0.0805   -2.6404   -9.7103 C   0  0  0  0  0  0  0  0  0  0  0  0
    0.9770   -3.3713  -10.5324 C   0  0  0  0  0  0  0  0  0  0  0  0
   -1.2939   -1.0121   -6.5190 S   0  0  0  0  0  0  0  0  0  0  0  0
   -3.1261   -0.8797   -4.0129 C   0  0  0  0  0  0  0  0  0  0  0  0
   -1.8167   -1.1011   -3.7526 O   0  0  0  0  0  0  0  0  0  0  0  0
   -5.9404    0.3465   -6.1322 C   0  0  0  0  0  0  0  0  0  0  0  0
   -7.1840    0.3510   -5.5213 C   0  0  0  0  0  0  0  0  0  0  0  0
   -7.0771   -0.1198   -4.2394 O   0  0  0  0  0  0  0  0  0  0  0  0
   -8.4908    0.7242   -5.8876 C   0  0  0  0  0  0  0  0  0  0  0  0
   -9.0021    1.2208   -7.0561 C   0  0  0  0  0  0  0  0  0  0  0  0
   -8.2860    1.4840   -8.3224 C   0  0  0  0  0  0  0  0  0  0  0  0
   -7.1023    1.3695   -8.5667 O   0  0  0  0  0  0  0  0  0  0  0  0
   -9.3194    1.9340   -9.2776 C   0  0  0  0  0  0  0  0  0  0  0  0
   -9.1673    2.2830  -10.6059 C   0  0  0  0  0  0  0  0  0  0  0  0
  -10.2883    2.6725  -11.3211 C   0  0  0  0  0  0  0  0  0  0  0  0
  -11.5245    2.7013  -10.6897 C   0  0  0  0  0  0  0  0  0  0  0  0
  -13.0498    3.2340  -11.6904 Br  0  0  0  0  0  0  0  0  0  0  0  0
  -11.6939    2.3557   -9.3543 C   0  0  0  0  0  0  0  0  0  0  0  0
  -10.5712    1.9681   -8.6414 C   0  0  0  0  0  0  0  0  0  0  0  0
  -10.4020    1.5539   -7.2473 C   0  0  0  0  0  0  0  0  0  0  0  0
  -11.4053    1.5256   -6.3130 C   0  0  0  0  0  0  0  0  0  0  0  0
  -12.7469    1.8699   -6.5862 C   0  0  0  0  0  0  0  0  0  0  0  0
  -13.8541    2.1330   -6.7367 N   0  0  0  0  0  0  0  0  0  0  0  0
  -11.2839    1.1774   -4.9501 C   0  0  0  0  0  0  0  0  0  0  0  0
  -11.3013    0.9275   -3.8288 N   0  0  0  0  0  0  0  0  0  0  0  0
    6.0037    2.3639    5.9702 H   0  0  0  0  0  0  0  0  0  0  0  0
    0.5491    0.0671    4.4353 H   0  0  0  0  0  0  0  0  0  0  0  0
    1.0870    3.5090    8.1140 H   0  0  0  0  0  0  0  0  0  0  0  0
   -1.9306    3.8876    6.5588 H   0  0  0  0  0  0  0  0  0  0  0  0
   -2.3808    2.6506    8.8798 H   0  0  0  0  0  0  0  0  0  0  0  0
   -4.6867    3.1294    7.7129 H   0  0  0  0  0  0  0  0  0  0  0  0
   -4.9911    1.3800    5.7330 H   0  0  0  0  0  0  0  0  0  0  0  0
   -2.8850   -0.1844    5.6946 H   0  0  0  0  0  0  0  0  0  0  0  0
   -1.3413    0.4152    7.8145 H   0  0  0  0  0  0  0  0  0  0  0  0
   -3.0250    0.1470    8.3236 H   0  0  0  0  0  0  0  0  0  0  0  0
   -2.2195    2.1608    4.6359 H   0  0  0  0  0  0  0  0  0  0  0  0
    4.5560   -3.6670    6.7472 H   0  0  0  0  0  0  0  0  0  0  0  0
    4.8079   -6.0585    6.3054 H   0  0  0  0  0  0  0  0  0  0  0  0
    6.5262   -8.6716    2.3573 H   0  0  0  0  0  0  0  0  0  0  0  0
    7.7894   -7.4368    2.5436 H   0  0  0  0  0  0  0  0  0  0  0  0
    6.1237   -6.9632    2.0722 H   0  0  0  0  0  0  0  0  0  0  0  0
    7.5817   -5.1931    3.1738 H   0  0  0  0  0  0  0  0  0  0  0  0
    7.3888   -2.8258    3.6521 H   0  0  0  0  0  0  0  0  0  0  0  0
    7.6742   -0.7514    6.9429 H   0  0  0  0  0  0  0  0  0  0  0  0
    7.4935    0.0883    9.2269 H   0  0  0  0  0  0  0  0  0  0  0  0
    6.9553    1.8425   10.6682 H   0  0  0  0  0  0  0  0  0  0  0  0
    6.5084    1.6214   12.3778 H   0  0  0  0  0  0  0  0  0  0  0  0
    7.4517    0.3579   11.5564 H   0  0  0  0  0  0  0  0  0  0  0  0
    3.3143   -0.8250    9.2266 H   0  0  0  0  0  0  0  0  0  0  0  0
    3.5013   -1.6649    6.9160 H   0  0  0  0  0  0  0  0  0  0  0  0
    4.8046    3.3958   -1.2854 H   0  0  0  0  0  0  0  0  0  0  0  0
    6.5441    4.4683   -2.6130 H   0  0  0  0  0  0  0  0  0  0  0  0
    9.7484    6.0644   -3.5801 H   0  0  0  0  0  0  0  0  0  0  0  0
    8.1000    5.5406   -3.9842 H   0  0  0  0  0  0  0  0  0  0  0  0
    8.5204    5.9684   -2.2951 H   0  0  0  0  0  0  0  0  0  0  0  0
    9.4063    1.6526   -1.1378 H   0  0  0  0  0  0  0  0  0  0  0  0
    7.6531    0.5558    0.1724 H   0  0  0  0  0  0  0  0  0  0  0  0
    5.4004    3.8036    1.2426 H   0  0  0  0  0  0  0  0  0  0  0  0
    3.8683    4.9737    2.7315 H   0  0  0  0  0  0  0  0  0  0  0  0
    3.2706    4.5657    5.1618 H   0  0  0  0  0  0  0  0  0  0  0  0
    1.8256    5.3571    5.8354 H   0  0  0  0  0  0  0  0  0  0  0  0
    2.6362    6.0696    4.4246 H   0  0  0  0  0  0  0  0  0  0  0  0
    1.1197    1.7121    2.4865 H   0  0  0  0  0  0  0  0  0  0  0  0
    2.6610    0.5306    0.9893 H   0  0  0  0  0  0  0  0  0  0  0  0
    5.6627    1.3775   -3.6532 H   0  0  0  0  0  0  0  0  0  0  0  0
    8.0093    1.0857   -4.1546 H   0  0  0  0  0  0  0  0  0  0  0  0
   10.2853    1.3139   -3.7410 H   0  0  0  0  0  0  0  0  0  0  0  0
   11.5422    0.2506   -4.4117 H   0  0  0  0  0  0  0  0  0  0  0  0
    9.9755    0.3787   -5.2399 H   0  0  0  0  0  0  0  0  0  0  0  0
    8.0375   -2.5588   -1.9226 H   0  0  0  0  0  0  0  0  0  0  0  0
    5.6488   -2.3116   -1.4807 H   0  0  0  0  0  0  0  0  0  0  0  0
    3.9600   -0.1413   -4.9204 H   0  0  0  0  0  0  0  0  0  0  0  0
    2.5263    1.3317   -6.2343 H   0  0  0  0  0  0  0  0  0  0  0  0
   -0.0517    3.4760   -7.6243 H   0  0  0  0  0  0  0  0  0  0  0  0
    1.6786    3.0961   -7.4962 H   0  0  0  0  0  0  0  0  0  0  0  0
    0.4442    1.8293   -7.1828 H   0  0  0  0  0  0  0  0  0  0  0  0
    1.1296    3.1857   -2.6435 H   0  0  0  0  0  0  0  0  0  0  0  0
    2.5903    1.7023   -1.3200 H   0  0  0  0  0  0  0  0  0  0  0  0
   -0.3487   -3.4859    2.8297 H   0  0  0  0  0  0  0  0  0  0  0  0
    0.9696   -5.3129    3.7442 H   0  0  0  0  0  0  0  0  0  0  0  0
    3.3499   -7.9534    4.5063 H   0  0  0  0  0  0  0  0  0  0  0  0
    1.6662   -7.3874    4.6106 H   0  0  0  0  0  0  0  0  0  0  0  0
    3.0082   -6.2154    4.3748 H   0  0  0  0  0  0  0  0  0  0  0  0
    1.7724   -6.7271   -0.2126 H   0  0  0  0  0  0  0  0  0  0  0  0
    0.4162   -4.8846   -1.1353 H   0  0  0  0  0  0  0  0  0  0  0  0
   -2.6667   -4.1378    1.5093 H   0  0  0  0  0  0  0  0  0  0  0  0
   -4.4869   -3.0661    2.7264 H   0  0  0  0  0  0  0  0  0  0  0  0
   -6.4399   -2.1379    3.5794 H   0  0  0  0  0  0  0  0  0  0  0  0
   -6.5502   -0.9092    4.8526 H   0  0  0  0  0  0  0  0  0  0  0  0
   -5.1187   -1.9593    4.7798 H   0  0  0  0  0  0  0  0  0  0  0  0
   -2.8989    0.7754    1.7193 H   0  0  0  0  0  0  0  0  0  0  0  0
   -1.0605   -0.3076    0.4951 H   0  0  0  0  0  0  0  0  0  0  0  0
   -3.1945   -1.9908   -0.9160 H   0  0  0  0  0  0  0  0  0  0  0  0
   -5.1284   -2.6589   -0.4733 H   0  0  0  0  0  0  0  0  0  0  0  0
   -7.0716   -2.4949    1.2146 H   0  0  0  0  0  0  0  0  0  0  0  0
  -10.8592   -2.8136    0.4445 H   0  0  0  0  0  0  0  0  0  0  0  0
  -11.9907   -1.4818    0.4361 H   0  0  0  0  0  0  0  0  0  0  0  0
  -11.8325   -2.4762   -1.8136 H   0  0  0  0  0  0  0  0  0  0  0  0
  -11.1927   -0.8344   -1.8628 H   0  0  0  0  0  0  0  0  0  0  0  0
  -10.0910   -2.2037   -1.8409 H   0  0  0  0  0  0  0  0  0  0  0  0
   -9.4661    1.8436    1.0421 H   0  0  0  0  0  0  0  0  0  0  0  0
   -9.6790    1.4134   -0.6382 H   0  0  0  0  0  0  0  0  0  0  0  0
  -11.9195    1.3630    1.4347 H   0  0  0  0  0  0  0  0  0  0  0  0
  -12.0866    1.0152   -0.2847 H   0  0  0  0  0  0  0  0  0  0  0  0
  -11.6465    2.6339    0.2445 H   0  0  0  0  0  0  0  0  0  0  0  0
   -8.5247   -0.3750    2.9799 H   0  0  0  0  0  0  0  0  0  0  0  0
   -9.1865   -1.9876    2.8235 H   0  0  0  0  0  0  0  0  0  0  0  0
  -11.4889   -1.0653    3.1874 H   0  0  0  0  0  0  0  0  0  0  0  0
  -10.4186   -0.7474    4.5511 H   0  0  0  0  0  0  0  0  0  0  0  0
  -10.7881    0.5371    3.4050 H   0  0  0  0  0  0  0  0  0  0  0  0
   -3.7558    1.4479   -7.4645 H   0  0  0  0  0  0  0  0  0  0  0  0
   -1.8830    1.2663   -9.2293 H   0  0  0  0  0  0  0  0  0  0  0  0
    0.6400    1.3437  -10.2323 H   0  0  0  0  0  0  0  0  0  0  0  0
    1.6874    0.1868  -11.0121 H   0  0  0  0  0  0  0  0  0  0  0  0
   -1.3467    0.2339  -11.3290 H   0  0  0  0  0  0  0  0  0  0  0  0
   -0.1872    0.8740  -12.4930 H   0  0  0  0  0  0  0  0  0  0  0  0
   -0.2405   -0.8535  -12.1561 H   0  0  0  0  0  0  0  0  0  0  0  0
    2.8538   -1.4824   -8.8513 H   0  0  0  0  0  0  0  0  0  0  0  0
    2.5085   -0.0226   -7.9704 H   0  0  0  0  0  0  0  0  0  0  0  0
    3.0362   -1.9383   -6.4549 H   0  0  0  0  0  0  0  0  0  0  0  0
    1.6471   -2.8162   -7.0870 H   0  0  0  0  0  0  0  0  0  0  0  0
    1.4062   -1.3348   -6.1684 H   0  0  0  0  0  0  0  0  0  0  0  0
   -0.3343   -3.2470   -8.8391 H   0  0  0  0  0  0  0  0  0  0  0  0
   -0.9953   -2.5589  -10.2995 H   0  0  0  0  0  0  0  0  0  0  0  0
    1.2520   -2.7927  -11.4110 H   0  0  0  0  0  0  0  0  0  0  0  0
    0.6054   -4.3388  -10.8657 H   0  0  0  0  0  0  0  0  0  0  0  0
    1.8747   -3.5392   -9.9430 H   0  0  0  0  0  0  0  0  0  0  0  0
   -5.7565    0.6411   -7.1432 H   0  0  0  0  0  0  0  0  0  0  0  0
   -9.1852    0.5720   -5.0699 H   0  0  0  0  0  0  0  0  0  0  0  0
   -8.1926    2.2486  -11.0673 H   0  0  0  0  0  0  0  0  0  0  0  0
  -10.2101    2.9516  -12.3604 H   0  0  0  0  0  0  0  0  0  0  0  0
  -12.6749    2.3935   -8.9101 H   0  0  0  0  0  0  0  0  0  0  0  0
  1  2  2  0  0  0  0
  2  3  1  0  0  0  0
  3  4  2  0  0  0  0
  3  5  1  0  0  0  0
  5  6  2  0  0  0  0
  6  7  1  0  0  0  0
  7  8  2  0  0  0  0
  8  9  1  0  0  0  0
  9 10  2  0  0  0  0
 10 11  1  0  0  0  0
 11 12  2  0  0  0  0
 12 13  1  0  0  0  0
 13 14  3  0  0  0  0
 12 15  1  0  0  0  0
 15 16  3  0  0  0  0
  8 17  1  0  0  0  0
 17 18  1  0  0  0  0
 18 19  1  0  0  0  0
 19 20  2  0  0  0  0
 20 21  1  0  0  0  0
 21 22  1  0  0  0  0
 21 23  1  0  0  0  0
  1 24  1  0  0  0  0
 24 25  2  0  0  0  0
 25 26  1  0  0  0  0
 26 27  1  0  0  0  0
 27 28  2  0  0  0  0
 28 29  1  0  0  0  0
 29 30  2  0  0  0  0
 30 31  1  0  0  0  0
 31 32  1  0  0  0  0
 30 33  1  0  0  0  0
 33 34  2  0  0  0  0
 26 35  1  0  0  0  0
 35 36  2  0  0  0  0
 36 37  1  0  0  0  0
 37 38  2  0  0  0  0
 38 39  1  0  0  0  0
 39 40  1  0  0  0  0
 38 41  1  0  0  0  0
 41 42  2  0  0  0  0
 25 43  1  0  0  0  0
 43 44  1  0  0  0  0
 44 45  1  0  0  0  0
 45 46  2  0  0  0  0
 46 47  1  0  0  0  0
 47 48  1  0  0  0  0
 48 49  2  0  0  0  0
 49 50  1  0  0  0  0
 50 51  2  0  0  0  0
 51 52  1  0  0  0  0
 52 53  1  0  0  0  0
 51 54  1  0  0  0  0
 54 55  2  0  0  0  0
 47 56  1  0  0  0  0
 56 57  2  0  0  0  0
 57 58  1  0  0  0  0
 58 59  2  0  0  0  0
 59 60  1  0  0  0  0
 60 61  1  0  0  0  0
 59 62  1  0  0  0  0
 62 63  2  0  0  0  0
 46 64  1  0  0  0  0
 64 65  1  0  0  0  0
 45 66  1  0  0  0  0
 66 67  2  0  0  0  0
 67 68  1  0  0  0  0
 68 69  1  0  0  0  0
 69 70  2  0  0  0  0
 70 71  1  0  0  0  0
 71 72  2  0  0  0  0
 72 73  1  0  0  0  0
 73 74  1  0  0  0  0
 72 75  1  0  0  0  0
 75 76  2  0  0  0  0
 68 77  1  0  0  0  0
 77 78  2  0  0  0  0
 78 79  1  0  0  0  0
 79 80  2  0  0  0  0
 80 81  1  0  0  0  0
 81 82  1  0  0  0  0
 80 83  1  0  0  0  0
 83 84  2  0  0  0  0
 67 85  1  0  0  0  0
 85 86  1  0  0  0  0
 86 87  1  0  0  0  0
 87 88  2  0  0  0  0
 88 89  1  0  0  0  0
 89 90  1  0  0  0  0
 90 91  2  0  0  0  0
 91 92  1  0  0  0  0
 92 93  2  0  0  0  0
 93 94  1  0  0  0  0
 94 95  1  0  0  0  0
 93 96  1  0  0  0  0
 96 97  2  0  0  0  0
 89 98  1  0  0  0  0
 98 99  2  0  0  0  0
 99100  1  0  0  0  0
100101  2  0  0  0  0
101102  1  0  0  0  0
102103  1  0  0  0  0
101104  1  0  0  0  0
104105  2  0  0  0  0
 88106  1  0  0  0  0
106107  1  0  0  0  0
 87108  1  0  0  0  0
108109  2  0  0  0  0
109110  1  0  0  0  0
110111  2  0  0  0  0
111112  1  0  0  0  0
112113  2  0  0  0  0
113114  1  0  0  0  0
114115  2  0  0  0  0
115116  1  0  0  0  0
116117  1  0  0  0  0
117118  1  0  0  0  0
116119  1  0  0  0  0
119120  1  0  0  0  0
116121  1  0  0  0  0
121122  1  0  0  0  0
115123  1  0  0  0  0
111124  1  0  0  0  0
124125  2  0  0  0  0
125126  1  0  0  0  0
126127  1  0  0  0  0
127128  2  0  0  0  0
128129  1  0  0  0  0
129130  2  0  0  0  0
130131  1  0  0  0  0
131132  1  0  0  0  0
132133  1  0  0  0  0
131134  1  0  0  0  0
134135  1  0  0  0  0
131136  1  0  0  0  0
136137  1  0  0  0  0
130138  1  0  0  0  0
126139  2  0  0  0  0
139140  1  0  0  0  0
125141  1  0  0  0  0
141142  2  0  0  0  0
142143  1  0  0  0  0
142144  1  0  0  0  0
144145  2  0  0  0  0
145146  1  0  0  0  0
146147  2  0  0  0  0
146148  1  0  0  0  0
148149  2  0  0  0  0
149150  1  0  0  0  0
150151  2  0  0  0  0
151152  1  0  0  0  0
151153  1  0  0  0  0
153154  2  0  0  0  0
154155  1  0  0  0  0
155156  2  0  0  0  0
156157  1  0  0  0  0
157158  3  0  0  0  0
156159  1  0  0  0  0
159160  3  0  0  0  0
 11  2  1  0  0  0  0
 23 17  1  0  0  0  0
 65 24  1  0  0  0  0
107 66  1  0  0  0  0
140108  1  0  0  0  0
155145  1  0  0  0  0
 10  5  1  0  0  0  0
 22 18  1  0  0  0  0
 34 27  1  0  0  0  0
 42 35  1  0  0  0  0
 64 43  2  0  0  0  0
 76 69  1  0  0  0  0
 84 77  1  0  0  0  0
106 85  2  0  0  0  0
139110  1  0  0  0  0
154148  1  0  0  0  0
 23  7  1  0  0  0  0
 55 48  1  0  0  0  0
 63 56  1  0  0  0  0
 97 90  1  0  0  0  0
105 98  1  0  0  0  0
123112  1  0  0  0  0
143124  1  0  0  0  0
138127  1  0  0  0  0
  1161  1  0  0  0  0
  6162  1  0  0  0  0
  9163  1  0  0  0  0
 17164  1  0  0  0  0
 18165  1  0  0  0  0
 19166  1  0  0  0  0
 20167  1  0  0  0  0
 21168  1  0  0  0  0
 22169  1  0  0  0  0
 22170  1  0  0  0  0
 23171  1  0  0  0  0
 28172  1  0  0  0  0
 29173  1  0  0  0  0
 32174  1  0  0  0  0
 32175  1  0  0  0  0
 32176  1  0  0  0  0
 33177  1  0  0  0  0
 34178  1  0  0  0  0
 36179  1  0  0  0  0
 37180  1  0  0  0  0
 40181  1  0  0  0  0
 40182  1  0  0  0  0
 40183  1  0  0  0  0
 41184  1  0  0  0  0
 42185  1  0  0  0  0
 49186  1  0  0  0  0
 50187  1  0  0  0  0
 53188  1  0  0  0  0
 53189  1  0  0  0  0
 53190  1  0  0  0  0
 54191  1  0  0  0  0
 55192  1  0  0  0  0
 57193  1  0  0  0  0
 58194  1  0  0  0  0
 61195  1  0  0  0  0
 61196  1  0  0  0  0
 61197  1  0  0  0  0
 62198  1  0  0  0  0
 63199  1  0  0  0  0
 70200  1  0  0  0  0
 71201  1  0  0  0  0
 74202  1  0  0  0  0
 74203  1  0  0  0  0
 74204  1  0  0  0  0
 75205  1  0  0  0  0
 76206  1  0  0  0  0
 78207  1  0  0  0  0
 79208  1  0  0  0  0
 82209  1  0  0  0  0
 82210  1  0  0  0  0
 82211  1  0  0  0  0
 83212  1  0  0  0  0
 84213  1  0  0  0  0
 91214  1  0  0  0  0
 92215  1  0  0  0  0
 95216  1  0  0  0  0
 95217  1  0  0  0  0
 95218  1  0  0  0  0
 96219  1  0  0  0  0
 97220  1  0  0  0  0
 99221  1  0  0  0  0
100222  1  0  0  0  0
103223  1  0  0  0  0
103224  1  0  0  0  0
103225  1  0  0  0  0
104226  1  0  0  0  0
105227  1  0  0  0  0
109228  1  0  0  0  0
113229  1  0  0  0  0
114230  1  0  0  0  0
117231  1  0  0  0  0
117232  1  0  0  0  0
118233  1  0  0  0  0
118234  1  0  0  0  0
118235  1  0  0  0  0
119236  1  0  0  0  0
119237  1  0  0  0  0
120238  1  0  0  0  0
120239  1  0  0  0  0
120240  1  0  0  0  0
121241  1  0  0  0  0
121242  1  0  0  0  0
122243  1  0  0  0  0
122244  1  0  0  0  0
122245  1  0  0  0  0
128246  1  0  0  0  0
129247  1  0  0  0  0
132248  1  0  0  0  0
132249  1  0  0  0  0
133250  1  0  0  0  0
133251  1  0  0  0  0
133252  1  0  0  0  0
134253  1  0  0  0  0
134254  1  0  0  0  0
135255  1  0  0  0  0
135256  1  0  0  0  0
135257  1  0  0  0  0
136258  1  0  0  0  0
136259  1  0  0  0  0
137260  1  0  0  0  0
137261  1  0  0  0  0
137262  1  0  0  0  0
141263  1  0  0  0  0
144264  1  0  0  0  0
149265  1  0  0  0  0
150266  1  0  0  0  0
153267  1  0  0  0  0
M  END
