242

C         -8.80790       -5.03630       -5.77330
C         -8.29840       -6.02960       -6.58240
C         -7.00440       -5.93350       -7.27380
O         -6.19050       -5.02980       -7.20630
C         -6.93970       -7.10320       -8.17440
C         -5.90780       -7.42970       -9.04940
C         -6.11440       -8.59520       -9.74890
C         -7.26870       -9.37210       -9.59710
C         -8.30510       -9.04850       -8.75140
C         -8.10840       -7.87250       -8.02270
C         -8.95550       -7.23210       -7.01640
C        -10.08900       -7.77170       -6.45920
C        -10.79180       -7.18190       -5.39010
N        -11.38980       -6.76570       -4.50210
C        -10.64610       -9.00790       -6.83570
N        -11.13620      -10.01140       -7.10530
C         -6.80020      -10.40740      -10.59000
C         -6.23530      -11.71910      -10.00340
C         -5.44500      -12.31250      -11.14750
C         -4.35680      -11.57160      -11.31350
C         -4.39110      -10.46720      -10.28220
C         -5.08440      -11.20360       -9.12940
C         -5.51780       -9.53310      -10.77090
C         -8.04640       -4.09240       -5.07620
C         -6.71860       -4.14580       -4.60980
N         -5.89490       -5.23670       -4.59260
C         -4.50240       -5.02720       -4.49600
C         -3.85810       -4.16540       -5.38250
C         -2.52080       -3.88290       -5.21580
C         -1.80640       -4.45190       -4.16270
S         -0.12440       -3.94610       -3.98750
C          0.35260       -4.58750       -2.35660
C         -2.43130       -5.36400       -3.32240
C         -3.77240       -5.65100       -3.49120
C         -6.38040       -6.54810       -4.56580
C         -7.50710       -6.88420       -3.81120
C         -8.00670       -8.16380       -3.84420
C         -7.40030       -9.14200       -4.63540
S         -8.17490      -10.72260       -4.65760
C         -7.46470      -11.52380       -6.12310
C         -6.24280       -8.82850       -5.33580
C         -5.73590       -7.54310       -5.29720
C         -6.35610       -2.91650       -4.01330
S         -4.89020       -2.32590       -3.31650
C         -5.66490       -0.81230       -2.91230
C         -6.98590       -0.75400       -3.32080
N         -7.80210        0.36020       -3.22250
C         -7.22510        1.64120       -3.21390
C         -7.62800        2.59590       -2.28020
C         -6.93970        3.78310       -2.16440
C         -5.83090        4.04110       -2.96890
S         -4.93000        5.51710       -2.62640
C         -3.43390        5.36680       -3.64040
C         -5.49110        3.13730       -3.96640
C         -6.19010        1.95360       -4.09070
C         -9.17730        0.20410       -3.00830
C         -9.66850       -0.83490       -2.21680
C        -11.02420       -0.98090       -2.02590
C        -11.92110       -0.08730       -2.60700
S        -13.63190       -0.36940       -2.27790
C        -14.48400        0.87930       -3.28290
C        -11.43550        0.95890       -3.38090
C        -10.07670        1.09790       -3.58230
C         -7.37100       -1.97270       -3.94180
S         -8.83700       -2.56930       -4.63130
C         -4.82580        0.21920       -2.33020
C         -3.59680        0.48870       -2.93690
C         -2.77550        1.50140       -2.48950
C         -3.15670        2.24330       -1.37960
C         -2.47570        3.21330       -0.55530
C         -3.42830        3.51890        0.55960
O         -3.33450        4.33320        1.45420
N         -4.53450        2.73190        0.36690
C         -5.68280        2.75080        1.22930
C         -4.38240        1.93430       -0.74600
C         -5.22090        0.94300       -1.20190
C         -1.19830        3.69010       -0.66250
C         -0.37470        3.64120       -1.90960
O         -0.72130        3.41900       -3.05560
N          0.90270        3.98530       -1.56580
C          1.98790        4.07050       -2.50270
C          0.98580        4.24810       -0.21250
C          2.11760        4.44860        0.53810
C          1.96960        4.58610        1.92450
C          0.68950        4.65690        2.47990
C         -0.44360        4.45030        1.71740
C         -0.30530        4.18240        0.36090
C          3.13660        4.53880        2.77960
C          4.19560        3.64740        2.69120
N          4.31090        2.61600        1.77160
C          5.58950        2.11210        1.47750
C          5.80900        0.73590        1.42980
C          7.07940        0.24360        1.22940
C          8.15230        1.11490        1.08040
S          9.77570        0.43010        0.92130
C         10.73400        1.60340        1.92900
C          7.93090        2.48390        1.06230
C          6.65680        2.97900        1.25630
C          3.18900        1.94710        1.26220
C          2.05390        1.71020        2.03860
C          0.94620        1.11070        1.48390
C          0.94680        0.70740        0.14950
S         -0.53930       -0.03160       -0.45460
C         -0.10500       -0.58420       -2.12850
C          2.08920        0.89850       -0.61510
C          3.19500        1.51410       -0.06160
C          5.13550        3.87070        3.73110
S          6.62320        3.11440        4.17560
C          6.76430        4.17920        5.57830
C          5.64640        5.04340        5.69850
N          5.40970        5.92300        6.72350
C          5.74460        5.65360        8.06040
C          6.11010        6.69750        8.91080
C          6.46360        6.43670       10.21620
C          6.48290        5.13000       10.69550
S          7.00500        4.89610       12.36440
C          7.50240        3.14930       12.40380
C          6.08330        4.09110        9.86220
C          5.70530        4.35330        8.56150
C          4.70120        7.10480        6.43080
C          5.04850        7.86550        5.31420
C          4.35680        9.01780        5.02050
C          3.30670        9.43980        5.83570
S          2.49830       10.92900        5.35590
C          1.22230       11.16870        6.62430
C          2.96550        8.68820        6.95320
C          3.65790        7.52990        7.24580
C          4.76420        4.87460        4.61540
S          3.24030        5.58150        4.18330
C          7.86300        4.21090        6.43480
C          8.96800        3.39160        6.50810
C          9.27860        2.25490        5.64320
O          8.73020        1.93360        4.59920
C         10.42310        1.56240        6.25870
C         11.04240        0.39950        5.80650
C         12.08060       -0.02380        6.60150
C         12.47460        0.66090        7.75800
C         11.87280        1.81130        8.21270
C         10.81230        2.25860        7.42020
C          9.95750        3.43870        7.55910
C         10.10120        4.41400        8.51770
C         10.98390        4.32940        9.61190
N         11.64700        4.30580       10.54980
C          9.42510        5.64870        8.52690
N          8.95780        6.69850        8.57300
C         13.58060       -0.32000        8.05900
C         15.01600        0.13050        7.71500
C         15.79670       -1.16280        7.66050
C         15.42280       -1.81400        6.56660
C         14.38320       -0.97160        5.86300
C         14.89730        0.43030        6.21500
C         13.13970       -1.08500        6.76990
H         -9.88270       -4.93480       -5.68540
H         -5.03620       -6.80000       -9.13940
H         -9.20200       -9.64030       -8.66630
H         -7.44610      -10.57120      -11.45030
H         -6.97290      -12.36350       -9.53220
H         -5.77750      -13.14690      -11.73650
H         -3.59800      -11.66420      -12.06820
H         -3.44880       -9.97110      -10.06510
H         -5.39930      -10.54710       -8.32050
H         -4.47620      -12.01330       -8.72890
H         -5.31920       -9.10140      -11.75010
H         -4.42290       -3.73210       -6.19250
H         -2.01530       -3.20730       -5.88860
H         -0.34580       -4.23070       -1.60530
H          1.34360       -4.18880       -2.16220
H          0.39560       -5.67250       -2.37540
H         -1.89220       -5.84610       -2.52320
H         -4.26400       -6.34450       -2.82460
H         -7.99490       -6.13420       -3.20760
H         -8.88330       -8.42120       -3.27000
H         -6.43330      -11.81160       -5.94000
H         -7.54690      -10.85490       -6.97490
H         -8.06980      -12.40930       -6.28970
H         -5.73130       -9.57490       -5.92220
H         -4.84110       -7.29930       -5.85030
H         -8.46230        2.38400       -1.62710
H         -7.22990        4.51550       -1.42620
H         -2.91460        4.43950       -3.41560
H         -2.81240        6.21230       -3.36090
H         -3.68850        5.43490       -4.69420
H         -4.67370        3.33500       -4.64000
H         -5.91110        1.24720       -4.85810
H         -8.98160       -1.52050       -1.74310
H        -11.40580       -1.78630       -1.41760
H        -14.22290        0.75210       -4.32930
H        -14.23720        1.87680       -2.93080
H        -15.54400        0.69220       -3.14200
H        -12.10300        1.67010       -3.83970
H         -9.70360        1.90820       -4.19110
H         -3.30840       -0.08870       -3.80300
H         -1.86570        1.72430       -3.01770
H         -6.58510        2.95920        0.65270
H         -5.79520        1.79380        1.74450
H         -5.52620        3.54110        1.96260
H         -6.14650        0.71200       -0.69950
H          2.76500        3.34390       -2.25760
H          2.41800        5.07380       -2.49840
H          1.58340        3.85450       -3.49120
H          3.09700        4.46860        0.08750
H          0.59470        4.82290        3.54280
H         -1.41870        4.48090        2.17210
H          4.98150        0.05930        1.58400
H          7.25780       -0.82050        1.21920
H         11.64340        1.08720        2.22060
H         10.98540        2.48780        1.35070
H         10.14250        1.85880        2.80310
H          8.74800        3.17020        0.90550
H          6.48650        4.04590        1.24970
H          2.04400        2.00030        3.07780
H          0.06380        0.94040        2.08120
H         -0.98420       -1.09990       -2.50170
H          0.11290        0.27140       -2.76040
H          0.73650       -1.26920       -2.08750
H          2.12780        0.58450       -1.64580
H          4.08030        1.66610       -0.66280
H          6.14150        7.70800        8.53570
H          6.76420        7.24100       10.86810
H          8.03650        3.01790       13.33950
H          6.63010        2.50220       12.38600
H          8.16530        2.94310       11.56870
H          6.05170        3.07430       10.22020
H          5.39060        3.54120        7.92260
H          5.86860        7.54850        4.68730
H          4.62350        9.61140        4.16000
H          0.71180       12.08740        6.35270
H          1.68460       11.27960        7.60070
H          0.52130       10.33950        6.60740
H          2.15850        8.98750        7.60160
H          3.38490        6.94520        8.11160
H          7.81230        4.99070        7.18320
H         10.70330       -0.09920        4.91170
H         12.18760        2.32330        9.10660
H         13.51370       -0.83150        9.01740
H         15.41200        0.91550        8.35340
H         16.47650       -1.48580        8.42700
H         15.72770       -2.78980        6.23670
H         14.20400       -1.19190        4.81400
H         14.20000        1.23150        5.97690
H         15.86360        0.64100        5.75990
H         12.77690       -2.10650        6.86930
