177

C          2.91580       -4.05660       -5.30320
C          2.03560       -4.65340       -6.14350
C          2.52140       -5.63490       -7.15390
O          3.67210       -5.82770       -7.47640
C          1.31370       -6.32710       -7.64090
C          1.25360       -7.39550       -8.53450
C         -0.02130       -7.83710       -8.79570
C         -1.15660       -7.27490       -8.19580
C         -1.11460       -6.22150       -7.31470
C          0.17180       -5.74020       -7.05500
C          0.59270       -4.60320       -6.24330
C         -0.21900       -3.56930       -5.85650
C          0.24210       -2.35130       -5.32320
N          0.54470       -1.31520       -4.92930
C         -1.61980       -3.55290       -6.01110
N         -2.76360       -3.48060       -6.08460
C         -2.09820       -8.20820       -8.91430
C         -2.86980       -7.61160      -10.11050
C         -3.31690       -8.82410      -10.89440
C         -2.24330       -9.35110      -11.46910
C         -1.05230       -8.50350      -11.08330
C         -1.72360       -7.12600      -11.00740
C         -0.83400       -8.82980       -9.59000
C          2.64960       -3.32780       -4.09620
C          3.44950       -2.24730       -3.72090
O          4.50220       -1.86340       -4.51320
C          4.17940       -1.26320       -5.76360
C          3.50980        0.09330       -5.59610
C          3.19200       -1.49090       -2.55530
O          3.87940       -0.33350       -2.31700
C          5.28680       -0.39490       -2.10920
C          5.63820       -1.06110       -0.78560
C          2.15870       -1.81470       -1.66760
C          1.33090       -2.90710       -2.03180
C          1.57470       -3.65350       -3.23440
N          0.67980       -4.62240       -3.41260
S         -0.38860       -4.57350       -2.20740
N          0.24040       -3.33390       -1.40160
C          1.88320       -0.99000       -0.52940
C          1.21100       -1.29190        0.65390
N          0.83560       -2.53270        1.12970
C          1.57640       -3.68870        0.92510
C          2.95000       -3.63540        0.69660
C          3.67440       -4.78380        0.44720
C          3.04100       -6.01920        0.43660
S          3.85140       -7.55210        0.10760
C          5.54810       -7.06960       -0.32130
C          1.67510       -6.08410        0.70930
C          0.95250       -4.93940        0.95230
C         -0.37700       -2.56480        1.84760
C         -1.51970       -2.00630        1.27710
C         -2.68090       -1.91080        2.00930
C         -2.71770       -2.35680        3.32940
S         -4.22100       -2.08560        4.21220
C         -3.74410       -2.34270        5.94450
C         -1.59940       -2.97200        3.87690
C         -0.43670       -3.07800        3.13790
C          0.98480       -0.11860        1.41480
S          0.14760        0.21210        2.89210
C          0.52330        1.92200        2.74530
C          1.23990        2.21490        1.59220
N          1.61140        3.46040        1.11470
C          0.87510        4.61800        1.35630
C         -0.51670        4.58450        1.46150
C         -1.21230        5.69810        1.87580
C         -0.53830        6.87900        2.17370
S         -1.48580        8.20830        2.84830
C         -0.21980        9.21720        3.67720
C          0.82760        6.95780        1.93970
C          1.52550        5.83870        1.53300
C          2.81560        3.52200        0.39110
C          3.94820        2.86180        0.86730
C          5.09830        2.82890        0.11190
C          5.14140        3.46050       -1.12880
S          6.64420        3.30370       -2.04610
C          6.16470        3.79430       -3.72770
C          4.03550        4.16920       -1.57830
C          2.87950        4.19640       -0.82320
C          1.50150        1.03470        0.85090
S          2.35000        0.70010       -0.61720
C          0.03530        2.83110        3.74860
C         -1.22250        2.69230        4.32740
O         -2.00250        1.60380        3.99010
C         -2.68130        1.66420        2.74070
C         -3.72440        2.77030        2.65050
C         -1.75990        3.65120        5.23580
O         -2.98310        3.53140        5.78500
C         -3.50910        2.27040        6.19720
C         -2.51320        1.41570        6.96910
C         -1.10210        4.87450        5.44110
C          0.20830        4.99630        4.91850
C          0.81260        3.94280        4.16020
N          2.09850        4.16830        3.91500
S          2.50320        5.58990        4.55120
N          1.06270        5.98850        5.16230
C         -1.69740        6.04090        6.02420
C         -2.55900        6.15200        7.07610
C         -2.68060        5.05940        8.06190
O         -1.84690        4.18260        8.17920
N         -3.76650        5.10940        8.91100
C         -3.95370        3.99840        9.83800
C         -3.20670        4.23960       11.14350
C         -4.63770        6.18180        9.03630
O         -5.59330        6.12790        9.78110
C         -4.29380        7.36370        8.23490
C         -3.29430        7.36630        7.30760
C         -3.01020        8.58870        6.49480
C         -5.08600        8.50750        8.47160
N         -5.71780        9.44460        8.66690
H          3.96550       -4.19020       -5.55120
H          2.15210       -7.80860       -8.96560
H         -1.99290       -5.80290       -6.85210
H         -2.71600       -8.84220       -8.28140
H         -3.63670       -6.89020       -9.84240
H         -4.32560       -9.19310      -10.90510
H         -2.17610      -10.24860      -12.05560
H         -0.16520       -8.59520      -11.70410
H         -2.07760       -6.78700      -11.97950
H         -1.10380       -6.35330      -10.55640
H         -0.61010       -9.88000       -9.41270
H          5.14500       -1.16610       -6.26620
H          3.53600       -1.93090       -6.35090
H          2.52000       -0.02790       -5.16080
H          4.10430        0.72660       -4.94190
H          3.41160        0.57200       -6.56660
H          5.77090       -0.91710       -2.93910
H          5.60170        0.65070       -2.10100
H          6.71260       -1.01700       -0.63120
H          5.14210       -0.54670        0.03460
H          5.32580       -2.10410       -0.79300
H          3.45890       -2.68440        0.72090
H          4.73520       -4.70080        0.27180
H          6.03590       -6.61450        0.53580
H          6.05520       -7.99260       -0.58480
H          5.53710       -6.39820       -1.17500
H          1.18820       -7.04730        0.71460
H         -0.10900       -4.99950        1.13720
H         -1.47530       -1.64540        0.26090
H         -3.57100       -1.48370        1.57220
H         -3.56930       -3.39750        6.13680
H         -4.58700       -1.99880        6.53580
H         -2.86410       -1.74680        6.16660
H         -1.61510       -3.35910        4.88280
H          0.43920       -3.53780        3.57090
H         -1.04610        3.67310        1.23380
H         -2.28560        5.66730        1.98510
H          0.36820        9.76220        2.94440
H          0.40750        8.57420        4.28890
H         -0.76300        9.92160        4.29970
H          1.36520        7.87890        2.09810
H          2.59530        5.89460        1.39730
H          3.90760        2.37160        1.82820
H          5.97450        2.30870        0.46760
H          6.00790        4.86800       -3.77840
H          5.27220        3.25090       -4.02320
H          6.99890        3.51650       -4.36450
H          4.05500        4.69150       -2.52110
H          2.01180        4.72820       -1.18460
H         -1.95570        1.77350        1.92430
H         -3.14880        0.68130        2.65400
H         -4.53150        2.60950        3.36030
H         -4.14280        2.78270        1.64750
H         -3.27280        3.73900        2.85440
H         -3.90320        1.71020        5.34450
H         -4.34510        2.56060        6.84170
H         -1.79810        0.95380        6.29360
H         -1.97550        2.03650        7.68200
H         -3.05030        0.63510        7.50190
H         -1.41790        6.94780        5.50290
H         -5.02600        3.91190       10.02450
H         -3.58180        3.09630        9.35030
H         -3.57310        5.14420       11.62330
H         -3.36230        3.40050       11.81600
H         -2.14130        4.34320       10.95080
H         -3.61940        9.42190        6.83590
H         -1.95910        8.86080        6.58410
H         -3.22760        8.40870        5.44230
