236

C          5.58300       -2.51790        8.97870
C          6.31770       -1.82310        9.91270
C          6.36640       -0.37170       10.09230
O          5.90780        0.49200        9.35960
C          7.09110       -0.13490       11.35460
C          7.35890        1.09160       11.95870
C          8.06680        0.99510       13.13300
C          8.47500       -0.23100       13.67220
C          8.20920       -1.44910       13.09190
C          7.49200       -1.37290       11.89520
C          7.05180       -2.43640       10.99380
C          7.31190       -3.77520       11.16410
C          7.04990       -4.78920       10.22480
N          6.91760       -5.68300        9.51240
C          7.91060       -4.34120       12.30670
N          8.36240       -4.89600       13.20580
C          9.14720        0.42120       14.85480
C         10.68640        0.52240       14.80350
C         11.01150        1.59810       15.81440
C         10.62350        2.76050       15.30560
C         10.03000        2.48980       13.94180
C         10.90400        1.30770       13.50350
C          8.69050        1.78940       14.25380
C          4.76200       -2.06770        7.94660
C          3.96400       -2.92650        7.14830
N          3.74140       -4.26030        7.37550
C          3.66300       -4.80160        8.67020
C          3.10230       -4.06710        9.71740
C          3.12340       -4.56670       10.99870
C          3.67960       -5.81920       11.25950
S          3.74170       -6.33480       12.94540
C          5.04400       -7.60000       12.93760
C          4.15060       -6.58970       10.20590
C          4.15250       -6.07980        8.92190
C          3.48800       -5.09280        6.27030
C          4.27190       -4.98650        5.12530
C          4.01080       -5.76760        4.01710
C          2.96050       -6.67530        4.04150
S          2.50880       -7.70390        2.68310
C          3.66350       -7.22720        1.36570
C          2.19270       -6.80530        5.19900
C          2.45100       -6.02430        6.30220
C          3.39210       -2.22070        6.07620
S          2.31530       -2.64920        4.78670
C          2.28680       -0.97820        4.22490
C          3.03640       -0.13780        5.03680
N          3.16830        1.23490        4.91660
C          4.39950        1.76780        5.35210
C          4.44660        2.75500        6.33090
C          5.65960        3.15840        6.84800
C          6.83680        2.57600        6.39610
S          8.40520        2.97600        7.10720
C          7.94110        3.16050        8.85700
C          6.79790        1.64160        5.36800
C          5.58620        1.23920        4.84900
C          2.09380        2.07970        4.64510
C          0.77980        1.70230        4.91420
C         -0.27460        2.52560        4.57290
C         -0.03350        3.74930        3.96450
S         -1.31610        4.86020        3.46300
C         -2.76080        3.76930        3.30620
C          1.28000        4.15350        3.73690
C          2.33110        3.33050        4.07010
C          3.67950       -0.86350        6.07220
S          4.67300       -0.39050        7.40400
C          1.52970       -0.70300        3.05020
C          0.53680       -1.49320        2.54110
C         -0.04400       -0.98990        1.35310
C         -1.08030       -1.54470        0.58750
C         -1.76410       -2.82090        0.97970
C         -2.87580       -2.54900        1.99470
C         -1.45510       -0.83600       -0.53750
C         -0.86290        0.39350       -0.92610
C          0.17400        0.94540       -0.16430
C          0.81110        2.25700       -0.50590
C          0.01870        3.41280        0.10680
C          0.56040        0.22850        0.95140
S          1.83620        0.69710        2.04250
C         -1.40470        0.87310       -2.14530
C         -2.33440        0.04550       -2.69840
S         -2.67190       -1.34380       -1.68200
C         -2.90260        0.14070       -4.00730
C         -2.23410        0.49850       -5.16950
N         -0.88350        0.77990       -5.28450
C         -0.49610        1.67700       -6.29780
C          0.51910        1.34320       -7.18820
C          0.80090        2.16690       -8.25830
C          0.07060        3.33210       -8.45250
S          0.32550        4.37220       -9.85900
C          0.64230        3.13360      -11.15430
C         -0.89200        3.70700       -7.52390
C         -1.17340        2.88540       -6.45340
C          0.07150        0.14340       -4.48770
C         -0.10560       -1.17040       -4.05830
C          0.74870       -1.73350       -3.13210
C          1.80970       -0.99410       -2.62760
S          2.88820       -1.56380       -1.35130
C          2.03960       -3.02960       -0.69720
C          2.05620        0.27870       -3.13610
C          1.19870        0.84320       -4.05420
C         -3.11250        0.48880       -6.28160
S         -2.93130        0.94680       -7.93370
C         -4.62280        0.55170       -8.24250
C         -5.28770        0.11680       -7.07140
N         -6.62320       -0.18890       -6.96750
C         -7.60630        0.48650       -7.71100
C         -7.49230        1.85620       -7.95980
C         -8.39560        2.48460       -8.78530
C         -9.44790        1.76830       -9.35570
S        -10.49620        2.63790      -10.47710
C        -11.25270        1.30330      -11.44750
C         -9.61970        0.43030       -9.02820
C         -8.69870       -0.20850       -8.22090
C         -7.01800       -1.15270       -6.02380
C         -8.14270       -0.95130       -5.23080
C         -8.51780       -1.89140       -4.29110
C         -7.76800       -3.04900       -4.12670
S         -8.13220       -4.31110       -2.95150
C         -9.56490       -3.66780       -2.04120
C         -6.65010       -3.26130       -4.93230
C         -6.28060       -2.32800       -5.87290
C         -4.40490        0.08460       -5.97630
S         -4.57730       -0.30330       -4.29420
C         -5.23030        0.67020       -9.49580
C         -4.81600        1.34930      -10.61630
C         -3.57500        2.11530      -10.77370
O         -2.55820        2.03730      -10.10370
C         -3.77540        2.98490      -11.94550
C         -2.91460        3.97220      -12.41690
C         -3.37440        4.62380      -13.53650
C         -4.60180        4.32000      -14.13930
C         -5.46610        3.35560      -13.67580
C         -5.01670        2.67890      -12.53970
C         -5.65060        1.61250      -11.76650
C         -6.82940        0.98680      -12.08980
C         -7.66470        1.34450      -13.16630
N         -8.41800        1.57380      -14.00290
C         -7.36900       -0.12880      -11.42290
N         -7.87510       -1.05670      -10.96950
C         -4.42090        5.36020      -15.21630
C         -3.99950        4.87510      -16.62530
C         -3.24990        3.58110      -16.42720
C         -2.08790        3.86960      -15.85670
C         -2.03100        5.36410      -15.65790
C         -2.82500        5.83100      -16.88840
C         -3.05330        5.69940      -14.54370
H          5.62390       -3.59580        9.06570
H          7.02220        2.01730       11.51900
H          8.52260       -2.38540       13.52260
H          8.77200        0.13060       15.83410
H         11.20840       -0.42450       14.91060
H         11.42490        1.40270       16.78640
H         10.64820        3.73000       15.76760
H          9.95520        3.33660       13.26450
H         10.54570        0.79720       12.61150
H         11.94520        1.59460       13.36540
H          8.00950        2.41070       14.83280
H          2.67970       -3.09250        9.52340
H          2.71650       -3.99200       11.81640
H          5.90470       -7.22860       12.38940
H          5.30810       -7.75720       13.97860
H          4.67100       -8.52560       12.50870
H          4.54940       -7.57620       10.37370
H          4.56130       -6.66610        8.11420
H          5.09410       -4.28640        5.10540
H          4.63620       -5.65850        3.14630
H          3.38770       -7.82920        0.50550
H          4.68290       -7.45620        1.66200
H          3.54550       -6.17320        1.13160
H          1.38400       -7.51960        5.21350
H          1.84550       -6.11930        7.19090
H          3.52740        3.18240        6.70320
H          5.68160        3.91030        7.62040
H          7.57910        4.16650        9.05100
H          8.84290        2.97670        9.43330
H          7.18370        2.41540        9.08360
H          7.72050        1.21930        5.00100
H          5.54550        0.49020        4.07160
H          0.57820        0.75410        5.39020
H         -1.28010        2.20300        4.79170
H         -3.50790        4.34430        2.76810
H         -2.48700        2.88710        2.73490
H         -3.14310        3.50080        4.28680
H          1.46190        5.11250        3.27690
H          3.34560        3.63670        3.86600
H          0.22270       -2.39920        3.02900
H         -1.04110       -3.51740        1.40900
H         -2.19850       -3.28150        0.08920
H         -3.62140       -1.88430        1.56460
H         -3.36250       -3.47870        2.27850
H         -2.46880       -2.08050        2.88800
H          1.82950        2.27030       -0.11110
H          0.86180        2.37480       -1.58880
H         -1.00860        3.40370       -0.25160
H          0.01090        3.32740        1.19050
H          0.47080        4.36510       -0.15780
H         -1.10810        1.79680       -2.60680
H          1.06650        0.42230       -7.05030
H          1.57780        1.88390       -8.95070
H          1.65220        2.74230      -11.07270
H         -0.09760        2.34460      -11.05670
H          0.52980        3.64780      -12.10400
H         -1.43180        4.63060       -7.66330
H         -1.94390        3.15760       -5.74630
H         -0.93570       -1.74920       -4.43540
H          0.56880       -2.74520       -2.80580
H          1.00060       -2.78700       -0.49620
H          2.54670       -3.27120        0.23210
H          2.12640       -3.85890       -1.39380
H          2.90960        0.83120       -2.77420
H          1.37460        1.84500       -4.41830
H         -6.67170        2.41190       -7.53070
H         -8.29500        3.53590       -9.00700
H        -11.66910        1.78040      -12.32910
H        -12.04320        0.82230      -10.87860
H        -10.48670        0.59190      -11.74090
H        -10.44730       -0.13550       -9.42260
H         -8.80960       -1.26070       -8.00950
H         -8.72170       -0.04700       -5.34650
H         -9.39140       -1.70230       -3.68890
H         -9.78450       -4.41150       -1.28140
H        -10.41540       -3.56190       -2.70820
H         -9.30960       -2.72340       -1.56980
H         -6.08040       -4.16940       -4.81020
H         -5.42060       -2.50290       -6.50200
H         -6.21360        0.22260       -9.55530
H         -1.98680        4.18970      -11.91200
H         -6.41390        3.14260      -14.14190
H         -5.17740        6.14140      -15.25620
H         -4.80410        4.85630      -17.35550
H         -3.65340        2.61350      -16.66200
H         -1.32640        3.19040      -15.52010
H         -1.04300        5.79200      -15.50810
H         -3.10490        6.88290      -16.85030
H         -2.31220        5.62050      -17.82570
H         -2.91630        6.70210      -14.14350
