221

C          4.94380       -5.88550        7.09830
C          5.17570       -7.23020        7.22880
C          4.38850       -8.30300        6.61340
O          3.25500       -8.23700        6.16790
C          5.26050       -9.49460        6.61510
C          4.99860      -10.73480        6.03680
C          6.02000      -11.64480        6.17130
C          7.21100      -11.35140        6.84640
C          7.48160      -10.13480        7.42690
C          6.46280       -9.18790        7.28540
C          6.41190       -7.79380        7.72260
C          7.38910       -7.14070        8.43220
C          8.62280       -7.71340        8.80130
N          9.65300       -8.11670        9.10940
C          7.30260       -5.81650        8.90680
N          7.30650       -4.75470        9.34680
C          7.79250      -12.71800        6.58260
C          8.85610      -12.80640        5.46800
C          8.88050      -14.27360        5.10510
C          7.75430      -14.54840        4.45960
C          6.94950      -13.27150        4.37580
C          8.08850      -12.24980        4.26190
C          6.46580      -13.04370        5.82410
C          3.91890       -5.20470        6.43180
C          4.07850       -3.89710        5.92650
N          5.26360       -3.20290        5.88410
C          5.21700       -1.79860        5.87270
C          6.00820       -1.06580        4.98900
C          5.89440        0.30460        4.93750
C          4.99340        0.97430        5.76560
S          4.88680        2.72160        5.55640
C          3.61090        3.23130        6.74410
C          4.23980        0.25100        6.68020
C          4.35520       -1.12400        6.73290
C          6.49900       -3.86010        5.74190
C          6.61090       -4.98780        4.93010
C          7.78160       -5.71620        4.90020
C          8.87000       -5.31530        5.66710
S         10.37930       -6.22390        5.76190
C          9.89920       -7.88650        5.20760
C          8.79120       -4.13360        6.40060
C          7.61820       -3.41160        6.44120
C          2.87460       -3.42830        5.37650
S          2.43090       -1.97550        4.55410
C          0.80790       -2.59360        4.29230
C          0.61180       -3.83150        4.88610
N         -0.60990       -4.47710        4.99450
C         -0.62570       -5.87930        5.03660
C          0.20110       -6.60760        4.18460
C          0.25210       -7.98430        4.26460
C         -0.52810       -8.65180        5.19750
S         -0.46940      -10.40710        5.38960
C          1.27990      -10.74210        5.02060
C         -1.39530       -7.93300        6.01400
C         -1.44200       -6.55870        5.93980
C         -1.78780       -3.74930        5.20720
C         -2.99800       -4.21370        4.68800
C         -4.15180       -3.48190        4.84930
C         -4.12990       -2.26390        5.52580
S         -5.66540       -1.39970        5.63980
C         -5.22330        0.17360        6.42990
C         -2.93500       -1.80850        6.06410
C         -1.77910       -2.54780        5.90910
C          1.81390       -4.32310        5.46480
S          2.30240       -5.83910        6.13860
C         -0.07600       -1.79280        3.47670
C          0.15460       -0.41270        3.38930
C         -0.60000        0.35800        2.54070
C         -0.45720        1.83000        2.20790
C          0.99820        2.06890        1.75200
C          1.35400        3.48360        1.31200
C         -0.90510        2.74330        3.36810
C         -0.03450        2.69760        4.61750
C         -1.46220        1.97240        1.08110
C         -2.13860        0.75940        0.86010
C         -1.59740       -0.24110        1.75270
C         -1.84450       -1.60320        1.84020
C         -1.07890       -2.37270        2.69150
C         -3.11900        0.66340       -0.11630
C         -3.38060        1.76370       -0.90610
C         -2.69470        2.96800       -0.72070
C         -1.76230        3.07710        0.32220
C         -2.88430        4.06490       -1.64260
C         -2.08010        5.15250       -1.81790
C         -2.46050        5.98750       -2.89690
C         -1.81230        7.14690       -3.35520
C         -0.64740        7.69020       -2.64490
C          0.54340        7.96490       -3.31400
C          1.63420        8.45860       -2.63050
C          1.58530        8.69360       -1.25840
S          3.06260        9.26700       -0.46920
C          2.46190       10.58410        0.65250
C          1.75200       11.68790       -0.10490
C          0.39480        8.40070       -0.60070
F          0.28160        8.56840        0.73640
C         -0.71000        7.92060       -1.27390
C         -2.31550        7.72410       -4.51060
C         -3.45950        7.22170       -5.18850
C         -4.13940        6.08880       -4.69760
C         -5.34570        5.58610       -5.36220
C         -6.40530        6.44310       -5.66180
C         -7.53510        5.96820       -6.28790
C         -7.66230        4.62420       -6.64430
S         -9.17930        4.15480       -7.40870
C         -8.76250        2.67760       -8.41890
C         -9.84050        2.49030       -9.46850
C         -6.60650        3.77800       -6.31910
C         -5.46510        4.24230       -5.69750
F         -6.65810        2.45470       -6.59730
C         -3.60050        5.48470       -3.57480
S         -4.19300        4.03520       -2.80820
C         -3.73900        7.93690       -6.37070
C         -2.87080        8.97120       -6.61020
S         -1.67200        9.12070       -5.32140
C         -2.76080        9.89310       -7.67850
C         -3.35860        9.91420       -8.90420
C         -4.24050        8.89850       -9.53260
O         -4.85100        7.98890       -9.00930
C         -4.24270        9.20980      -10.97320
C         -4.83720        8.45650      -11.98330
C         -4.65740        8.97150      -13.24390
C         -3.93490       10.14870      -13.48490
C         -3.34840       10.90370      -12.49770
C         -3.52640       10.40020      -11.20550
C         -3.05960       10.91340       -9.92250
C         -2.51110       12.15040       -9.71490
C         -2.15660       12.69150       -8.45960
N         -1.86160       13.21740       -7.48230
C         -2.27420       13.09490      -10.73660
N         -2.05380       13.90900      -11.51530
C         -4.15240       10.07100      -14.97500
C         -5.21640       11.00850      -15.59720
C         -6.21880       11.30130      -14.50840
C         -6.90480       10.18940      -14.27990
C         -6.37830        9.12430      -15.21010
C         -6.00900        9.98640      -16.42770
C         -4.95930        8.76160      -14.70630
H          5.72000       -5.23450        7.47990
H          4.06740      -10.92870        5.52840
H          8.40210       -9.92520        7.94560
H          8.04690      -13.30490        7.46280
H          9.80990      -12.34610        5.71150
H          9.66290      -14.95010        5.39470
H          7.40770      -15.50020        4.10220
H          6.16680      -13.23520        3.62250
H          8.64660      -12.35750        3.33320
H          7.77030      -11.21500        4.37740
H          5.83780      -13.85150        6.19500
H          6.69440       -1.58080        4.33370
H          6.49000        0.87530        4.24180
H          3.93960        3.02100        7.75760
H          2.67200        2.73340        6.51990
H          3.50070        4.30290        6.60930
H          3.55900        0.74160        7.35640
H          3.76840       -1.68420        7.44600
H          5.76570       -5.30940        4.33930
H          7.83700       -6.59290        4.27460
H          8.99500       -8.19870        5.72230
H         10.72340       -8.53470        5.48740
H          9.76520       -7.90660        4.12960
H          9.64880       -3.80910        6.96820
H          7.54930       -2.52230        7.04800
H          0.80680       -6.08810        3.45590
H          0.90290       -8.52770        3.59900
H          1.51750      -11.67890        5.51640
H          1.42780      -10.84590        3.94860
H          1.87510       -9.92820        5.42600
H         -2.01120       -8.46260        6.72430
H         -2.09220       -6.00090        6.59710
H         -3.02340       -5.14910        4.14910
H         -5.08500       -3.83830        4.44100
H         -4.87790       -0.00060        7.44500
H         -6.13810        0.75770        6.44910
H         -4.47040        0.68480        5.83690
H         -2.88720       -0.88200        6.61310
H         -0.85910       -2.18500        6.34220
H          0.95420        0.01550        3.97570
H          1.19780        1.38290        0.92430
H          1.65720        1.77990        2.57220
H          1.07940        4.21890        2.06350
H          2.42900        3.54900        1.15700
H          0.86880        3.73660        0.37360
H         -0.94520        3.76930        2.99860
H         -1.92610        2.45630        3.63580
H         -0.41850        3.40530        5.35030
H         -0.04890        1.70700        5.06430
H          0.99270        2.97010        4.39020
H         -2.59990       -2.06590        1.22350
H         -1.21970       -3.44120        2.70900
H         -3.65520       -0.26060       -0.27000
H         -4.11460        1.69650       -1.69610
H         -1.28940        4.02600        0.51310
H         -1.19860        5.33940       -1.23290
H          0.61790        7.77730       -4.37370
H          2.55510        8.66870       -3.15140
H          3.37560       10.95100        1.12000
H          1.82810       10.13820        1.41570
H          0.84650       11.31350       -0.57940
H          1.47600       12.48530        0.58220
H          2.39980       12.09960       -0.87600
H         -1.61740        7.73420       -0.71980
H         -6.34520        7.48450       -5.38570
H         -8.35130        6.63460       -6.51920
H         -7.79270        2.86230       -8.87820
H         -8.70230        1.81330       -7.75950
H         -9.90070        3.36260      -10.11540
H         -9.61250        1.61740      -10.07640
H        -10.80980        2.34340       -8.99740
H         -4.67060        3.54160       -5.49380
H         -4.53760        7.68230       -7.04200
H         -2.02730       10.66930       -7.49010
H         -5.37830        7.55200      -11.75330
H         -2.78880       11.80180      -12.69960
H         -3.25370       10.00030      -15.58460
H         -4.80860       11.87020      -16.11840
H         -6.28440       12.24130      -13.99270
H         -7.65850       10.01430      -13.53470
H         -7.02880        8.27030      -15.37980
H         -5.40190        9.46070      -17.16360
H         -6.87980       10.42340      -16.91370
H         -4.58840        7.83550      -15.14140
