
  xtb     02092213423D
 energy: -306.768500247965 gnorm: 0.000614590147 xtb: 6.4.1 (unknown)
183204  0     0  0            999 V2000
   -7.5142    3.8171   -4.2944 C   0  0  0  0  0  0  0  0  0  0  0  0
   -8.4713    4.2001   -3.3830 C   0  0  0  0  0  0  0  0  0  0  0  0
   -8.5045    3.8601   -1.9595 C   0  0  0  0  0  0  0  0  0  0  0  0
   -7.7230    3.1551   -1.3429 O   0  0  0  0  0  0  0  0  0  0  0  0
   -9.6830    4.5429   -1.3964 C   0  0  0  0  0  0  0  0  0  0  0  0
  -10.1128    4.5175   -0.0721 C   0  0  0  0  0  0  0  0  0  0  0  0
  -11.2472    5.2577    0.1605 C   0  0  0  0  0  0  0  0  0  0  0  0
  -11.9057    5.9689   -0.8505 C   0  0  0  0  0  0  0  0  0  0  0  0
  -11.4944    5.9968   -2.1624 C   0  0  0  0  0  0  0  0  0  0  0  0
  -10.3405    5.2513   -2.4213 C   0  0  0  0  0  0  0  0  0  0  0  0
   -9.6116    5.0418   -3.6732 C   0  0  0  0  0  0  0  0  0  0  0  0
   -9.9774    5.5582   -4.8931 C   0  0  0  0  0  0  0  0  0  0  0  0
   -9.3040    5.3561   -6.1144 C   0  0  0  0  0  0  0  0  0  0  0  0
   -8.8231    5.2429   -7.1530 N   0  0  0  0  0  0  0  0  0  0  0  0
  -11.1046    6.3764   -5.1108 C   0  0  0  0  0  0  0  0  0  0  0  0
  -11.9982    7.0489   -5.3739 N   0  0  0  0  0  0  0  0  0  0  0  0
  -12.9600    6.4925    0.0934 C   0  0  0  0  0  0  0  0  0  0  0  0
  -12.8078    7.9576    0.5539 C   0  0  0  0  0  0  0  0  0  0  0  0
  -13.6608    8.0355    1.7995 C   0  0  0  0  0  0  0  0  0  0  0  0
  -13.0387    7.3602    2.7574 C   0  0  0  0  0  0  0  0  0  0  0  0
  -11.7546    6.8147    2.1754 C   0  0  0  0  0  0  0  0  0  0  0  0
  -11.4121    7.9403    1.1909 C   0  0  0  0  0  0  0  0  0  0  0  0
  -12.2264    5.6975    1.2208 C   0  0  0  0  0  0  0  0  0  0  0  0
   -6.3704    3.0294   -4.1523 C   0  0  0  0  0  0  0  0  0  0  0  0
   -5.4663    2.7822   -5.2169 C   0  0  0  0  0  0  0  0  0  0  0  0
   -5.6224    3.3907   -6.5766 C   0  0  0  0  0  0  0  0  0  0  0  0
   -5.1671    4.8527   -6.5968 C   0  0  0  0  0  0  0  0  0  0  0  0
   -4.4199    1.9721   -4.8184 C   0  0  0  0  0  0  0  0  0  0  0  0
   -4.5204    1.5893   -3.4688 C   0  0  0  0  0  0  0  0  0  0  0  0
   -5.8823    2.2256   -2.6627 S   0  0  0  0  0  0  0  0  0  0  0  0
   -3.4056    0.7969   -3.1387 C   0  0  0  0  0  0  0  0  0  0  0  0
   -2.5817    0.6541   -4.2574 C   0  0  0  0  0  0  0  0  0  0  0  0
   -3.1884    1.3476   -5.4546 C   0  0  0  0  0  0  0  0  0  0  0  0
   -3.6497    0.3219   -6.5149 C   0  0  0  0  0  0  0  0  0  0  0  0
   -2.5543   -0.5920   -7.0489 C   0  0  0  0  0  0  0  0  0  0  0  0
   -2.2218    2.3890   -6.0381 C   0  0  0  0  0  0  0  0  0  0  0  0
   -1.7990    3.4302   -5.0078 C   0  0  0  0  0  0  0  0  0  0  0  0
   -1.4185   -0.0433   -3.9748 C   0  0  0  0  0  0  0  0  0  0  0  0
   -1.3603   -0.4664   -2.6512 C   0  0  0  0  0  0  0  0  0  0  0  0
   -2.7713    0.0341   -1.7390 S   0  0  0  0  0  0  0  0  0  0  0  0
   -0.2655   -1.1160   -2.0355 C   0  0  0  0  0  0  0  0  0  0  0  0
   -0.1775   -1.7196   -0.7814 C   0  0  0  0  0  0  0  0  0  0  0  0
   -1.2257   -1.9608    0.0891 N   0  0  0  0  0  0  0  0  0  0  0  0
   -0.9005   -1.9359    1.4610 C   0  0  0  0  0  0  0  0  0  0  0  0
   -0.2226   -0.8330    1.9805 C   0  0  0  0  0  0  0  0  0  0  0  0
    0.2336   -0.8485    3.2789 C   0  0  0  0  0  0  0  0  0  0  0  0
    0.0159   -1.9628    4.0864 C   0  0  0  0  0  0  0  0  0  0  0  0
    0.7210   -1.9099    5.7024 S   0  0  0  0  0  0  0  0  0  0  0  0
    0.5245   -3.6090    6.3130 C   0  0  0  0  0  0  0  0  0  0  0  0
   -0.7187   -3.0329    3.5935 C   0  0  0  0  0  0  0  0  0  0  0  0
   -1.1704   -3.0199    2.2883 C   0  0  0  0  0  0  0  0  0  0  0  0
   -2.4331   -2.5185   -0.3371 C   0  0  0  0  0  0  0  0  0  0  0  0
   -3.5890   -2.3251    0.4238 C   0  0  0  0  0  0  0  0  0  0  0  0
   -4.7901   -2.8506    0.0088 C   0  0  0  0  0  0  0  0  0  0  0  0
   -4.8751   -3.5772   -1.1786 C   0  0  0  0  0  0  0  0  0  0  0  0
   -6.4733   -4.1869   -1.6122 S   0  0  0  0  0  0  0  0  0  0  0  0
   -6.1979   -5.0759   -3.1712 C   0  0  0  0  0  0  0  0  0  0  0  0
   -3.7290   -3.7774   -1.9352 C   0  0  0  0  0  0  0  0  0  0  0  0
   -2.5205   -3.2577   -1.5139 C   0  0  0  0  0  0  0  0  0  0  0  0
    1.1560   -2.0818   -0.4861 C   0  0  0  0  0  0  0  0  0  0  0  0
    1.9249   -2.7096    0.9287 S   0  0  0  0  0  0  0  0  0  0  0  0
    3.4905   -2.6587    0.1318 C   0  0  0  0  0  0  0  0  0  0  0  0
    3.4121   -2.0986   -1.1596 C   0  0  0  0  0  0  0  0  0  0  0  0
    4.4566   -1.7347   -1.9762 N   0  0  0  0  0  0  0  0  0  0  0  0
    4.2538   -1.7560   -3.3638 C   0  0  0  0  0  0  0  0  0  0  0  0
    4.7103   -0.7112   -4.1623 C   0  0  0  0  0  0  0  0  0  0  0  0
    4.4927   -0.7209   -5.5255 C   0  0  0  0  0  0  0  0  0  0  0  0
    3.8104   -1.7789   -6.1135 C   0  0  0  0  0  0  0  0  0  0  0  0
    3.4489   -1.8910   -7.8349 S   0  0  0  0  0  0  0  0  0  0  0  0
    4.2612   -0.4353   -8.5536 C   0  0  0  0  0  0  0  0  0  0  0  0
    3.3641   -2.8338   -5.3179 C   0  0  0  0  0  0  0  0  0  0  0  0
    3.5843   -2.8259   -3.9599 C   0  0  0  0  0  0  0  0  0  0  0  0
    5.6814   -1.3004   -1.4624 C   0  0  0  0  0  0  0  0  0  0  0  0
    5.7458   -0.6032   -0.2545 C   0  0  0  0  0  0  0  0  0  0  0  0
    6.9627   -0.3101    0.3155 C   0  0  0  0  0  0  0  0  0  0  0  0
    8.1439   -0.7121   -0.3060 C   0  0  0  0  0  0  0  0  0  0  0  0
    9.6505   -0.4449    0.5651 S   0  0  0  0  0  0  0  0  0  0  0  0
   10.6959   -1.8022   -0.0469 C   0  0  0  0  0  0  0  0  0  0  0  0
    8.0877   -1.3036   -1.5635 C   0  0  0  0  0  0  0  0  0  0  0  0
    6.8663   -1.5848   -2.1403 C   0  0  0  0  0  0  0  0  0  0  0  0
    2.0694   -1.8078   -1.4912 C   0  0  0  0  0  0  0  0  0  0  0  0
    1.2911   -1.0942   -2.8674 S   0  0  0  0  0  0  0  0  0  0  0  0
    4.5886   -3.1295    0.8871 C   0  0  0  0  0  0  0  0  0  0  0  0
    4.5021   -3.1890    2.3005 C   0  0  0  0  0  0  0  0  0  0  0  0
    5.6420   -3.4167    3.1603 C   0  0  0  0  0  0  0  0  0  0  0  0
    5.2858   -3.4139    4.4459 N   0  0  0  0  0  0  0  0  0  0  0  0
    3.7077   -3.1209    4.5673 S   0  0  0  0  0  4  0  0  0  0  0  0
    3.3837   -3.0064    2.9974 N   0  0  0  0  0  0  0  0  0  0  0  0
    6.9379   -3.6440    2.6444 C   0  0  0  0  0  0  0  0  0  0  0  0
    6.9578   -3.8573    1.2413 C   0  0  0  0  0  0  0  0  0  0  0  0
    7.9980   -4.3209    0.5532 N   0  0  0  0  0  0  0  0  0  0  0  0
    7.5782   -4.4907   -0.9932 S   0  0  0  0  0  0  0  0  0  0  0  0
    6.0734   -3.9330   -0.8852 N   0  0  0  0  0  0  0  0  0  0  0  0
    5.8206   -3.6048    0.3812 C   0  0  0  0  0  0  0  0  0  0  0  0
    8.1359   -3.7819    3.3767 C   0  0  0  0  0  0  0  0  0  0  0  0
    8.4564   -3.4803    4.6713 C   0  0  0  0  0  0  0  0  0  0  0  0
    9.6584   -4.1269    5.2624 C   0  0  0  0  0  0  0  0  0  0  0  0
   10.5342   -4.7164    4.6668 O   0  0  0  0  0  0  0  0  0  0  0  0
    9.5347   -3.9342    6.7211 C   0  0  0  0  0  0  0  0  0  0  0  0
   10.3544   -4.4595    7.7168 C   0  0  0  0  0  0  0  0  0  0  0  0
    9.9704   -4.1245    8.9933 C   0  0  0  0  0  0  0  0  0  0  0  0
    8.8531   -3.3241    9.2628 C   0  0  0  0  0  0  0  0  0  0  0  0
    8.0399   -2.7924    8.2900 C   0  0  0  0  0  0  0  0  0  0  0  0
    8.4139   -3.1212    6.9855 C   0  0  0  0  0  0  0  0  0  0  0  0
    7.8210   -2.7158    5.7107 C   0  0  0  0  0  0  0  0  0  0  0  0
    6.9766   -1.6455    5.5458 C   0  0  0  0  0  0  0  0  0  0  0  0
    6.6560   -1.0804    4.2998 C   0  0  0  0  0  0  0  0  0  0  0  0
    6.3775   -0.5480    3.3203 N   0  0  0  0  0  0  0  0  0  0  0  0
    6.3817   -0.9238    6.5978 C   0  0  0  0  0  0  0  0  0  0  0  0
    5.8368   -0.3096    7.4017 N   0  0  0  0  0  0  0  0  0  0  0  0
    9.0550   -3.4046   10.7556 C   0  0  0  0  0  0  0  0  0  0  0  0
    8.1340   -4.3539   11.5608 C   0  0  0  0  0  0  0  0  0  0  0  0
    7.6976   -5.4374   10.6064 C   0  0  0  0  0  0  0  0  0  0  0  0
    8.7527   -6.1985   10.3487 C   0  0  0  0  0  0  0  0  0  0  0  0
    9.9213   -5.6441   11.1250 C   0  0  0  0  0  0  0  0  0  0  0  0
    9.1927   -5.1178   12.3719 C   0  0  0  0  0  0  0  0  0  0  0  0
   10.2988   -4.2993   10.4555 C   0  0  0  0  0  0  0  0  0  0  0  0
   -7.6580    4.1919   -5.2979 H   0  0  0  0  0  0  0  0  0  0  0  0
   -9.5756    3.9527    0.6737 H   0  0  0  0  0  0  0  0  0  0  0  0
  -12.0172    6.5458   -2.9273 H   0  0  0  0  0  0  0  0  0  0  0  0
  -13.9876    6.2269   -0.1477 H   0  0  0  0  0  0  0  0  0  0  0  0
  -12.9980    8.6993   -0.2171 H   0  0  0  0  0  0  0  0  0  0  0  0
  -14.6236    8.5103    1.8386 H   0  0  0  0  0  0  0  0  0  0  0  0
  -13.3781    7.1581    3.7565 H   0  0  0  0  0  0  0  0  0  0  0  0
  -10.9852    6.5156    2.8822 H   0  0  0  0  0  0  0  0  0  0  0  0
  -10.6106    7.6940    0.4970 H   0  0  0  0  0  0  0  0  0  0  0  0
  -11.1799    8.8750    1.6987 H   0  0  0  0  0  0  0  0  0  0  0  0
  -12.7650    4.9008    1.7307 H   0  0  0  0  0  0  0  0  0  0  0  0
   -6.6631    3.3368   -6.9016 H   0  0  0  0  0  0  0  0  0  0  0  0
   -5.0259    2.8243   -7.2914 H   0  0  0  0  0  0  0  0  0  0  0  0
   -4.1112    4.9296   -6.3498 H   0  0  0  0  0  0  0  0  0  0  0  0
   -5.7303    5.4439   -5.8792 H   0  0  0  0  0  0  0  0  0  0  0  0
   -5.3271    5.2737   -7.5858 H   0  0  0  0  0  0  0  0  0  0  0  0
   -4.0955    0.8669   -7.3485 H   0  0  0  0  0  0  0  0  0  0  0  0
   -4.4342   -0.2924   -6.0658 H   0  0  0  0  0  0  0  0  0  0  0  0
   -1.7525   -0.0231   -7.5116 H   0  0  0  0  0  0  0  0  0  0  0  0
   -2.1369   -1.2037   -6.2540 H   0  0  0  0  0  0  0  0  0  0  0  0
   -2.9741   -1.2547   -7.8026 H   0  0  0  0  0  0  0  0  0  0  0  0
   -1.3328    1.8742   -6.4049 H   0  0  0  0  0  0  0  0  0  0  0  0
   -2.6998    2.8833   -6.8848 H   0  0  0  0  0  0  0  0  0  0  0  0
   -1.2572    2.9617   -4.1894 H   0  0  0  0  0  0  0  0  0  0  0  0
   -2.6658    3.9397   -4.5932 H   0  0  0  0  0  0  0  0  0  0  0  0
   -1.1500    4.1713   -5.4687 H   0  0  0  0  0  0  0  0  0  0  0  0
   -0.6203   -0.2475   -4.6662 H   0  0  0  0  0  0  0  0  0  0  0  0
   -0.0349    0.0208    1.3463 H   0  0  0  0  0  0  0  0  0  0  0  0
    0.7799   -0.0084    3.6784 H   0  0  0  0  0  0  0  0  0  0  0  0
   -0.5239   -3.8240    6.4982 H   0  0  0  0  0  0  0  0  0  0  0  0
    1.0764   -3.6495    7.2468 H   0  0  0  0  0  0  0  0  0  0  0  0
    0.9522   -4.3059    5.5982 H   0  0  0  0  0  0  0  0  0  0  0  0
   -0.9288   -3.8938    4.2069 H   0  0  0  0  0  0  0  0  0  0  0  0
   -1.7136   -3.8678    1.8980 H   0  0  0  0  0  0  0  0  0  0  0  0
   -3.5337   -1.7498    1.3351 H   0  0  0  0  0  0  0  0  0  0  0  0
   -5.6839   -2.6952    0.5928 H   0  0  0  0  0  0  0  0  0  0  0  0
   -5.5046   -5.8972   -3.0145 H   0  0  0  0  0  0  0  0  0  0  0  0
   -7.1694   -5.4651   -3.4596 H   0  0  0  0  0  0  0  0  0  0  0  0
   -5.8355   -4.3908   -3.9322 H   0  0  0  0  0  0  0  0  0  0  0  0
   -3.7568   -4.3415   -2.8535 H   0  0  0  0  0  0  0  0  0  0  0  0
   -1.6352   -3.4321   -2.1074 H   0  0  0  0  0  0  0  0  0  0  0  0
    5.2288    0.1195   -3.7072 H   0  0  0  0  0  0  0  0  0  0  0  0
    4.8505    0.1081   -6.1140 H   0  0  0  0  0  0  0  0  0  0  0  0
    3.8124    0.4739   -8.1643 H   0  0  0  0  0  0  0  0  0  0  0  0
    4.0864   -0.5026   -9.6229 H   0  0  0  0  0  0  0  0  0  0  0  0
    5.3278   -0.4691   -8.3520 H   0  0  0  0  0  0  0  0  0  0  0  0
    2.8480   -3.6592   -5.7836 H   0  0  0  0  0  0  0  0  0  0  0  0
    3.2524   -3.6510   -3.3481 H   0  0  0  0  0  0  0  0  0  0  0  0
    4.8385   -0.3169    0.2546 H   0  0  0  0  0  0  0  0  0  0  0  0
    7.0076    0.1882    1.2696 H   0  0  0  0  0  0  0  0  0  0  0  0
   11.0680   -1.5819   -1.0432 H   0  0  0  0  0  0  0  0  0  0  0  0
   10.1247   -2.7256   -0.0305 H   0  0  0  0  0  0  0  0  0  0  0  0
   11.5274   -1.8695    0.6474 H   0  0  0  0  0  0  0  0  0  0  0  0
    8.9917   -1.5682   -2.0890 H   0  0  0  0  0  0  0  0  0  0  0  0
    6.8267   -2.0884   -3.0945 H   0  0  0  0  0  0  0  0  0  0  0  0
    8.9334   -4.2701    2.8229 H   0  0  0  0  0  0  0  0  0  0  0  0
   11.2086   -5.0697    7.4679 H   0  0  0  0  0  0  0  0  0  0  0  0
    7.1793   -2.1822    8.5093 H   0  0  0  0  0  0  0  0  0  0  0  0
    9.2207   -2.4570   11.2646 H   0  0  0  0  0  0  0  0  0  0  0  0
    7.3434   -3.8540   12.1145 H   0  0  0  0  0  0  0  0  0  0  0  0
    6.7125   -5.5010   10.1825 H   0  0  0  0  0  0  0  0  0  0  0  0
    8.8246   -7.0254    9.6664 H   0  0  0  0  0  0  0  0  0  0  0  0
   10.7573   -6.3209   11.2822 H   0  0  0  0  0  0  0  0  0  0  0  0
    8.7651   -5.9150   12.9786 H   0  0  0  0  0  0  0  0  0  0  0  0
    9.8105   -4.4725   12.9951 H   0  0  0  0  0  0  0  0  0  0  0  0
   11.2748   -3.9380   10.7742 H   0  0  0  0  0  0  0  0  0  0  0  0
  1  2  2  0  0  0  0
  2  3  1  0  0  0  0
  3  4  2  0  0  0  0
  3  5  1  0  0  0  0
  5  6  2  0  0  0  0
  6  7  1  0  0  0  0
  7  8  2  0  0  0  0
  8  9  1  0  0  0  0
  9 10  2  0  0  0  0
 10 11  1  0  0  0  0
 11 12  2  0  0  0  0
 12 13  1  0  0  0  0
 13 14  3  0  0  0  0
 12 15  1  0  0  0  0
 15 16  3  0  0  0  0
  8 17  1  0  0  0  0
 17 18  1  0  0  0  0
 18 19  1  0  0  0  0
 19 20  2  0  0  0  0
 20 21  1  0  0  0  0
 21 22  1  0  0  0  0
 21 23  1  0  0  0  0
  1 24  1  0  0  0  0
 24 25  2  0  0  0  0
 25 26  1  0  0  0  0
 26 27  1  0  0  0  0
 25 28  1  0  0  0  0
 28 29  2  0  0  0  0
 29 30  1  0  0  0  0
 29 31  1  0  0  0  0
 31 32  2  0  0  0  0
 32 33  1  0  0  0  0
 33 34  1  0  0  0  0
 34 35  1  0  0  0  0
 33 36  1  0  0  0  0
 36 37  1  0  0  0  0
 32 38  1  0  0  0  0
 38 39  2  0  0  0  0
 39 40  1  0  0  0  0
 39 41  1  0  0  0  0
 41 42  2  0  0  0  0
 42 43  1  0  0  0  0
 43 44  1  0  0  0  0
 44 45  2  0  0  0  0
 45 46  1  0  0  0  0
 46 47  2  0  0  0  0
 47 48  1  0  0  0  0
 48 49  1  0  0  0  0
 47 50  1  0  0  0  0
 50 51  2  0  0  0  0
 43 52  1  0  0  0  0
 52 53  2  0  0  0  0
 53 54  1  0  0  0  0
 54 55  2  0  0  0  0
 55 56  1  0  0  0  0
 56 57  1  0  0  0  0
 55 58  1  0  0  0  0
 58 59  2  0  0  0  0
 42 60  1  0  0  0  0
 60 61  1  0  0  0  0
 61 62  1  0  0  0  0
 62 63  2  0  0  0  0
 63 64  1  0  0  0  0
 64 65  1  0  0  0  0
 65 66  2  0  0  0  0
 66 67  1  0  0  0  0
 67 68  2  0  0  0  0
 68 69  1  0  0  0  0
 69 70  1  0  0  0  0
 68 71  1  0  0  0  0
 71 72  2  0  0  0  0
 64 73  1  0  0  0  0
 73 74  2  0  0  0  0
 74 75  1  0  0  0  0
 75 76  2  0  0  0  0
 76 77  1  0  0  0  0
 77 78  1  0  0  0  0
 76 79  1  0  0  0  0
 79 80  2  0  0  0  0
 63 81  1  0  0  0  0
 81 82  1  0  0  0  0
 62 83  1  0  0  0  0
 83 84  2  0  0  0  0
 84 85  1  0  0  0  0
 85 86  1  0  0  0  0
 86 87  2  0  0  0  0
 87 88  2  0  0  0  0
 85 89  2  0  0  0  0
 89 90  1  0  0  0  0
 90 91  2  0  0  0  0
 91 92  1  0  0  0  0
 92 93  1  0  0  0  0
 93 94  2  0  0  0  0
 89 95  1  0  0  0  0
 95 96  2  0  0  0  0
 96 97  1  0  0  0  0
 97 98  2  0  0  0  0
 97 99  1  0  0  0  0
 99100  2  0  0  0  0
100101  1  0  0  0  0
101102  2  0  0  0  0
102103  1  0  0  0  0
103104  2  0  0  0  0
104105  1  0  0  0  0
105106  2  0  0  0  0
106107  1  0  0  0  0
107108  3  0  0  0  0
106109  1  0  0  0  0
109110  3  0  0  0  0
102111  1  0  0  0  0
111112  1  0  0  0  0
112113  1  0  0  0  0
113114  2  0  0  0  0
114115  1  0  0  0  0
115116  1  0  0  0  0
115117  1  0  0  0  0
 11  2  1  0  0  0  0
 23 17  1  0  0  0  0
 30 24  1  0  0  0  0
 40 31  1  0  0  0  0
 82 41  1  0  0  0  0
 94 83  1  0  0  0  0
105 96  1  0  0  0  0
117111  1  0  0  0  0
 10  5  1  0  0  0  0
 22 18  1  0  0  0  0
 33 28  1  0  0  0  0
 51 44  1  0  0  0  0
 59 52  1  0  0  0  0
 81 60  2  0  0  0  0
 88 84  1  0  0  0  0
 94 90  1  0  0  0  0
104 99  1  0  0  0  0
116112  1  0  0  0  0
 23  7  1  0  0  0  0
 72 65  1  0  0  0  0
 80 73  1  0  0  0  0
117101  1  0  0  0  0
  1118  1  0  0  0  0
  6119  1  0  0  0  0
  9120  1  0  0  0  0
 17121  1  0  0  0  0
 18122  1  0  0  0  0
 19123  1  0  0  0  0
 20124  1  0  0  0  0
 21125  1  0  0  0  0
 22126  1  0  0  0  0
 22127  1  0  0  0  0
 23128  1  0  0  0  0
 26129  1  0  0  0  0
 26130  1  0  0  0  0
 27131  1  0  0  0  0
 27132  1  0  0  0  0
 27133  1  0  0  0  0
 34134  1  0  0  0  0
 34135  1  0  0  0  0
 35136  1  0  0  0  0
 35137  1  0  0  0  0
 35138  1  0  0  0  0
 36139  1  0  0  0  0
 36140  1  0  0  0  0
 37141  1  0  0  0  0
 37142  1  0  0  0  0
 37143  1  0  0  0  0
 38144  1  0  0  0  0
 45145  1  0  0  0  0
 46146  1  0  0  0  0
 49147  1  0  0  0  0
 49148  1  0  0  0  0
 49149  1  0  0  0  0
 50150  1  0  0  0  0
 51151  1  0  0  0  0
 53152  1  0  0  0  0
 54153  1  0  0  0  0
 57154  1  0  0  0  0
 57155  1  0  0  0  0
 57156  1  0  0  0  0
 58157  1  0  0  0  0
 59158  1  0  0  0  0
 66159  1  0  0  0  0
 67160  1  0  0  0  0
 70161  1  0  0  0  0
 70162  1  0  0  0  0
 70163  1  0  0  0  0
 71164  1  0  0  0  0
 72165  1  0  0  0  0
 74166  1  0  0  0  0
 75167  1  0  0  0  0
 78168  1  0  0  0  0
 78169  1  0  0  0  0
 78170  1  0  0  0  0
 79171  1  0  0  0  0
 80172  1  0  0  0  0
 95173  1  0  0  0  0
100174  1  0  0  0  0
103175  1  0  0  0  0
111176  1  0  0  0  0
112177  1  0  0  0  0
113178  1  0  0  0  0
114179  1  0  0  0  0
115180  1  0  0  0  0
116181  1  0  0  0  0
116182  1  0  0  0  0
117183  1  0  0  0  0
M  END
