184

C         -4.78610        2.09170       -4.01410
C         -6.04910        2.24540       -3.54070
C         -6.41680        2.24020       -2.09960
O         -5.69030        2.04090       -1.14900
C         -7.84090        2.60990       -2.04710
C         -8.62330        2.73580       -0.90060
C         -9.92690        3.08940       -1.14890
C        -10.41790        3.30500       -2.44420
C         -9.65730        3.18680       -3.58240
C         -8.32420        2.82800       -3.35240
C         -7.23240        2.62020       -4.29880
C         -7.32750        2.73120       -5.66010
C         -6.27300        2.53630       -6.57810
N         -5.48130        2.40830       -7.39990
C         -8.50620        3.07480       -6.35590
N         -9.42230        3.34840       -6.99170
C        -11.80420        3.63570       -1.94970
C        -12.18970        5.12990       -1.92480
C        -13.36280        5.18500       -0.97300
C        -12.89800        4.98090        0.25290
C        -11.40260        4.78440        0.15050
C        -11.09390        5.71860       -1.02660
C        -11.25680        3.39510       -0.50620
C         -3.65990        1.60990       -3.25780
C         -2.40930        2.24950       -3.37230
C         -2.08280        3.41700       -4.11730
C         -0.80510        3.83150       -3.95150
C         -0.12020        4.99040       -4.58650
C          1.01850        4.53420       -5.50000
S          0.08150        2.80730       -2.85330
C         -1.30430        1.77820       -2.63680
C         -1.34670        0.63740       -1.84190
C         -2.58930       -0.00900       -1.72850
C         -3.71080        0.48890       -2.42570
S         -5.07640       -0.56800       -2.23260
C         -4.16130       -1.64330       -1.20570
C         -4.79810       -2.87960       -0.67510
C         -4.76790       -3.99850       -1.71880
C         -2.88910       -1.22130       -1.03970
C         -0.15110        0.09620       -1.22710
C          1.04960       -0.20660       -1.84070
N          1.34230       -0.06230       -3.18850
C          2.63870        0.33640       -3.53670
C          3.33800        1.23360       -2.72670
C          4.63690        1.57400       -3.02610
C          5.26680        1.03940       -4.14780
S          6.94440        1.52940       -4.40510
C          7.44760        0.61970       -5.89150
C          4.56290        0.17740       -4.97790
C          3.26190       -0.17300       -4.67150
C          0.32870       -0.18670       -4.14680
C         -0.68610       -1.12550       -3.98050
C         -1.78350       -1.13740       -4.81860
C         -1.87870       -0.21250       -5.84910
S         -3.27460       -0.05290       -6.91540
C         -4.56290       -1.02650       -6.08950
C         -0.81750        0.66160       -6.07970
C          0.27530        0.67400       -5.24390
C          1.96220       -0.77170       -0.91060
S          3.59470       -1.33490       -0.99860
C          3.55540       -1.78840        0.69590
C          2.34880       -1.49350        1.29500
N          2.01000       -1.68380        2.63020
C          0.67490       -2.04770        2.86370
C         -0.09960       -1.40180        3.82480
C         -1.45340       -1.65830        3.90760
C         -2.04920       -2.55630        3.03260
S         -3.80880       -2.81780        3.02940
C         -4.37660       -1.10380        2.79530
C         -1.26880       -3.26310        2.12860
C          0.08380       -3.01200        2.04580
C          2.92080       -1.45110        3.65900
C          3.96080       -0.53640        3.49400
C          4.93980       -0.39680        4.45570
C          4.87140       -1.14020        5.62440
S          6.11760       -1.10330        6.87780
C          7.53040       -0.30870        6.05780
C          3.77830       -1.97430        5.84380
C          2.82300       -2.14340        4.86570
C          1.45040       -0.91280        0.36470
S         -0.17200       -0.33650        0.47170
C          4.71780       -2.33680        1.36800
C          5.95650       -1.67290        1.37500
C          6.34170       -0.50010        0.66060
C          7.57670       -0.05270        0.97260
C          8.28770        1.14000        0.43770
C          8.27830        2.28710        1.45050
S          8.33490       -1.03150        2.20950
C          6.96820       -2.10710        2.25400
C          6.83050       -3.20190        3.11770
C          5.66860       -3.97840        2.94850
C          4.62780       -3.49960        2.12440
S          3.26360       -4.57700        2.15370
C          4.12290       -5.69760        3.17440
C          3.43190       -6.91760        3.66940
C          2.49250       -6.54400        4.81970
C          5.36090       -5.25340        3.49340
C          7.85070       -3.42030        4.10200
C          7.72190       -3.80870        5.39590
C          6.46110       -4.03210        6.16980
O          5.32220       -4.09980        5.75240
C          6.89560       -4.16320        7.56330
C          8.27110       -4.07150        7.63380
S          8.89140       -4.18670        9.23910
C          7.25700       -4.36150        9.85060
C          6.89770       -4.51670       11.17980
C          5.55730       -4.64220       11.48590
C          4.58360       -4.61800       10.48560
C          4.93220       -4.46640        9.16360
C          6.28080       -4.33310        8.82790
C          8.84450       -3.88670        6.33190
C         10.18890       -3.82130        6.06940
C         11.13640       -3.90920        7.11170
N         11.92210       -3.97240        7.94560
C         10.78500       -3.68660        4.80090
N         11.34800       -3.58860        3.80440
H         -4.56720        2.37330       -5.03690
H         -8.20310        2.55620        0.07670
H        -10.05210        3.35580       -4.57000
H        -12.60410        2.99590       -2.31730
H        -12.33150        5.57960       -2.90360
H        -14.38330        5.30710       -1.28520
H        -13.45250        4.89840        1.16930
H        -10.82750        4.92010        1.06260
H        -11.27950        6.76320       -0.78230
H        -10.08710        5.61160       -1.42610
H        -11.69210        2.59490        0.08970
H         -2.78380        3.92860       -4.75240
H          0.28660        5.64290       -3.80900
H         -0.85280        5.55910       -5.16250
H          0.63440        3.89000       -6.28760
H          1.76320        3.98330       -4.92870
H          1.49950        5.39440       -5.95820
H         -4.26660       -3.19970        0.22310
H         -5.83480       -2.67000       -0.40380
H         -5.23070       -4.89660       -1.31850
H         -5.30940       -3.69640       -2.61290
H         -3.74170       -4.22940       -1.99620
H         -2.17540       -1.75740       -0.44020
H          2.85030        1.66610       -1.86580
H          5.18000        2.26370       -2.39780
H          7.36200       -0.44900       -5.71750
H          6.84770        0.93300       -6.74110
H          8.48720        0.88430       -6.05770
H          5.01800       -0.24120       -5.86100
H          2.72480       -0.85670       -5.31200
H         -0.62640       -1.83920       -3.17210
H         -2.56160       -1.86440       -4.64930
H         -4.34080       -2.08760       -6.15940
H         -4.66020       -0.71220       -5.05410
H         -5.47850       -0.80700       -6.63020
H         -0.88120        1.35090       -6.90750
H          1.07790        1.37670       -5.40830
H          0.35890       -0.67780        4.48190
H         -2.05210       -1.13850        4.64010
H         -5.44430       -1.16010        2.61120
H         -4.18490       -0.51760        3.68850
H         -3.87090       -0.67480        1.93530
H         -1.73130       -3.99410        1.48290
H          0.69180       -3.54050        1.32680
H          4.00970        0.06630        2.59970
H          5.74500        0.29950        4.28230
H          7.34060        0.75260        5.92640
H          7.72530       -0.79440        5.10550
H          8.37550       -0.44660        6.72580
H          3.69750       -2.50220        6.77970
H          2.00660       -2.83180        5.02230
H          5.71930       -0.02440       -0.07590
H          7.79910        1.45580       -0.48640
H          9.32210        0.87570        0.20680
H          7.25620        2.57300        1.68980
H          8.79470        3.15190        1.04280
H          8.77880        1.98420        2.36800
H          4.17920       -7.63130        4.02170
H          2.85770       -7.38070        2.86370
H          2.03810       -7.43550        5.24420
H          1.70360       -5.88580        4.46120
H          3.05100       -6.02440        5.59490
H          6.05440       -5.82740        4.08010
H          8.83970       -3.11070        3.77730
H          7.65140       -4.53710       11.95130
H          5.25730       -4.76190       12.51580
H          3.54420       -4.72060       10.75870
H          4.19230       -4.45080        8.37880
