222

C          1.57300       -7.09140        3.33850
C          0.55980       -8.00650        3.35380
C         -0.56790       -7.97620        2.40240
O         -0.84790       -7.08450        1.62260
C         -1.18230       -9.31530        2.47470
C         -2.24120       -9.80290        1.71090
C         -2.54710      -11.12230        1.94770
C         -1.84060      -11.91380        2.86240
C         -0.80840      -11.44290        3.63910
C         -0.49330      -10.09960        3.42340
C          0.54050       -9.27630        4.03800
C          1.27910       -9.57890        5.15180
C          2.13240       -8.64570        5.77560
N          2.80630       -7.90810        6.34170
C          1.21950      -10.80590        5.84040
N          1.21680      -11.78840        6.43440
C         -2.62990      -13.15490        2.52220
C         -3.69940      -13.60810        3.53630
C         -4.61390      -14.50240        2.73140
C         -5.30410      -13.73130        1.90090
C         -4.86240      -12.30260        2.12620
C         -4.57110      -12.35100        3.63150
C         -3.44020      -12.26320        1.52680
C          1.47440       -5.78340        2.79970
C          0.58850       -4.74350        3.08860
N         -0.32910       -4.67550        4.10330
C         -0.48120       -3.47540        4.81320
C         -1.72840       -3.08660        5.30110
C         -1.86780       -1.89160        5.97150
C         -0.77010       -1.05770        6.17440
S         -1.06950        0.46870        7.00680
C          0.47720        1.39290        6.77120
C          0.48240       -1.46470        5.73530
C          0.62330       -2.66440        5.06920
C         -1.12670       -5.78220        4.49920
C         -2.29690       -6.05640        3.80650
C         -3.08030       -7.13650        4.16460
C         -2.70000       -7.94060        5.23010
S         -3.60220       -9.37310        5.72540
C         -5.24680       -9.09390        4.99990
C         -1.54510       -7.64000        5.94990
C         -0.76500       -6.55950        5.59320
C          0.88650       -3.60760        2.29030
S          0.10910       -2.08160        2.07310
C          1.24930       -1.66500        0.81010
C          2.19790       -2.63800        0.60680
N          3.29370       -2.49920       -0.26540
C          4.53060       -2.19960        0.32080
C          4.59630       -1.35460        1.42690
C          5.80670       -1.05830        2.02510
C          6.97940       -1.60900        1.52920
S          8.58340       -1.28750        2.19880
C          8.22800       -0.65590        3.86310
C          6.92000       -2.46070        0.42860
C          5.71430       -2.75920       -0.16410
C          3.17850       -2.94160       -1.58440
C          3.94110       -2.35990       -2.59560
C          3.81340       -2.77220       -3.90690
C          2.90700       -3.76940       -4.23720
S          2.62880       -4.35210       -5.88060
C          3.95530       -3.58250       -6.85030
C          2.14490       -4.35650       -3.23290
C          2.28020       -3.95290       -1.92230
C          1.97660       -3.75220        1.45290
S          2.71530       -5.29840        1.63800
C          1.17250       -0.38080        0.15260
C          0.69870       -0.10570       -1.11110
N          0.10100       -1.05350       -1.93170
C         -0.85400       -1.89890       -1.33560
C         -0.90980       -3.25750       -1.62630
C         -1.81200       -4.08300       -0.98280
C         -2.69370       -3.55620       -0.04930
S         -3.89150       -4.50610        0.82960
C         -3.63430       -6.20270        0.23570
C         -2.66740       -2.19000        0.22040
C         -1.75880       -1.37200       -0.41280
C          0.39520       -1.08480       -3.29320
C         -0.48920       -1.64810       -4.21140
C         -0.18790       -1.67680       -5.55760
C          0.99780       -1.12440       -6.02010
S          1.45790       -1.09560       -7.72860
C          0.52080       -2.48730       -8.42330
C          1.87220       -0.53620       -5.11390
C          1.58320       -0.52720       -3.76780
C          0.83470        1.27470       -1.41040
S          0.40920        2.26040       -2.75880
C          0.97630        3.71230       -1.91710
C          1.43570        3.42520       -0.63220
N          1.86750        4.30660        0.33960
C          2.80880        3.84650        1.27670
C          3.91120        3.09520        0.86710
C          4.80630        2.61190        1.79540
C          4.62440        2.87790        3.15040
S          5.80320        2.18020        4.26470
C          5.49810        3.04400        5.83040
C          3.54140        3.64350        3.56160
C          2.64240        4.12310        2.63060
C          1.34900        5.59880        0.49100
C          2.20250        6.63270        0.88700
C          1.74560        7.92680        0.93940
C          0.42750        8.23120        0.59520
S          0.00830        9.94040        0.60480
C         -1.60670       10.01600       -0.21290
C         -0.44220        7.19790        0.26730
C          0.01410        5.89330        0.22370
C          1.36330        2.02840       -0.37920
S          1.71060        1.05250        1.00620
C          0.81330        4.93570       -2.61910
S          1.71480        6.39150       -2.25180
C          0.72880        7.28250       -3.33970
C          0.44380        8.62970       -3.62070
C         -0.60660        8.68630       -4.55800
C         -1.04260        7.29460       -4.94830
C         -0.75450        7.00690       -6.43470
C          0.70950        7.20000       -6.80910
C         -2.53620        7.06370       -4.65800
C         -2.91510        7.34950       -3.20980
C         -0.16400        6.46730       -4.04340
C         -0.10340        5.14350       -3.64500
C         -1.03650        9.96750       -4.81180
C         -0.35280       10.92200       -4.05100
S          0.89070       10.16920       -3.03830
C         -0.59480       12.28320       -3.85920
C         -1.39520       13.14990       -4.57160
C         -1.88710       13.00650       -5.95520
O         -1.91050       12.01710       -6.66020
C         -2.32860       14.36310       -6.35270
C         -2.80410       14.79590       -7.57500
C         -3.15240       16.13060       -7.71660
C         -3.01860       16.99920       -6.64020
Cl        -3.44950       18.65600       -6.84090
C         -2.54700       16.57600       -5.40080
C         -2.20110       15.24380       -5.26500
C         -1.71140       14.48290       -4.11830
C         -1.71550       14.90120       -2.81000
C         -1.51790       14.02870       -1.72160
N         -1.44710       13.34240       -0.80250
C         -2.02840       16.21180       -2.40070
N         -2.26050       17.26930       -2.01820
H          2.56020       -7.39410        3.67160
H         -2.74490       -9.17500        0.99170
H         -0.26620      -12.05720        4.33870
H         -2.04690      -13.97990        2.11740
H         -3.30510      -14.01460        4.46300
H         -4.62740      -15.57360        2.80870
H         -6.00660      -14.02950        1.14470
H         -5.53160      -11.52450        1.76650
H         -4.03440      -11.48680        4.01470
H         -5.47190      -12.51640        4.22020
H         -3.42150      -12.51260        0.46710
H         -2.58940       -3.71600        5.13780
H         -2.83540       -1.58260        6.33580
H          0.27620        2.39510        7.13700
H          1.27600        0.94330        7.35440
H          0.72670        1.42500        5.71450
H          1.36010       -0.86480        5.91260
H          1.60640       -2.97720        4.74920
H         -2.58320       -5.43020        2.97580
H         -3.97610       -7.34280        3.60240
H         -5.89420       -9.84330        5.44380
H         -5.21680       -9.22880        3.92250
H         -5.59320       -8.09980        5.26450
H         -1.26910       -8.26350        6.78690
H          0.13190       -6.32600        6.14750
H          3.69420       -0.91310        1.82450
H          5.82010       -0.38880        2.87070
H          7.81930        0.34870        3.80980
H          9.18220       -0.63950        4.38040
H          7.54300       -1.33130        4.36620
H          7.83270       -2.89770        0.05350
H          5.68150       -3.44430       -0.99740
H          4.63830       -1.57260       -2.34990
H          4.41720       -2.29730       -4.66280
H          3.88710       -4.02180       -7.84080
H          4.91700       -3.82060       -6.40580
H          3.79670       -2.50990       -6.91430
H          1.45570       -5.14650       -3.49320
H          1.69620       -4.43160       -1.15100
H         -0.23440       -3.66970       -2.35790
H         -1.80510       -5.13630       -1.21040
H         -3.79430       -6.24570       -0.83780
H         -2.63780       -6.53830        0.51240
H         -4.38680       -6.80100        0.74130
H         -3.36340       -1.77990        0.93610
H         -1.74290       -0.31530       -0.18990
H         -1.42800       -2.05800       -3.87110
H         -0.89360       -2.12270       -6.24010
H          0.64170       -3.35310       -7.77890
H          0.95620       -2.68160       -9.39850
H         -0.52570       -2.21930       -8.53720
H          2.78820       -0.09290       -5.47400
H          2.29480       -0.10420       -3.07600
H          4.06110        2.89410       -0.18310
H          5.65420        2.02410        1.47920
H          4.54760        2.73280        6.25450
H          5.52610        4.11690        5.66600
H          6.30790        2.74900        6.49060
H          3.37650        3.86210        4.60460
H          1.79460        4.70830        2.95440
H          3.23420        6.41150        1.11440
H          2.41000        8.73020        1.21670
H         -2.37620        9.59200        0.42550
H         -1.79320       11.07540       -0.37000
H         -1.55690        9.49860       -1.16660
H         -1.47700        7.39820        0.03790
H         -0.66550        5.09780       -0.04640
H         -1.05250        5.97870       -6.65000
H         -1.37290        7.67490       -7.03670
H          1.34790        6.53230       -6.23490
H          1.02290        8.22440       -6.62240
H          0.85200        6.98620       -7.86540
H         -3.12040        7.70650       -5.31870
H         -2.77540        6.02580       -4.89730
H         -2.32340        6.73960       -2.53010
H         -3.96660        7.12470       -3.04820
H         -2.75120        8.39800       -2.97050
H         -0.73050        4.35350       -4.01790
H         -1.82230       10.24040       -5.49080
H         -0.06450       12.71120       -3.01470
H         -2.90020       14.10290       -8.39640
H         -3.52700       16.50320       -8.65680
H         -2.45440       17.27850       -4.58870
