213

C          7.23160        5.30580        5.77850
C          7.84000        6.36660        5.16910
C          8.18790        6.48160        3.74060
O          8.18530        5.60790        2.89410
C          8.56240        7.88930        3.52460
C          8.87950        8.49110        2.30840
C          9.16710        9.83080        2.40610
C          9.14090       10.52250        3.62490
C          8.83150        9.94090        4.83120
C          8.53750        8.57540        4.75500
C          8.15040        7.63580        5.80450
C          8.12450        7.91420        7.14660
C          8.47120        9.16060        7.70980
N          8.73940       10.14250        8.24140
C          7.78020        7.00690        8.17060
N          7.51650        6.33850        9.06740
C          9.52440       11.83190        2.98170
C         10.99120       12.28110        3.15090
C         11.18600       13.29940        2.05070
C         11.20970       12.64620        0.89600
C         11.03190       11.17530        1.19640
C         11.75200       11.09280        2.54850
C          9.55300       11.06100        1.62290
C          6.79510        4.07950        5.23960
C          6.01690        3.18830        5.95470
C          5.57760        2.08280        5.21000
C          4.65910        1.07080        5.59440
C          4.15120        0.99750        6.94120
C          4.82970        1.23260        8.10720
C          4.06690        1.19250        9.28840
C          2.73640        0.93490        9.11020
S          1.60230        0.77300       10.42860
C          0.00360        0.85150        9.54860
C         -0.32080        2.25360        9.07420
Se         2.32890        0.64510        7.29210
C          4.20290        0.25080        4.57170
C          4.66650        0.32560        3.23620
C          5.66670        1.25130        2.87890
C          6.17900        1.33190        1.53400
C          6.37900        0.29700        0.65710
C          6.85800        0.64710       -0.61690
C          7.04720        1.98790       -0.81160
S          7.56540        2.67580       -2.33250
C          7.97750        4.38790       -1.84430
C          9.27700        4.47480       -1.07040
Se         6.62200        2.97760        0.73400
C          6.05750        2.14100        3.87760
S          7.06820        3.52100        3.60550
C          3.88080       -0.46670        2.36650
C          2.86000       -1.12310        2.98400
S          2.90210       -0.90520        4.72510
C          1.72780       -1.68970        2.31850
C          1.07410       -1.07250        1.26190
N          1.36910        0.17800        0.74270
C          1.11110        0.38710       -0.62100
C          1.43830       -0.60320       -1.54810
C          1.08450       -0.45920       -2.86990
C          0.40930        0.68180       -3.29740
S         -0.05170        0.72600       -4.99740
C         -1.14800        2.16370       -5.11720
C          0.13650        1.69620       -2.38910
C          0.48120        1.54670       -1.06050
C          1.77720        1.23500        1.56470
C          1.29730        1.36110        2.86650
C          1.76850        2.35270        3.70430
C          2.71170        3.26030        3.24390
S          3.40790        4.55630        4.22070
C          2.63780        4.34710        5.84930
C          3.15740        3.17040        1.92670
C          2.70500        2.16850        1.09840
C         -0.00260       -1.87070        0.80800
S         -1.18650       -1.69180       -0.43290
C         -1.94520       -3.21760        0.02600
C         -1.32010       -3.79860        1.12380
N         -1.66000       -4.98500        1.76140
C         -2.94410       -5.21440        2.25540
C         -3.79420       -4.15640        2.56840
C         -5.07080       -4.39140        3.04240
C         -5.51870       -5.69250        3.21790
S         -7.12560       -6.11320        3.82170
C         -8.05390       -4.55840        3.69600
C         -4.66810       -6.75560        2.91670
C         -3.40100       -6.52260        2.43800
C         -0.59180       -5.82270        2.12580
C         -0.51880       -6.40200        3.38850
C          0.55260       -7.20140        3.73550
C          1.57770       -7.42650        2.82650
S          2.99940       -8.41750        3.15620
C          2.74830       -8.99750        4.85760
C          1.51010       -6.84450        1.56170
C          0.43790       -6.05560        1.21310
C         -0.19950       -3.03040        1.53480
S          0.95940       -3.18730        2.81280
C         -3.01780       -3.64450       -0.80480
C         -3.36880       -3.05640       -1.99460
C         -4.47520       -3.65180       -2.63520
C         -5.05850       -3.30080       -3.87300
C         -4.47910       -2.32820       -4.77350
C         -5.14890       -1.50480       -5.63770
C         -4.36160       -0.81730       -6.57920
C         -3.02260       -1.07500       -6.51680
S         -1.84620       -0.34530       -7.58260
C         -0.52470       -1.60290       -7.56550
C         -0.93160       -2.86170       -8.30250
Se        -2.61390       -2.22600       -5.08160
C         -6.20710       -4.00640       -4.23380
C         -6.75080       -5.05250       -3.44100
C         -6.12820       -5.44780       -2.23000
C         -6.62270       -6.53670       -1.41920
C         -6.67810       -6.58960       -0.05230
C         -7.20110       -7.77120        0.50290
C         -7.55800       -8.72890       -0.40390
S         -8.17280      -10.30620        0.02440
C         -9.04610      -10.77570       -1.51380
C        -10.30120       -9.95740       -1.73410
Se        -7.21260       -8.16550       -2.16650
C         -5.00720       -4.71780       -1.86490
S         -4.05600       -5.00070       -0.42930
C         -7.91470       -5.57890       -4.01660
C         -8.25970       -5.01220       -5.22870
S         -7.13260       -3.75700       -5.68980
C         -9.39700       -5.44270       -5.94160
C         -9.92540       -5.01750       -7.12510
C         -9.41430       -3.91000       -7.97170
O         -8.43240       -3.22010       -7.78140
C        -10.36300       -3.83620       -9.07330
S        -10.56190       -2.87030      -10.47030
C        -11.99920       -3.76040      -10.89830
C        -12.74960       -3.40340      -12.12800
C        -12.29400       -4.74770       -9.99980
C        -11.35850       -4.79580       -8.94940
C        -11.11830       -5.56910       -7.74760
C        -11.89480       -6.62080       -7.33130
C        -11.68500       -7.41370       -6.18650
N        -11.58190       -8.10940       -5.27740
C        -13.03140       -7.02980       -8.05940
N        -13.96210       -7.37770       -8.63390
H          6.97850        5.42030        6.82600
H          8.87750        7.92080        1.39260
H          8.80510       10.49090        5.75680
H          8.81320       12.64650        3.10420
H         11.25900       12.58990        4.15750
H         11.22860       14.36000        2.21550
H         11.27590       13.05220       -0.09640
H         11.33800       10.47740        0.42160
H         12.81890       11.29020        2.45920
H         11.59840       10.15350        3.07660
H          8.85920       11.36100        0.83950
H          5.72750        3.38070        6.97280
H          5.89380        1.39890        8.12380
H          4.49240        1.35690       10.26310
H         -0.72950        0.49790       10.27280
H          0.05740        0.14290        8.71570
H         -0.35420        2.94100        9.91600
H          0.43510        2.60400        8.37000
H         -1.28740        2.26050        8.57490
H          6.24170       -0.73170        0.94650
H          7.07010       -0.08010       -1.38170
H          8.03820        4.93340       -2.78590
H          7.13290        4.76780       -1.26000
H          9.51170        5.51690       -0.86450
H          9.19570        3.95110       -0.11810
H         10.09140        4.03740       -1.64350
H          4.02010       -0.49280        1.30160
H          1.95550       -1.49240       -1.21870
H          1.31620       -1.23260       -3.58610
H         -1.95680        2.06610       -4.39880
H         -1.54540        2.13950       -6.12740
H         -0.58430        3.07900       -4.96130
H         -0.36120        2.60090       -2.69870
H          0.24370        2.32580       -0.35120
H          0.55790        0.66530        3.23480
H          1.39050        2.39900        4.71490
H          2.87370        3.36350        6.24940
H          3.07530        5.11480        6.48020
H          1.56450        4.49710        5.77610
H          3.88240        3.88890        1.56950
H          3.08070        2.09010        0.08860
H         -3.45380       -3.13920        2.44070
H         -5.70110       -3.54820        3.27680
H         -7.69420       -3.84260        4.42980
H         -7.97340       -4.16510        2.68690
H         -9.08630       -4.81590        3.91130
H         -5.02120       -7.76630        3.05060
H         -2.75890       -7.35140        2.18320
H         -1.30210       -6.21720        4.10830
H          0.57880       -7.63090        4.72370
H          2.71560       -8.15130        5.53770
H          3.60980       -9.61830        5.08330
H          1.84090       -9.59130        4.91820
H          2.30780       -7.02500        0.85760
H          0.38750       -5.61290        0.22910
H         -2.84940       -2.19220       -2.37580
H         -6.21720       -1.37920       -5.60550
H         -4.78370       -0.16470       -7.32350
H          0.32730       -1.11620       -8.03810
H         -0.28630       -1.79730       -6.51600
H         -1.19090       -2.63250       -9.33360
H         -1.79430       -3.32480       -7.82390
H         -0.11000       -3.57490       -8.29660
H         -6.39790       -5.75250        0.56400
H         -7.33450       -7.90640        1.56200
H         -9.27550      -11.83320       -1.38900
H         -8.33410      -10.65840       -2.33690
H        -10.99630      -10.09690       -0.90960
H        -10.06130       -8.89660       -1.80910
H        -10.78440      -10.26050       -2.66000
H         -8.52570       -6.34180       -3.56310
H         -9.92060       -6.24980       -5.44190
H        -12.11500       -3.50560      -13.00780
H        -13.61380       -4.05300      -12.23950
H        -13.08870       -2.36880      -12.08330
H        -13.14300       -5.39860      -10.09850
