226

C          3.17090        0.65850        6.43350
C          2.86890       -0.16140        7.49440
C          1.56610       -0.76690        7.77830
O          0.47910       -0.45880        7.31610
C          1.82710       -1.86080        8.73530
C          0.90770       -2.77520        9.24370
C          1.45250       -3.70490       10.09690
C          2.81310       -3.72470       10.42530
C          3.73150       -2.82650        9.93430
C          3.19850       -1.87350        9.06160
C          3.85870       -0.78580        8.33950
C          5.18920       -0.45460        8.43730
C          5.80320        0.64930        7.81420
N          6.37910        1.53710        7.36450
C          6.13420       -1.17300        9.19570
N          6.95520       -1.73260        9.77250
C          2.66000       -4.92110       11.33160
C          2.65060       -4.64060       12.84890
C          2.01600       -5.87810       13.44160
C          0.72610       -5.85820       13.13130
C          0.46720       -4.60710       12.32320
C          1.47990       -3.65720       12.97570
C          1.14090       -4.89820       10.96570
C          2.36290        1.14360        5.40490
C          2.88070        1.57490        4.15960
N          4.17210        1.39720        3.73150
C          4.97260        0.32470        4.16760
C          6.33280        0.52590        4.39590
C          7.10190       -0.48800        4.92350
C          6.52940       -1.71760        5.23980
S          7.57220       -2.91730        6.00410
C          6.39220       -4.06410        6.77370
C          5.19130       -1.94590        4.93710
C          4.42390       -0.93630        4.39420
C          4.65980        2.21780        2.69720
C          4.52190        3.60290        2.77560
C          4.99510        4.40000        1.75730
C          5.59560        3.83160        0.63550
S          6.12270        4.93790       -0.63220
C          7.32410        3.95560       -1.57250
C          5.73410        2.45190        0.55530
C          5.27990        1.65450        1.58600
C          1.86240        2.09390        3.34930
S          1.83210        2.68790        1.71810
C          0.07690        2.73830        1.77140
C         -0.42870        2.45600        3.03840
N         -1.77140        2.61750        3.33650
C         -2.37920        1.73710        4.23500
C         -3.30780        2.18310        5.17400
C         -3.81970        1.30770        6.10710
C         -3.40630       -0.01910        6.12480
S         -4.04190       -1.07770        7.39040
C         -2.59980       -2.13910        7.70270
C         -2.52560       -0.48130        5.15730
C         -2.02130        0.39060        4.21680
C         -2.37130        3.84230        2.99070
C         -3.70440        3.89120        2.58430
C         -4.27660        5.09580        2.23860
C         -3.53670        6.27590        2.29750
S         -4.35760        7.76290        1.81720
C         -3.26390        9.07800        2.42740
C         -2.21080        6.23120        2.70620
C         -1.63640        5.02300        3.04430
C          0.59300        2.04450        3.92280
S          0.60670        1.29810        5.48160
C         -0.65310        2.73090        0.56330
C         -0.11630        2.94290       -0.70410
N          1.02620        3.71850       -0.88180
C          2.09690        3.26150       -1.64430
C          2.38320        1.89660       -1.68740
C          3.45180        1.43270       -2.42100
C          4.25710        2.32090       -3.12590
S          5.64860        1.64560       -3.99630
C          5.92370        2.86100       -5.31950
C          3.97440        3.67900       -3.09310
C          2.89820        4.14330       -2.36580
C          0.96520        5.01890       -0.35800
C         -0.24760        5.70990       -0.36550
C         -0.33530        6.96890        0.18060
C          0.78160        7.56350        0.76260
S          0.53490        9.15690        1.49080
C          2.21390        9.74530        1.83880
C          1.99280        6.88610        0.76310
C          2.08430        5.62700        0.20150
C         -0.92950        2.37990       -1.70550
S         -0.81300        2.21170       -3.41960
C         -2.33460        1.33010       -3.45460
C         -2.95060        1.28110       -2.20720
N         -4.23070        0.85120       -1.92680
C         -4.46790        0.27790       -0.66370
C         -5.56860        0.66570        0.09260
C         -5.78310        0.12570        1.34630
C         -4.89700       -0.81180        1.86210
S         -5.08810       -1.58860        3.43410
C         -6.29400       -0.54480        4.29490
C         -3.80210       -1.21260        1.09860
C         -3.58920       -0.67690       -0.15170
C         -5.22970        0.82380       -2.90520
C         -5.28910        1.80140       -3.89580
C         -6.14450        1.66650       -4.97020
C         -6.96990        0.55330       -5.06760
S         -7.98370        0.19820       -6.46370
C         -7.36090        1.32540       -7.73960
C         -7.00440       -0.35910       -4.01440
C         -6.15090       -0.22450       -2.94330
C         -2.11310        1.84140       -1.21640
S         -2.24830        2.00240        0.50130
C         -2.79500        0.67560       -4.64850
C         -3.39850       -0.59990       -4.55260
N         -3.54030       -1.42140       -3.50340
N         -4.17560       -2.45130       -3.98390
C         -4.50730       -3.57500       -3.15620
C         -3.46580       -4.67880       -3.31070
N         -4.47010       -2.42270       -5.25400
C         -3.98530       -1.24620       -5.67490
C         -3.91350       -0.68920       -6.96680
C         -3.26170        0.53140       -7.05480
C         -2.72800        1.19700       -5.93480
Cl        -2.02160        2.74750       -6.17900
Cl        -3.20260        1.33250       -8.57660
C         -4.47150       -1.39740       -8.10080
C         -3.74390       -1.75720       -9.17920
C         -2.25010       -1.75590       -9.20350
O         -1.49740       -1.21150       -8.42880
C         -1.88140       -2.64610      -10.31910
C         -0.59480       -3.05100      -10.66950
C         -0.54970       -3.91090      -11.73970
C         -1.70080       -4.34760      -12.41160
C         -2.97550       -3.95940      -12.07670
C         -3.04310       -3.07680      -10.99400
C         -4.20330       -2.45890      -10.36700
C         -5.47950       -2.43510      -10.85630
C         -6.52570       -1.68400      -10.27990
N         -7.40950       -1.06240       -9.89360
C         -5.89310       -3.08950      -12.03570
N         -6.28800       -3.60330      -12.98300
C         -0.91170       -5.19610      -13.37650
C         -0.70250       -4.65060      -14.81080
C         -0.77180       -3.14670      -14.71190
C          0.31710       -2.73200      -14.07840
C          1.14240       -3.94810      -13.73700
C          0.81660       -4.84390      -14.94270
C          0.36990       -4.70790      -12.63020
H          4.21860        0.90220        6.31420
H         -0.13320       -2.73350        8.96500
H          4.77610       -2.85570       10.19580
H          3.24720       -5.79780       11.06420
H          3.60860       -4.33610       13.26110
H          2.56310       -6.64290       13.96080
H         -0.01970       -6.60300       13.33930
H         -0.56440       -4.27180       12.25750
H          1.62440       -2.72350       12.43540
H          1.23320       -3.44260       14.01400
H          0.71530       -5.76060       10.45530
H          6.77080        1.49110        4.19540
H          8.14720       -0.32570        5.13250
H          5.94020       -4.70760        6.02410
H          6.97630       -4.66030        7.46740
H          5.63800       -3.50280        7.31740
H          4.73900       -2.90830        5.11690
H          3.38410       -1.11880        4.16650
H          4.05850        4.04490        3.64490
H          4.91490        5.47410        1.82340
H          8.05310        3.53030       -0.88950
H          6.82090        3.17900       -2.14050
H          7.81230        4.65300       -2.24640
H          6.18050        1.98730       -0.30870
H          5.38980        0.58200        1.52480
H         -3.60020        3.22230        5.18990
H         -4.52310        1.65210        6.84990
H         -2.58730       -2.97200        7.00450
H         -1.70310       -1.53200        7.60840
H         -2.71290       -2.51090        8.71710
H         -2.23480       -1.51850        5.12890
H         -1.34620        0.03130        3.45450
H         -4.27930        2.97840        2.53800
H         -5.30560        5.13790        1.91610
H         -3.81200       10.00310        2.27840
H         -2.33680        9.10710        1.86150
H         -3.07110        8.92780        3.48520
H         -1.61550        7.12710        2.77030
H         -0.60440        4.99930        3.36230
H          1.76580        1.20610       -1.13260
H          3.67860        0.37800       -2.44960
H          6.40320        3.75320       -4.92660
H          6.58150        2.37730       -6.03480
H          4.97350        3.10000       -5.78660
H          4.58510        4.38730       -3.62990
H          2.67870        5.19970       -2.35640
H         -1.12220        5.26130       -0.81170
H         -1.27060        7.50530        0.14940
H          2.80920        9.70550        0.93130
H          2.66170        9.15430        2.63260
H          2.10290       10.77470        2.16540
H          2.87510        7.32230        1.20320
H          3.02690        5.10270        0.20900
H         -6.25670        1.39580       -0.30700
H         -6.64370        0.44400        1.91270
H         -5.96830        0.49040        4.25460
H         -6.29430       -0.88840        5.32500
H         -7.28200       -0.67170        3.86170
H         -3.12750       -1.95220        1.50140
H         -2.74960       -0.99200       -0.75280
H         -4.64150        2.66310       -3.83820
H         -6.15010        2.43000       -5.73100
H         -6.27750        1.26290       -7.78450
H         -7.78750        0.96600       -8.67090
H         -7.69130        2.34090       -7.54050
H         -7.68640       -1.19390       -4.06820
H         -6.15690       -0.95690       -2.14960
H         -4.54010       -3.21690       -2.12540
H         -5.49090       -3.93480       -3.46380
H         -2.48570       -4.31660       -3.01040
H         -3.41850       -5.00440       -4.34680
H         -3.73250       -5.52690       -2.68680
H         -5.50460       -1.70890       -8.00060
H          0.26480       -2.69700      -10.12210
H         -3.85430       -4.31050      -12.59210
H         -1.13390       -6.26130      -13.36570
H         -1.33420       -5.11160      -15.56520
H         -1.60700       -2.56270      -15.05150
H          0.57380       -1.73180      -13.78240
H          2.19120       -3.77010      -13.51410
H          1.21140       -4.45040      -15.87810
H          1.13560       -5.87740      -14.81440
H          0.98580       -5.45450      -12.13230
