
  xtb     02082215473D
 energy: -313.632424247118 gnorm: 0.002459763958 xtb: 6.4.1 (unknown)
189209  0     0  0            999 V2000
   -4.4748   -3.5672    6.2365 C   0  0  0  0  0  0  0  0  0  0  0  0
   -4.4385   -2.7564    7.3517 C   0  0  0  0  0  0  0  0  0  0  0  0
   -3.3230   -1.8489    7.6562 C   0  0  0  0  0  0  0  0  0  0  0  0
   -2.3380   -1.6236    6.9755 O   0  0  0  0  0  0  0  0  0  0  0  0
   -3.5687   -1.3499    9.0240 C   0  0  0  0  0  0  0  0  0  0  0  0
   -2.7543   -0.4940    9.7579 C   0  0  0  0  0  0  0  0  0  0  0  0
   -3.2378   -0.1987   11.0102 C   0  0  0  0  0  0  0  0  0  0  0  0
   -4.4386   -0.7245   11.5011 C   0  0  0  0  0  0  0  0  0  0  0  0
   -5.2431   -1.5860   10.7897 C   0  0  0  0  0  0  0  0  0  0  0  0
   -4.7742   -1.8907    9.5093 C   0  0  0  0  0  0  0  0  0  0  0  0
   -5.3456   -2.7460    8.4673 C   0  0  0  0  0  0  0  0  0  0  0  0
   -6.5990   -3.3080    8.4855 C   0  0  0  0  0  0  0  0  0  0  0  0
   -7.5086   -3.1717    9.5504 C   0  0  0  0  0  0  0  0  0  0  0  0
   -8.2837   -3.0758   10.3930 N   0  0  0  0  0  0  0  0  0  0  0  0
   -7.1484   -4.0294    7.4075 C   0  0  0  0  0  0  0  0  0  0  0  0
   -7.6572   -4.6102    6.5574 N   0  0  0  0  0  0  0  0  0  0  0  0
   -4.2969   -0.0164   12.8276 C   0  0  0  0  0  0  0  0  0  0  0  0
   -5.1448    1.2561   13.0761 C   0  0  0  0  0  0  0  0  0  0  0  0
   -5.4264    1.8598   11.7236 C   0  0  0  0  0  0  0  0  0  0  0  0
   -4.2876    2.3494   11.2519 C   0  0  0  0  0  0  0  0  0  0  0  0
   -3.2160    2.0920   12.2820 C   0  0  0  0  0  0  0  0  0  0  0  0
   -4.0452    2.2100   13.5710 C   0  0  0  0  0  0  0  0  0  0  0  0
   -2.9564    0.5661   12.2788 C   0  0  0  0  0  0  0  0  0  0  0  0
   -3.7933   -3.3188    5.0400 C   0  0  0  0  0  0  0  0  0  0  0  0
   -3.3613   -2.1060    4.4664 C   0  0  0  0  0  0  0  0  0  0  0  0
   -3.7326   -0.8526    4.8595 N   0  0  0  0  0  0  0  0  0  0  0  0
   -4.9258   -0.6281    5.5613 C   0  0  0  0  0  0  0  0  0  0  0  0
   -4.9481    0.2521    6.6396 C   0  0  0  0  0  0  0  0  0  0  0  0
   -6.1019    0.4266    7.3818 C   0  0  0  0  0  0  0  0  0  0  0  0
   -7.2553   -0.2702    7.0454 C   0  0  0  0  0  0  0  0  0  0  0  0
   -8.7657   -0.1819    7.9439 S   0  0  0  0  0  0  0  0  0  0  0  0
   -8.2705    0.5664    9.5199 C   0  0  0  0  0  0  0  0  0  0  0  0
   -7.2531   -1.0994    5.9209 C   0  0  0  0  0  0  0  0  0  0  0  0
   -6.1038   -1.2802    5.1906 C   0  0  0  0  0  0  0  0  0  0  0  0
   -2.9490    0.2615    4.5060 C   0  0  0  0  0  0  0  0  0  0  0  0
   -3.5586    1.4019    3.9855 C   0  0  0  0  0  0  0  0  0  0  0  0
   -2.7901    2.4776    3.6009 C   0  0  0  0  0  0  0  0  0  0  0  0
   -1.4026    2.4381    3.7322 C   0  0  0  0  0  0  0  0  0  0  0  0
   -0.5201    3.8597    3.1735 S   0  0  0  0  0  0  0  0  0  0  0  0
    1.2206    3.3551    3.2724 C   0  0  0  0  0  0  0  0  0  0  0  0
   -0.7990    1.3187    4.2900 C   0  0  0  0  0  0  0  0  0  0  0  0
   -1.5684    0.2381    4.6732 C   0  0  0  0  0  0  0  0  0  0  0  0
   -2.5950   -2.3515    3.3036 C   0  0  0  0  0  0  0  0  0  0  0  0
   -1.8050   -1.3159    2.1677 S   0  0  0  0  0  0  0  0  0  0  0  0
   -1.2935   -2.7070    1.2437 C   0  0  0  0  0  0  0  0  0  0  0  0
   -1.7916   -3.9063    1.7300 C   0  0  0  0  0  0  0  0  0  0  0  0
   -1.6916   -5.1196    1.0774 N   0  0  0  0  0  0  0  0  0  0  0  0
   -1.5855   -5.1342   -0.3240 C   0  0  0  0  0  0  0  0  0  0  0  0
   -2.3783   -4.2860   -1.0991 C   0  0  0  0  0  0  0  0  0  0  0  0
   -2.1448   -4.1594   -2.4500 C   0  0  0  0  0  0  0  0  0  0  0  0
   -1.1250   -4.8868   -3.0599 C   0  0  0  0  0  0  0  0  0  0  0  0
   -0.8112   -4.5588   -4.7666 S   0  0  0  0  0  0  0  0  0  0  0  0
    0.9071   -5.1133   -4.9749 C   0  0  0  0  0  0  0  0  0  0  0  0
   -0.4092   -5.8132   -2.3133 C   0  0  0  0  0  0  0  0  0  0  0  0
   -0.6380   -5.9344   -0.9566 C   0  0  0  0  0  0  0  0  0  0  0  0
   -1.5909   -6.3095    1.8081 C   0  0  0  0  0  0  0  0  0  0  0  0
   -2.1575   -7.4837    1.3112 C   0  0  0  0  0  0  0  0  0  0  0  0
   -2.0702   -8.6521    2.0323 C   0  0  0  0  0  0  0  0  0  0  0  0
   -1.4251   -8.6756    3.2680 C   0  0  0  0  0  0  0  0  0  0  0  0
   -1.3814  -10.2322    4.1003 S   0  0  0  0  0  0  0  0  0  0  0  0
   -0.7049   -9.8310    5.7367 C   0  0  0  0  0  0  0  0  0  0  0  0
   -0.8506   -7.5125    3.7598 C   0  0  0  0  0  0  0  0  0  0  0  0
   -0.9285   -6.3413    3.0312 C   0  0  0  0  0  0  0  0  0  0  0  0
   -2.5124   -3.6873    2.9324 C   0  0  0  0  0  0  0  0  0  0  0  0
   -3.3811   -4.7084    4.0199 S   0  0  0  0  0  0  0  0  0  0  0  0
   -0.4933   -2.4802    0.0657 C   0  0  0  0  0  0  0  0  0  0  0  0
   -0.8184   -1.4528   -0.8421 C   0  0  0  0  0  0  0  0  0  0  0  0
   -1.8075   -0.5509   -0.8140 N   0  0  0  0  0  0  0  0  0  0  0  0
   -1.6456    0.1341   -1.9098 N   0  0  0  0  0  0  0  0  0  0  0  0
   -2.5520    1.1827   -2.2784 C   0  0  0  0  0  0  0  0  0  0  0  0
   -3.7558    0.6010   -3.0129 C   0  0  0  0  0  0  0  0  0  0  0  0
   -0.6543   -0.2132   -2.6793 N   0  0  0  0  0  0  0  0  0  0  0  0
   -0.0849   -1.2454   -2.0427 C   0  0  0  0  0  0  0  0  0  0  0  0
    1.0347   -2.0348   -2.3952 C   0  0  0  0  0  0  0  0  0  0  0  0
    1.3296   -3.0298   -1.4829 C   0  0  0  0  0  0  0  0  0  0  0  0
    0.6125   -3.2285   -0.2893 C   0  0  0  0  0  0  0  0  0  0  0  0
    1.0565   -4.1923    0.5421 F   0  0  0  0  0  0  0  0  0  0  0  0
    2.3196   -3.9093   -1.7356 F   0  0  0  0  0  0  0  0  0  0  0  0
    1.7528   -1.7018   -3.6096 C   0  0  0  0  0  0  0  0  0  0  0  0
    3.1014   -1.4241   -3.7847 C   0  0  0  0  0  0  0  0  0  0  0  0
    4.1476   -1.6856   -2.7451 C   0  0  0  0  0  0  0  0  0  0  0  0
    4.9168   -2.9816   -3.0141 C   0  0  0  0  0  0  0  0  0  0  0  0
    3.3318   -0.8186   -5.0319 C   0  0  0  0  0  0  0  0  0  0  0  0
    2.1706   -0.7064   -5.7950 C   0  0  0  0  0  0  0  0  0  0  0  0
    0.7759   -1.2911   -4.9958 S   0  0  0  0  0  0  0  0  0  0  0  0
    2.4465    0.0130   -6.9789 C   0  0  0  0  0  0  0  0  0  0  0  0
    3.7879    0.4053   -6.9630 C   0  0  0  0  0  0  0  0  0  0  0  0
    4.4910   -0.1378   -5.7420 C   0  0  0  0  0  0  0  0  0  0  0  0
    5.0863    1.0232   -4.9242 C   0  0  0  0  0  0  0  0  0  0  0  0
    4.0367    2.0172   -4.4426 C   0  0  0  0  0  0  0  0  0  0  0  0
    5.5803   -1.1662   -6.1164 C   0  0  0  0  0  0  0  0  0  0  0  0
    6.5581   -0.6999   -7.1876 C   0  0  0  0  0  0  0  0  0  0  0  0
    4.1011    1.2856   -7.9834 C   0  0  0  0  0  0  0  0  0  0  0  0
    3.0136    1.5547   -8.8066 C   0  0  0  0  0  0  0  0  0  0  0  0
    1.5844    0.6428   -8.3117 S   0  0  0  0  0  0  0  0  0  0  0  0
    2.8962    2.4279   -9.9035 C   0  0  0  0  0  0  0  0  0  0  0  0
    3.6101    3.5756  -10.1259 C   0  0  0  0  0  0  0  0  0  0  0  0
    4.3850    4.3251   -9.1104 C   0  0  0  0  0  0  0  0  0  0  0  0
    4.7814    3.9498   -8.0255 O   0  0  0  0  0  0  0  0  0  0  0  0
    4.5274    5.6900   -9.6543 C   0  0  0  0  0  0  0  0  0  0  0  0
    5.0678    6.7932   -8.9965 C   0  0  0  0  0  0  0  0  0  0  0  0
    5.0422    7.9515   -9.7350 C   0  0  0  0  0  0  0  0  0  0  0  0
    4.5246    8.0093  -11.0359 C   0  0  0  0  0  0  0  0  0  0  0  0
    3.9888    6.9285  -11.6966 C   0  0  0  0  0  0  0  0  0  0  0  0
    3.9955    5.7420  -10.9575 C   0  0  0  0  0  0  0  0  0  0  0  0
    3.4794    4.4192  -11.2956 C   0  0  0  0  0  0  0  0  0  0  0  0
    3.0236    4.0202  -12.5254 C   0  0  0  0  0  0  0  0  0  0  0  0
    2.9470    4.8563  -13.6569 C   0  0  0  0  0  0  0  0  0  0  0  0
    2.8584    5.4834  -14.6146 N   0  0  0  0  0  0  0  0  0  0  0  0
    2.6279    2.7026  -12.8369 C   0  0  0  0  0  0  0  0  0  0  0  0
    2.3216    1.6476  -13.1703 N   0  0  0  0  0  0  0  0  0  0  0  0
    4.8086    9.4855  -11.1682 C   0  0  0  0  0  0  0  0  0  0  0  0
    6.0422    9.8858  -12.0049 C   0  0  0  0  0  0  0  0  0  0  0  0
    6.3322   11.3025  -11.5631 C   0  0  0  0  0  0  0  0  0  0  0  0
    6.8184   11.2494  -10.3297 C   0  0  0  0  0  0  0  0  0  0  0  0
    6.8658    9.7960   -9.9166 C   0  0  0  0  0  0  0  0  0  0  0  0
    7.1690    9.1455  -11.2727 C   0  0  0  0  0  0  0  0  0  0  0  0
    5.3824    9.4211   -9.7162 C   0  0  0  0  0  0  0  0  0  0  0  0
   -5.0233   -4.5000    6.2859 H   0  0  0  0  0  0  0  0  0  0  0  0
   -1.8310   -0.1169    9.3458 H   0  0  0  0  0  0  0  0  0  0  0  0
   -6.1496   -2.0090   11.1917 H   0  0  0  0  0  0  0  0  0  0  0  0
   -4.2512   -0.6579   13.7055 H   0  0  0  0  0  0  0  0  0  0  0  0
   -6.0059    1.1061   13.7217 H   0  0  0  0  0  0  0  0  0  0  0  0
   -6.3881    1.8262   11.2468 H   0  0  0  0  0  0  0  0  0  0  0  0
   -4.1015    2.7997   10.2939 H   0  0  0  0  0  0  0  0  0  0  0  0
   -2.3207    2.7036   12.2047 H   0  0  0  0  0  0  0  0  0  0  0  0
   -4.4119    3.2205   13.7457 H   0  0  0  0  0  0  0  0  0  0  0  0
   -3.5236    1.8498   14.4566 H   0  0  0  0  0  0  0  0  0  0  0  0
   -2.0376    0.3017   12.7989 H   0  0  0  0  0  0  0  0  0  0  0  0
   -4.0514    0.7924    6.9040 H   0  0  0  0  0  0  0  0  0  0  0  0
   -6.0818    1.0991    8.2244 H   0  0  0  0  0  0  0  0  0  0  0  0
   -8.0651    1.6248    9.3834 H   0  0  0  0  0  0  0  0  0  0  0  0
   -9.1182    0.4353   10.1851 H   0  0  0  0  0  0  0  0  0  0  0  0
   -7.4073    0.0369    9.9138 H   0  0  0  0  0  0  0  0  0  0  0  0
   -8.1626   -1.6085    5.6424 H   0  0  0  0  0  0  0  0  0  0  0  0
   -6.1089   -1.9357    4.3333 H   0  0  0  0  0  0  0  0  0  0  0  0
   -4.6321    1.4311    3.8714 H   0  0  0  0  0  0  0  0  0  0  0  0
   -3.2529    3.3585    3.1829 H   0  0  0  0  0  0  0  0  0  0  0  0
    1.5112    3.2102    4.3086 H   0  0  0  0  0  0  0  0  0  0  0  0
    1.7883    4.1752    2.8444 H   0  0  0  0  0  0  0  0  0  0  0  0
    1.3742    2.4527    2.6880 H   0  0  0  0  0  0  0  0  0  0  0  0
    0.2677    1.2748    4.4367 H   0  0  0  0  0  0  0  0  0  0  0  0
   -1.1109   -0.6246    5.1306 H   0  0  0  0  0  0  0  0  0  0  0  0
   -3.1520   -3.6978   -0.6285 H   0  0  0  0  0  0  0  0  0  0  0  0
   -2.7356   -3.4815   -3.0470 H   0  0  0  0  0  0  0  0  0  0  0  0
    1.5101   -4.7471   -4.1500 H   0  0  0  0  0  0  0  0  0  0  0  0
    0.9521   -6.1965   -5.0417 H   0  0  0  0  0  0  0  0  0  0  0  0
    1.2475   -4.6739   -5.9072 H   0  0  0  0  0  0  0  0  0  0  0  0
    0.3508   -6.4254   -2.7715 H   0  0  0  0  0  0  0  0  0  0  0  0
   -0.0455   -6.6211   -0.3713 H   0  0  0  0  0  0  0  0  0  0  0  0
   -2.6695   -7.4685    0.3608 H   0  0  0  0  0  0  0  0  0  0  0  0
   -2.5093   -9.5620    1.6530 H   0  0  0  0  0  0  0  0  0  0  0  0
   -0.7507  -10.7544    6.3055 H   0  0  0  0  0  0  0  0  0  0  0  0
    0.3278   -9.5062    5.6479 H   0  0  0  0  0  0  0  0  0  0  0  0
   -1.3195   -9.0723    6.2118 H   0  0  0  0  0  0  0  0  0  0  0  0
   -0.3286   -7.5024    4.7028 H   0  0  0  0  0  0  0  0  0  0  0  0
   -0.4539   -5.4474    3.4070 H   0  0  0  0  0  0  0  0  0  0  0  0
   -2.8678    1.6832   -1.3612 H   0  0  0  0  0  0  0  0  0  0  0  0
   -2.0064    1.8744   -2.9218 H   0  0  0  0  0  0  0  0  0  0  0  0
   -3.4349    0.1035   -3.9244 H   0  0  0  0  0  0  0  0  0  0  0  0
   -4.4484    1.3959   -3.2715 H   0  0  0  0  0  0  0  0  0  0  0  0
   -4.2684   -0.1185   -2.3789 H   0  0  0  0  0  0  0  0  0  0  0  0
    4.8492   -0.8503   -2.7293 H   0  0  0  0  0  0  0  0  0  0  0  0
    3.6794   -1.7447   -1.7611 H   0  0  0  0  0  0  0  0  0  0  0  0
    5.4005   -2.9524   -3.9854 H   0  0  0  0  0  0  0  0  0  0  0  0
    4.2504   -3.8376   -2.9943 H   0  0  0  0  0  0  0  0  0  0  0  0
    5.6769   -3.1227   -2.2497 H   0  0  0  0  0  0  0  0  0  0  0  0
    5.6286    0.6167   -4.0686 H   0  0  0  0  0  0  0  0  0  0  0  0
    5.8018    1.5520   -5.5540 H   0  0  0  0  0  0  0  0  0  0  0  0
    4.5091    2.7887   -3.8394 H   0  0  0  0  0  0  0  0  0  0  0  0
    3.5527    2.4986   -5.2886 H   0  0  0  0  0  0  0  0  0  0  0  0
    3.2766    1.5252   -3.8394 H   0  0  0  0  0  0  0  0  0  0  0  0
    5.0880   -2.0780   -6.4634 H   0  0  0  0  0  0  0  0  0  0  0  0
    6.1406   -1.4043   -5.2110 H   0  0  0  0  0  0  0  0  0  0  0  0
    7.0413    0.2306   -6.9029 H   0  0  0  0  0  0  0  0  0  0  0  0
    6.0543   -0.5571   -8.1396 H   0  0  0  0  0  0  0  0  0  0  0  0
    7.3308   -1.4540   -7.3225 H   0  0  0  0  0  0  0  0  0  0  0  0
    5.0644    1.7275   -8.1466 H   0  0  0  0  0  0  0  0  0  0  0  0
    2.0913    2.1969  -10.5924 H   0  0  0  0  0  0  0  0  0  0  0  0
    5.4523    6.7058   -7.9922 H   0  0  0  0  0  0  0  0  0  0  0  0
    3.5789    6.9890  -12.6912 H   0  0  0  0  0  0  0  0  0  0  0  0
    3.9424   10.1171  -11.3582 H   0  0  0  0  0  0  0  0  0  0  0  0
    5.9424    9.7166  -13.0735 H   0  0  0  0  0  0  0  0  0  0  0  0
    6.1081   12.1722  -12.1525 H   0  0  0  0  0  0  0  0  0  0  0  0
    7.0808   12.0658   -9.6824 H   0  0  0  0  0  0  0  0  0  0  0  0
    7.5165    9.5453   -9.0830 H   0  0  0  0  0  0  0  0  0  0  0  0
    8.1535    9.4187  -11.6490 H   0  0  0  0  0  0  0  0  0  0  0  0
    7.0643    8.0621  -11.2781 H   0  0  0  0  0  0  0  0  0  0  0  0
    4.8963   10.0083   -8.9388 H   0  0  0  0  0  0  0  0  0  0  0  0
  1  2  2  0  0  0  0
  2  3  1  0  0  0  0
  3  4  2  0  0  0  0
  3  5  1  0  0  0  0
  5  6  2  0  0  0  0
  6  7  1  0  0  0  0
  7  8  2  0  0  0  0
  8  9  1  0  0  0  0
  9 10  2  0  0  0  0
 10 11  1  0  0  0  0
 11 12  2  0  0  0  0
 12 13  1  0  0  0  0
 13 14  3  0  0  0  0
 12 15  1  0  0  0  0
 15 16  3  0  0  0  0
  8 17  1  0  0  0  0
 17 18  1  0  0  0  0
 18 19  1  0  0  0  0
 19 20  2  0  0  0  0
 20 21  1  0  0  0  0
 21 22  1  0  0  0  0
 21 23  1  0  0  0  0
  1 24  1  0  0  0  0
 24 25  2  0  0  0  0
 25 26  1  0  0  0  0
 26 27  1  0  0  0  0
 27 28  2  0  0  0  0
 28 29  1  0  0  0  0
 29 30  2  0  0  0  0
 30 31  1  0  0  0  0
 31 32  1  0  0  0  0
 30 33  1  0  0  0  0
 33 34  2  0  0  0  0
 26 35  1  0  0  0  0
 35 36  2  0  0  0  0
 36 37  1  0  0  0  0
 37 38  2  0  0  0  0
 38 39  1  0  0  0  0
 39 40  1  0  0  0  0
 38 41  1  0  0  0  0
 41 42  2  0  0  0  0
 25 43  1  0  0  0  0
 43 44  1  0  0  0  0
 44 45  1  0  0  0  0
 45 46  2  0  0  0  0
 46 47  1  0  0  0  0
 47 48  1  0  0  0  0
 48 49  2  0  0  0  0
 49 50  1  0  0  0  0
 50 51  2  0  0  0  0
 51 52  1  0  0  0  0
 52 53  1  0  0  0  0
 51 54  1  0  0  0  0
 54 55  2  0  0  0  0
 47 56  1  0  0  0  0
 56 57  2  0  0  0  0
 57 58  1  0  0  0  0
 58 59  2  0  0  0  0
 59 60  1  0  0  0  0
 60 61  1  0  0  0  0
 59 62  1  0  0  0  0
 62 63  2  0  0  0  0
 46 64  1  0  0  0  0
 64 65  1  0  0  0  0
 45 66  1  0  0  0  0
 66 67  1  0  0  0  0
 67 68  2  0  0  0  0
 68 69  1  0  0  0  0
 69 70  1  0  0  0  0
 70 71  1  0  0  0  0
 69 72  1  0  0  0  0
 72 73  2  0  0  0  0
 73 74  1  0  0  0  0
 74 75  2  0  0  0  0
 75 76  1  0  0  0  0
 76 77  1  0  0  0  0
 75 78  1  0  0  0  0
 74 79  1  0  0  0  0
 79 80  2  0  0  0  0
 80 81  1  0  0  0  0
 81 82  1  0  0  0  0
 80 83  1  0  0  0  0
 83 84  2  0  0  0  0
 84 85  1  0  0  0  0
 84 86  1  0  0  0  0
 86 87  2  0  0  0  0
 87 88  1  0  0  0  0
 88 89  1  0  0  0  0
 89 90  1  0  0  0  0
 88 91  1  0  0  0  0
 91 92  1  0  0  0  0
 87 93  1  0  0  0  0
 93 94  2  0  0  0  0
 94 95  1  0  0  0  0
 94 96  1  0  0  0  0
 96 97  2  0  0  0  0
 97 98  1  0  0  0  0
 98 99  2  0  0  0  0
 98100  1  0  0  0  0
100101  2  0  0  0  0
101102  1  0  0  0  0
102103  2  0  0  0  0
103104  1  0  0  0  0
104105  2  0  0  0  0
105106  1  0  0  0  0
106107  2  0  0  0  0
107108  1  0  0  0  0
108109  3  0  0  0  0
107110  1  0  0  0  0
110111  3  0  0  0  0
103112  1  0  0  0  0
112113  1  0  0  0  0
113114  1  0  0  0  0
114115  2  0  0  0  0
115116  1  0  0  0  0
116117  1  0  0  0  0
116118  1  0  0  0  0
 11  2  1  0  0  0  0
 23 17  1  0  0  0  0
 65 24  1  0  0  0  0
 76 66  2  0  0  0  0
 85 79  1  0  0  0  0
 95 86  1  0  0  0  0
106 97  1  0  0  0  0
118112  1  0  0  0  0
 10  5  1  0  0  0  0
 22 18  1  0  0  0  0
 34 27  1  0  0  0  0
 42 35  1  0  0  0  0
 64 43  2  0  0  0  0
 73 67  1  0  0  0  0
 88 83  1  0  0  0  0
105100  1  0  0  0  0
117113  1  0  0  0  0
 23  7  1  0  0  0  0
 55 48  1  0  0  0  0
 63 56  1  0  0  0  0
118102  1  0  0  0  0
  1119  1  0  0  0  0
  6120  1  0  0  0  0
  9121  1  0  0  0  0
 17122  1  0  0  0  0
 18123  1  0  0  0  0
 19124  1  0  0  0  0
 20125  1  0  0  0  0
 21126  1  0  0  0  0
 22127  1  0  0  0  0
 22128  1  0  0  0  0
 23129  1  0  0  0  0
 28130  1  0  0  0  0
 29131  1  0  0  0  0
 32132  1  0  0  0  0
 32133  1  0  0  0  0
 32134  1  0  0  0  0
 33135  1  0  0  0  0
 34136  1  0  0  0  0
 36137  1  0  0  0  0
 37138  1  0  0  0  0
 40139  1  0  0  0  0
 40140  1  0  0  0  0
 40141  1  0  0  0  0
 41142  1  0  0  0  0
 42143  1  0  0  0  0
 49144  1  0  0  0  0
 50145  1  0  0  0  0
 53146  1  0  0  0  0
 53147  1  0  0  0  0
 53148  1  0  0  0  0
 54149  1  0  0  0  0
 55150  1  0  0  0  0
 57151  1  0  0  0  0
 58152  1  0  0  0  0
 61153  1  0  0  0  0
 61154  1  0  0  0  0
 61155  1  0  0  0  0
 62156  1  0  0  0  0
 63157  1  0  0  0  0
 70158  1  0  0  0  0
 70159  1  0  0  0  0
 71160  1  0  0  0  0
 71161  1  0  0  0  0
 71162  1  0  0  0  0
 81163  1  0  0  0  0
 81164  1  0  0  0  0
 82165  1  0  0  0  0
 82166  1  0  0  0  0
 82167  1  0  0  0  0
 89168  1  0  0  0  0
 89169  1  0  0  0  0
 90170  1  0  0  0  0
 90171  1  0  0  0  0
 90172  1  0  0  0  0
 91173  1  0  0  0  0
 91174  1  0  0  0  0
 92175  1  0  0  0  0
 92176  1  0  0  0  0
 92177  1  0  0  0  0
 93178  1  0  0  0  0
 96179  1  0  0  0  0
101180  1  0  0  0  0
104181  1  0  0  0  0
112182  1  0  0  0  0
113183  1  0  0  0  0
114184  1  0  0  0  0
115185  1  0  0  0  0
116186  1  0  0  0  0
117187  1  0  0  0  0
117188  1  0  0  0  0
118189  1  0  0  0  0
M  END
