184

C         -0.20180        6.94870       -0.89280
C          1.01570        7.52930       -1.04820
C          2.32180        6.82590       -1.00530
O          2.53840        5.63200       -1.08490
C          3.32960        7.87320       -0.78870
C          4.69670        7.68800       -0.58510
C          5.40240        8.85470       -0.42530
C          4.79720       10.11900       -0.45780
C          3.45130       10.31780       -0.65380
C          2.71290        9.14180       -0.82140
C          1.28350        8.95830       -1.03860
C          0.36670        9.94670       -1.27070
C         -1.00180        9.72900       -1.54360
N         -2.12250        9.63690       -1.77410
C          0.66960       11.32470       -1.29850
N          0.84730       12.45830       -1.32790
C          6.09980       10.83680       -0.20770
C          6.33370       11.35920        1.22590
C          7.82960       11.56760        1.29470
C          8.40300       10.37130        1.32150
C          7.30460        9.33390        1.27120
C          6.20900       10.07190        2.05120
C          6.77450        9.42770       -0.17550
C         -0.46500        5.55200       -0.93320
S         -1.67400        4.89200        0.13870
C         -1.31000        3.27500       -0.36590
C         -0.32090        3.25910       -1.33530
C          0.36150        2.03570       -1.78320
O          0.01600        0.91590       -1.44400
C          1.54710        2.30140       -2.59490
C          2.45680        1.33880       -2.95790
C          2.44410       -0.11780       -2.66230
C          1.54620       -0.87380       -3.64630
S          3.72910        2.02350       -3.91010
C          3.02550        3.60940       -3.84530
C          3.71880        4.75830       -4.48340
C          4.89840        5.21940       -3.62390
C          1.88050        3.60390       -3.09540
C          1.06030        4.78570       -2.80720
O          1.06370        5.80940       -3.46190
C          0.13250        4.55530       -1.67660
C         -1.95440        2.14250        0.22920
C         -1.96350        1.82410        1.57800
N         -1.30530        2.56060        2.54720
C         -1.84320        2.62760        3.83430
C         -1.01990        2.67470        4.96050
C         -1.57230        2.73520        6.21880
C         -2.95620        2.74160        6.38960
S         -3.54090        2.82040        8.05300
C         -5.34240        2.66390        7.89140
C         -3.77880        2.69670        5.27310
C         -3.22510        2.64520        4.00880
C         -0.02340        3.06590        2.26120
C          0.36380        4.32680        2.71260
C          1.61650        4.81600        2.40920
C          2.50570        4.06360        1.64470
S          4.10250        4.74960        1.36010
C          4.78720        3.69340        0.05170
C          2.11950        2.80990        1.19010
C          0.86990        2.31500        1.50210
C         -2.58900        0.57250        1.79150
S         -2.76660       -0.48140        3.15100
C         -3.38850       -1.74140        2.11930
C         -3.48470       -1.35080        0.78810
N         -3.77630       -2.20660       -0.28180
C         -5.08850       -2.66670       -0.43590
C         -5.37520       -3.99020       -0.78090
C         -6.68200       -4.39830       -0.91440
C         -7.73540       -3.50780       -0.70020
S         -9.36300       -4.15830       -0.89950
C        -10.44470       -2.72240       -0.64430
C         -7.45550       -2.19760       -0.33850
C         -6.14260       -1.78400       -0.20880
C         -2.71540       -2.70950       -1.03560
C         -1.40770       -2.67520       -0.54450
C         -0.39100       -3.29800       -1.23000
C         -0.64530       -3.95890       -2.42850
S          0.69810       -4.86340       -3.13430
C         -0.01750       -5.63970       -4.60800
C         -1.91640       -3.89110       -2.98190
C         -2.93460       -3.26150       -2.29690
C         -3.02560       -0.02810        0.61900
S         -2.71740        0.93180       -0.77620
C         -3.28770       -3.13290        2.48380
C         -2.06180       -3.77240        2.59100
C         -2.26180       -5.13860        2.27480
C         -3.68340       -5.37370        2.15480
O         -4.33860       -6.37210        1.96070
N         -4.25530       -4.08290        2.30680
C         -5.67020       -3.89080        2.47570
C         -1.02480       -5.68320        1.91600
N         -0.06520       -4.71800        2.15280
C          1.33570       -4.77990        1.84800
C         -0.64100       -3.49570        2.53110
O         -0.01010       -2.47610        2.71660
C         -0.90270       -6.83830        1.12020
C          0.19110       -7.58160        0.75370
C          1.37330       -7.91070        1.58750
O          1.62540       -7.50970        2.70420
C          2.11130       -8.94520        0.83680
C          3.27860       -9.59200        1.23430
C          3.73550      -10.52560        0.33450
C          3.07770      -10.80320       -0.87130
C          1.92380      -10.17420       -1.27570
C          1.44520       -9.21970       -0.37540
C          0.26970       -8.36190       -0.45720
C         -0.52770       -8.17220       -1.56070
C         -0.36170       -8.84120       -2.78860
N         -0.27800       -9.32890       -3.82550
C         -1.56870       -7.22650       -1.64220
N         -2.40560       -6.45800       -1.82080
C          4.08020      -11.85710       -1.26840
C          3.67160      -13.34160       -1.10110
C          2.64620      -13.38260        0.00470
C          3.26980      -13.11910        1.14520
C          4.72850      -12.89510        0.83120
C          4.90400      -13.86630       -0.34720
C          4.81460      -11.54670        0.07400
H         -1.05140        7.57260       -0.64230
H          5.12770        6.70090       -0.55200
H          2.99710       11.29440       -0.67100
H          6.40590       11.54570       -0.97430
H          5.70880       12.20120        1.51060
H          8.30290       12.53120        1.26240
H          9.45120       10.13640        1.31620
H          7.56120        8.33000        1.59780
H          5.23060        9.59860        1.99510
H          6.47990       10.22470        3.09440
H          7.53080        9.19510       -0.92280
H          3.46170       -0.50960       -2.71990
H          2.05260       -0.27220       -1.65470
H          1.58960       -1.93920       -3.43730
H          1.87000       -0.70190       -4.67070
H          0.51690       -0.54290       -3.53620
H          3.00440        5.57460       -4.59450
H          4.07980        4.46500       -5.47190
H          4.53750        5.51710       -2.64320
H          5.62340        4.41590       -3.50540
H          5.39000        6.07010       -4.08840
H          0.05230        2.65160        4.84110
H         -0.93720        2.76740        7.09060
H         -5.74720        3.52160        7.36210
H         -5.58810        1.73420        7.38680
H         -5.72560        2.64530        8.90680
H         -4.85230        2.71190        5.36850
H         -3.87360        2.63070        3.14510
H         -0.32380        4.91770        3.29920
H          1.91970        5.79090        2.76040
H          5.72950        4.14840       -0.23890
H          4.97080        2.69250        0.43110
H          4.09730        3.68810       -0.78670
H          2.78530        2.19850        0.60330
H          0.58750        1.33110        1.15870
H         -4.57380       -4.69780       -0.92640
H         -6.90500       -5.42100       -1.17550
H        -10.20730       -1.94660       -1.36610
H        -11.45380       -3.08520       -0.81240
H        -10.35050       -2.35840        0.37470
H         -8.24460       -1.48540       -0.15970
H         -5.92920       -0.76020        0.06350
H         -1.18380       -2.17610        0.38370
H          0.61140       -3.29140       -0.83060
H         -0.88470       -6.23070       -4.32860
H          0.75590       -6.28890       -5.00690
H         -0.27600       -4.87750       -5.33740
H         -2.13270       -4.32980       -3.94160
H         -3.91690       -3.21600       -2.74030
H         -6.18340       -4.69820        1.95520
H         -5.97920       -2.93170        2.06520
H         -5.93230       -3.93120        3.53700
H          1.49360       -5.18080        0.84390
H          1.86430       -5.40430        2.56950
H          1.71570       -3.75940        1.90520
H         -1.85480       -7.12420        0.68330
H          3.75530       -9.35120        2.17160
H          1.42040      -10.40090       -2.20120
H          4.61740      -11.67700       -2.19740
H          3.39990      -13.84180       -2.02690
H          1.59570      -13.53760       -0.15810
H          2.84420      -13.00950        2.12540
H          5.41910      -12.98970        1.66500
H          4.80410      -14.90950       -0.05150
H          5.83750      -13.72560       -0.89040
H          5.83210      -11.16430        0.02140
