162

C         -1.71250       -3.76630       -3.09490
C         -1.99880       -3.58440       -4.41870
C         -1.54260       -2.39440       -5.17400
O         -0.98670       -1.41190       -4.72900
C         -1.79860       -2.71090       -6.59230
C         -1.52830       -1.90290       -7.69240
C         -1.92220       -2.44190       -8.89430
C         -2.52650       -3.70090       -8.99930
C         -2.78970       -4.51410       -7.92250
C         -2.40820       -3.97870       -6.69090
C         -2.56780       -4.52170       -5.34690
C         -3.28010       -5.64280       -4.99380
C         -3.51190       -6.02050       -3.65690
N         -3.76630       -6.35400       -2.58720
C         -3.96400       -6.46940       -5.90070
N         -4.58340       -7.15090       -6.58900
C         -2.65510       -3.60390      -10.49820
C         -1.64550       -4.39680      -11.36440
C         -0.39630       -4.55190      -10.53310
C          0.17500       -3.35910      -10.43370
C         -0.67760       -2.37550      -11.19660
C         -1.19540       -3.28330      -12.32360
C         -1.98280       -2.19960      -10.38180
C         -1.41990       -2.70720       -2.20480
C         -2.10390       -1.51240       -1.95170
N         -3.35810       -1.15430       -2.36290
C         -4.22160       -0.50340       -1.45980
C         -4.21280       -0.82710       -0.10520
C         -5.06270       -0.19650        0.78050
C         -5.95300        0.76520        0.32220
S         -7.08200        1.63760        1.35740
C         -6.56870        1.17960        3.03790
C         -5.99240        1.06450       -1.03870
C         -5.14040        0.43860       -1.92060
C         -3.96980       -1.59660       -3.56930
C         -4.77470       -2.72680       -3.57160
C         -5.38380       -3.14920       -4.73980
C         -5.21000       -2.42550       -5.91280
S         -5.88520       -2.88290       -7.47310
C         -6.86270       -4.37340       -7.13260
C         -4.44680       -1.25830       -5.89390
C         -3.83300       -0.84380       -4.73210
C         -1.39770       -0.73640       -0.99210
S         -1.61530        0.86510       -0.36270
C         -0.18140        0.68890        0.59550
C          0.45100       -0.52400        0.42240
N          1.67510       -0.80930        1.03750
C          2.67990        0.16160        0.85100
C          2.89700        0.64630       -0.43950
C          3.81620        1.64510       -0.66380
C          4.53410        2.19180        0.39690
S          5.70620        3.45060       -0.00170
C          5.70040        4.51170        1.47010
C          4.33250        1.70610        1.68340
C          3.41440        0.69620        1.90700
C          1.82510       -1.92490        1.84480
C          0.70780       -2.64420        2.26880
C          0.84150       -3.75890        3.07170
C          2.10020       -4.18040        3.47570
S          2.38200       -5.56260        4.54260
C          0.82450       -6.49390        4.44610
C          3.22160       -3.47250        3.04930
C          3.09110       -2.36800        2.23880
C         -0.25140       -1.33580       -0.49570
S          0.00200       -2.89840       -1.17280
C          0.29920        1.62450        1.60630
C          0.93660        2.81670        1.35450
F          0.99390        3.30070        0.10620
C          1.59110        3.52420        2.37790
F          2.20100        4.67860        2.06290
C          1.65250        3.04940        3.67060
C          0.98900        1.82800        3.95930
N          1.14920        1.23210        5.15290
C          0.48130        0.14250        5.41890
C          0.83170       -0.57460        6.68310
C          1.75260       -1.75880        6.37490
C         -0.49130       -0.34960        4.49030
N         -0.52260        0.11980        3.27240
C          0.25370        1.16810        2.95010
C         -1.49290       -1.40030        4.85720
C         -2.66810       -1.44250        3.88830
C          2.37610        3.69280        4.74470
C          1.92570        3.86460        6.03060
C          0.67740        3.67840        6.79350
O         -0.40800        3.28320        6.44990
N          0.99480        4.09610        8.08310
C          0.04980        4.07670        9.17200
C          2.30090        4.55570        8.22920
O          2.78350        4.95300        9.25860
C          2.89170        4.41970        6.88740
C          4.12040        4.65090        6.29700
S          4.04560        4.15750        4.61590
C          5.21260        5.24690        6.97280
C          6.50890        5.35430        6.57720
C          7.11510        4.69190        5.39360
O          6.52780        4.10650        4.50210
C          8.55670        4.86250        5.54920
C          9.73230        4.49820        4.86990
C         10.83380        4.98100        5.51110
S         10.47390        5.88540        6.94010
C          8.80200        5.61530        6.69330
C          7.57850        5.98840        7.34470
C          7.47710        6.82500        8.42490
C          6.27470        7.30390        8.98290
N          5.33810        7.76680        9.45730
C          8.63680        7.33850        9.04350
N          9.58030        7.75040        9.54990
H         -1.60860       -4.77040       -2.69940
H         -1.06310       -0.93720       -7.57020
H         -3.25110       -5.48360       -8.01560
H         -3.66920       -3.65170      -10.88940
H         -2.04500       -5.30630      -11.80500
H         -0.09630       -5.47310      -10.06870
H          1.04700       -3.08470       -9.86940
H         -0.19550       -1.44510      -11.48500
H         -0.40610       -3.60490      -13.00160
H         -2.01350       -2.84440      -12.89290
H         -2.55880       -1.33300      -10.69980
H         -3.54250       -1.59030        0.26170
H         -5.02670       -0.47720        1.82030
H         -5.51830        1.41670        3.17740
H         -7.17570        1.78520        3.70350
H         -6.76630        0.12680        3.21830
H         -6.69720        1.80070       -1.39280
H         -5.17790        0.68250       -2.97080
H         -4.90630       -3.29490       -2.66240
H         -5.98360       -4.04540       -4.72180
H         -7.61440       -4.15830       -6.37920
H         -6.21590       -5.19240       -6.83130
H         -7.34610       -4.62000       -8.07290
H         -4.34000       -0.68980       -6.80490
H         -3.22650        0.04880       -4.72000
H          2.33180        0.23750       -1.26350
H          3.98310        2.02010       -1.66120
H          6.27000        5.39380        1.19460
H          4.67840        4.79110        1.70220
H          6.17030        4.01890        2.31430
H          4.88280        2.11540        2.51670
H          3.25480        0.33090        2.91120
H         -0.27760       -2.31700        1.97950
H         -0.04700       -4.28940        3.37720
H          1.02520       -7.45190        4.91550
H          0.03850       -5.97860        4.99130
H          0.55220       -6.64000        3.40530
H          4.20040       -3.80880        3.35460
H          3.97270       -1.85060        1.89390
H         -0.06960       -0.92930        7.18450
H          1.34930        0.12610        7.33890
H          1.27740       -2.45820        5.69160
H          2.00440       -2.28600        7.29110
H          2.67280       -1.41010        5.91250
H         -1.85460       -1.20330        5.86910
H         -0.98830       -2.37040        4.87260
H         -2.32190       -1.64060        2.87880
H         -3.17970       -0.48340        3.88590
H         -3.37110       -2.21820        4.18280
H          0.14590        3.15400        9.74820
H          0.24860        4.92540        9.82490
H         -0.95480        4.13930        8.75690
H          4.94000        5.63270        7.95000
H          9.76070        3.91900        3.96560
H         11.86060        4.86310        5.22490
