
  xtb     02042220083D
 energy: -270.741373395177 gnorm: 0.000926707778 xtb: 6.4.1 (unknown)
154173  0     0  0            999 V2000
   -4.2157    7.6403   -2.4954 C   0  0  0  0  0  0  0  0  0  0  0  0
   -5.5573    7.5293   -2.7057 C   0  0  0  0  0  0  0  0  0  0  0  0
   -6.2682    6.2793   -3.1023 C   0  0  0  0  0  0  0  0  0  0  0  0
   -5.8534    5.1457   -3.1036 O   0  0  0  0  0  0  0  0  0  0  0  0
   -7.5800    6.7333   -3.6118 C   0  0  0  0  0  0  0  0  0  0  0  0
   -8.5718    5.9322   -4.1740 C   0  0  0  0  0  0  0  0  0  0  0  0
   -9.6922    6.6227   -4.5694 C   0  0  0  0  0  0  0  0  0  0  0  0
   -9.8176    8.0119   -4.4268 C   0  0  0  0  0  0  0  0  0  0  0  0
   -8.8447    8.8162   -3.8833 C   0  0  0  0  0  0  0  0  0  0  0  0
   -7.6984    8.1309   -3.4673 C   0  0  0  0  0  0  0  0  0  0  0  0
   -6.4846    8.6333   -2.8371 C   0  0  0  0  0  0  0  0  0  0  0  0
   -6.2902    9.8908   -2.3250 C   0  0  0  0  0  0  0  0  0  0  0  0
   -5.1699   10.2513   -1.5487 C   0  0  0  0  0  0  0  0  0  0  0  0
   -4.3075   10.5859   -0.8678 N   0  0  0  0  0  0  0  0  0  0  0  0
   -7.2154   10.9485   -2.4368 C   0  0  0  0  0  0  0  0  0  0  0  0
   -7.9243   11.8488   -2.5065 N   0  0  0  0  0  0  0  0  0  0  0  0
  -11.2017    8.0284   -5.0256 C   0  0  0  0  0  0  0  0  0  0  0  0
  -12.3775    8.1635   -4.0345 C   0  0  0  0  0  0  0  0  0  0  0  0
  -13.5716    7.6748   -4.8223 C   0  0  0  0  0  0  0  0  0  0  0  0
  -13.4534    6.3605   -4.9606 C   0  0  0  0  0  0  0  0  0  0  0  0
  -12.1778    5.9384   -4.2679 C   0  0  0  0  0  0  0  0  0  0  0  0
  -12.1534    6.9536   -3.1181 C   0  0  0  0  0  0  0  0  0  0  0  0
  -11.0614    6.4804   -5.1857 C   0  0  0  0  0  0  0  0  0  0  0  0
   -3.3428    6.5741   -2.1931 C   0  0  0  0  0  0  0  0  0  0  0  0
   -1.5782    6.7885   -2.4700 S   0  0  0  0  0  0  0  0  0  0  0  0
   -1.3523    5.2463   -1.7744 C   0  0  0  0  0  0  0  0  0  0  0  0
   -0.2753    4.5284   -1.4766 N   0  0  0  0  0  0  0  0  0  0  0  0
   -0.6025    3.4400   -0.8353 C   0  0  0  0  0  0  0  0  0  0  0  0
   -2.3596    3.1906   -0.6089 S   0  0  0  0  0  0  0  0  0  0  0  0
   -2.6011    4.7027   -1.3914 C   0  0  0  0  0  0  0  0  0  0  0  0
   -3.6657    5.4454   -1.6335 N   0  0  0  0  0  0  0  0  0  0  0  0
    0.3234    2.5420   -0.2725 C   0  0  0  0  0  0  0  0  0  0  0  0
    1.6778    2.7564    0.0201 C   0  0  0  0  0  0  0  0  0  0  0  0
    2.3537    3.9431   -0.0674 N   0  0  0  0  0  0  0  0  0  0  0  0
    1.7173    5.1870    0.0784 C   0  0  0  0  0  0  0  0  0  0  0  0
    0.7157    5.3775    1.0265 C   0  0  0  0  0  0  0  0  0  0  0  0
    0.0384    6.5788    1.1020 C   0  0  0  0  0  0  0  0  0  0  0  0
    0.3631    7.6168    0.2363 C   0  0  0  0  0  0  0  0  0  0  0  0
   -0.4899    9.1585    0.1885 S   0  0  0  0  0  0  0  0  0  0  0  0
   -2.1071    8.7711    0.9161 C   0  0  0  0  0  0  0  0  0  0  0  0
    1.4191    7.4528   -0.6598 C   0  0  0  0  0  0  0  0  0  0  0  0
    2.0884    6.2543   -0.7400 C   0  0  0  0  0  0  0  0  0  0  0  0
    3.7413    3.9199   -0.2972 C   0  0  0  0  0  0  0  0  0  0  0  0
    4.5860    4.7758    0.4099 C   0  0  0  0  0  0  0  0  0  0  0  0
    5.9468    4.7179    0.2155 C   0  0  0  0  0  0  0  0  0  0  0  0
    6.4962    3.8035   -0.6834 C   0  0  0  0  0  0  0  0  0  0  0  0
    8.2519    3.7839   -0.8218 S   0  0  0  0  0  0  0  0  0  0  0  0
    8.5914    2.2063   -1.6548 C   0  0  0  0  0  0  0  0  0  0  0  0
    5.6546    2.9806   -1.4204 C   0  0  0  0  0  0  0  0  0  0  0  0
    4.2882    3.0430   -1.2297 C   0  0  0  0  0  0  0  0  0  0  0  0
    2.2604    1.5551    0.5055 C   0  0  0  0  0  0  0  0  0  0  0  0
    3.8642    1.1041    0.9758 S   0  0  0  0  0  0  0  0  0  0  0  0
    3.3173   -0.5215    1.3454 C   0  0  0  0  0  0  0  0  0  0  0  0
    1.9603   -0.7172    1.0724 C   0  0  0  0  0  0  0  0  0  0  0  0
    1.2836   -1.9120    1.1117 N   0  0  0  0  0  0  0  0  0  0  0  0
   -0.0802   -1.9026    1.4499 C   0  0  0  0  0  0  0  0  0  0  0  0
   -0.9843   -2.7205    0.7720 C   0  0  0  0  0  0  0  0  0  0  0  0
   -2.3202   -2.6911    1.0989 C   0  0  0  0  0  0  0  0  0  0  0  0
   -2.7877   -1.8439    2.1043 C   0  0  0  0  0  0  0  0  0  0  0  0
   -4.5193   -1.8890    2.4208 S   0  0  0  0  0  0  0  0  0  0  0  0
   -4.7588   -0.6684    3.7416 C   0  0  0  0  0  0  0  0  0  0  0  0
   -1.8880   -1.0365    2.7878 C   0  0  0  0  0  0  0  0  0  0  0  0
   -0.5458   -1.0710    2.4640 C   0  0  0  0  0  0  0  0  0  0  0  0
    1.9113   -3.1260    0.7981 C   0  0  0  0  0  0  0  0  0  0  0  0
    2.8541   -3.1972   -0.2248 C   0  0  0  0  0  0  0  0  0  0  0  0
    3.5384   -4.3704   -0.4764 C   0  0  0  0  0  0  0  0  0  0  0  0
    3.2720   -5.5050    0.2787 C   0  0  0  0  0  0  0  0  0  0  0  0
    4.1436   -7.0341    0.1071 S   0  0  0  0  0  0  0  0  0  0  0  0
    5.5634   -6.6063   -0.9400 C   0  0  0  0  0  0  0  0  0  0  0  0
    2.2744   -5.4585    1.2515 C   0  0  0  0  0  0  0  0  0  0  0  0
    1.6042   -4.2848    1.5119 C   0  0  0  0  0  0  0  0  0  0  0  0
    1.3759    0.4940    0.6255 C   0  0  0  0  0  0  0  0  0  0  0  0
   -0.2251    0.9245    0.1420 S   0  0  0  0  0  0  0  0  0  0  0  0
    4.2309   -1.5001    1.7907 C   0  0  0  0  0  0  0  0  0  0  0  0
    5.9451   -1.4693    1.2774 S   0  0  0  0  0  0  0  0  0  0  0  0
    6.0924   -3.0568    1.9297 C   0  0  0  0  0  0  0  0  0  0  0  0
    7.0313   -3.9873    1.8712 N   0  0  0  0  0  0  0  0  0  0  0  0
    6.6261   -5.1132    2.4015 C   0  0  0  0  0  0  0  0  0  0  0  0
    4.9736   -5.0448    3.0857 S   0  0  0  0  0  0  0  0  0  0  0  0
    4.8725   -3.4364    2.5267 C   0  0  0  0  0  0  0  0  0  0  0  0
    3.8716   -2.5661    2.4470 N   0  0  0  0  0  0  0  0  0  0  0  0
    7.3327   -6.3162    2.1742 C   0  0  0  0  0  0  0  0  0  0  0  0
    6.9349   -7.5987    2.3735 C   0  0  0  0  0  0  0  0  0  0  0  0
    7.4571   -8.6637    1.4648 C   0  0  0  0  0  0  0  0  0  0  0  0
    8.4741   -8.6282    0.8124 O   0  0  0  0  0  0  0  0  0  0  0  0
    6.4054   -9.6973    1.4575 C   0  0  0  0  0  0  0  0  0  0  0  0
    6.3215  -10.8079    0.6187 C   0  0  0  0  0  0  0  0  0  0  0  0
    5.1910  -11.5663    0.8054 C   0  0  0  0  0  0  0  0  0  0  0  0
    4.2051  -11.2447    1.7494 C   0  0  0  0  0  0  0  0  0  0  0  0
    4.2743  -10.1570    2.5868 C   0  0  0  0  0  0  0  0  0  0  0  0
    5.4212   -9.3787    2.4185 C   0  0  0  0  0  0  0  0  0  0  0  0
    5.8423   -8.1762    3.1270 C   0  0  0  0  0  0  0  0  0  0  0  0
    5.4651   -7.8047    4.3882 C   0  0  0  0  0  0  0  0  0  0  0  0
    6.1451   -6.7999    5.1109 C   0  0  0  0  0  0  0  0  0  0  0  0
    6.7170   -6.0276    5.7375 N   0  0  0  0  0  0  0  0  0  0  0  0
    4.4529   -8.4474    5.1283 C   0  0  0  0  0  0  0  0  0  0  0  0
    3.6268   -8.9335    5.7594 N   0  0  0  0  0  0  0  0  0  0  0  0
    3.3540  -12.4344    1.3840 C   0  0  0  0  0  0  0  0  0  0  0  0
    3.3981  -13.6340    2.3543 C   0  0  0  0  0  0  0  0  0  0  0  0
    2.8820  -14.7886    1.5264 C   0  0  0  0  0  0  0  0  0  0  0  0
    3.8163  -15.0959    0.6357 C   0  0  0  0  0  0  0  0  0  0  0  0
    4.9801  -14.1543    0.8469 C   0  0  0  0  0  0  0  0  0  0  0  0
    4.8956  -13.9677    2.3673 C   0  0  0  0  0  0  0  0  0  0  0  0
    4.4545  -12.7960    0.3352 C   0  0  0  0  0  0  0  0  0  0  0  0
   -3.7419    8.6112   -2.5707 H   0  0  0  0  0  0  0  0  0  0  0  0
   -8.4338    4.8667   -4.2691 H   0  0  0  0  0  0  0  0  0  0  0  0
   -8.9446    9.8852   -3.7925 H   0  0  0  0  0  0  0  0  0  0  0  0
  -11.3265    8.6369   -5.9191 H   0  0  0  0  0  0  0  0  0  0  0  0
  -12.4661    9.1390   -3.5645 H   0  0  0  0  0  0  0  0  0  0  0  0
  -14.3257    8.3213   -5.2314 H   0  0  0  0  0  0  0  0  0  0  0  0
  -14.0887    5.6896   -5.5086 H   0  0  0  0  0  0  0  0  0  0  0  0
  -12.0851    4.8868   -4.0110 H   0  0  0  0  0  0  0  0  0  0  0  0
  -12.9779    6.8067   -2.4226 H   0  0  0  0  0  0  0  0  0  0  0  0
  -11.2142    6.9799   -2.5685 H   0  0  0  0  0  0  0  0  0  0  0  0
  -11.0893    6.0552   -6.1872 H   0  0  0  0  0  0  0  0  0  0  0  0
    0.4501    4.5718    1.6959 H   0  0  0  0  0  0  0  0  0  0  0  0
   -0.7438    6.6966    1.8358 H   0  0  0  0  0  0  0  0  0  0  0  0
   -2.7695    9.5739    0.6039 H   0  0  0  0  0  0  0  0  0  0  0  0
   -2.0404    8.7422    1.9998 H   0  0  0  0  0  0  0  0  0  0  0  0
   -2.4663    7.8255    0.5205 H   0  0  0  0  0  0  0  0  0  0  0  0
    1.6801    8.2704   -1.3134 H   0  0  0  0  0  0  0  0  0  0  0  0
    2.8766    6.1201   -1.4646 H   0  0  0  0  0  0  0  0  0  0  0  0
    4.1664    5.4717    1.1203 H   0  0  0  0  0  0  0  0  0  0  0  0
    6.6057    5.3679    0.7698 H   0  0  0  0  0  0  0  0  0  0  0  0
    8.2994    2.2583   -2.6997 H   0  0  0  0  0  0  0  0  0  0  0  0
    9.6649    2.0623   -1.5827 H   0  0  0  0  0  0  0  0  0  0  0  0
    8.0735    1.4047   -1.1369 H   0  0  0  0  0  0  0  0  0  0  0  0
    6.0489    2.2922   -2.1499 H   0  0  0  0  0  0  0  0  0  0  0  0
    3.6350    2.4121   -1.8145 H   0  0  0  0  0  0  0  0  0  0  0  0
   -0.6308   -3.3707   -0.0138 H   0  0  0  0  0  0  0  0  0  0  0  0
   -3.0244   -3.3175    0.5736 H   0  0  0  0  0  0  0  0  0  0  0  0
   -5.8257   -0.6629    3.9434 H   0  0  0  0  0  0  0  0  0  0  0  0
   -4.2178   -0.9733    4.6326 H   0  0  0  0  0  0  0  0  0  0  0  0
   -4.4442    0.3133    3.4005 H   0  0  0  0  0  0  0  0  0  0  0  0
   -2.2145   -0.3815    3.5787 H   0  0  0  0  0  0  0  0  0  0  0  0
    0.1532   -0.4549    3.0103 H   0  0  0  0  0  0  0  0  0  0  0  0
    3.0737   -2.3185   -0.8140 H   0  0  0  0  0  0  0  0  0  0  0  0
    4.2777   -4.3844   -1.2612 H   0  0  0  0  0  0  0  0  0  0  0  0
    6.0919   -5.7572   -0.5157 H   0  0  0  0  0  0  0  0  0  0  0  0
    5.2326   -6.4015   -1.9543 H   0  0  0  0  0  0  0  0  0  0  0  0
    6.2093   -7.4793   -0.9344 H   0  0  0  0  0  0  0  0  0  0  0  0
    2.0585   -6.3482    1.8226 H   0  0  0  0  0  0  0  0  0  0  0  0
    0.8635   -4.2472    2.2952 H   0  0  0  0  0  0  0  0  0  0  0  0
    8.2281   -6.1835    1.5751 H   0  0  0  0  0  0  0  0  0  0  0  0
    7.0952  -11.0193   -0.1029 H   0  0  0  0  0  0  0  0  0  0  0  0
    3.5074   -9.9049    3.3009 H   0  0  0  0  0  0  0  0  0  0  0  0
    2.3502  -12.2086    1.0297 H   0  0  0  0  0  0  0  0  0  0  0  0
    2.9144  -13.4619    3.3118 H   0  0  0  0  0  0  0  0  0  0  0  0
    1.9011  -15.2131    1.6343 H   0  0  0  0  0  0  0  0  0  0  0  0
    3.7719  -15.8282   -0.1490 H   0  0  0  0  0  0  0  0  0  0  0  0
    5.9368  -14.4584    0.4309 H   0  0  0  0  0  0  0  0  0  0  0  0
    5.5251  -13.1680    2.7529 H   0  0  0  0  0  0  0  0  0  0  0  0
    5.1068  -14.8893    2.9068 H   0  0  0  0  0  0  0  0  0  0  0  0
    4.1847  -12.8136   -0.7190 H   0  0  0  0  0  0  0  0  0  0  0  0
  1  2  2  0  0  0  0
  2  3  1  0  0  0  0
  3  4  2  0  0  0  0
  3  5  1  0  0  0  0
  5  6  2  0  0  0  0
  6  7  1  0  0  0  0
  7  8  2  0  0  0  0
  8  9  1  0  0  0  0
  9 10  2  0  0  0  0
 10 11  1  0  0  0  0
 11 12  2  0  0  0  0
 12 13  1  0  0  0  0
 13 14  3  0  0  0  0
 12 15  1  0  0  0  0
 15 16  3  0  0  0  0
  8 17  1  0  0  0  0
 17 18  1  0  0  0  0
 18 19  1  0  0  0  0
 19 20  2  0  0  0  0
 20 21  1  0  0  0  0
 21 22  1  0  0  0  0
 21 23  1  0  0  0  0
  1 24  1  0  0  0  0
 24 25  1  0  0  0  0
 25 26  1  0  0  0  0
 26 27  1  0  0  0  0
 27 28  2  0  0  0  0
 28 29  1  0  0  0  0
 29 30  1  0  0  0  0
 30 31  1  0  0  0  0
 28 32  1  0  0  0  0
 32 33  2  0  0  0  0
 33 34  1  0  0  0  0
 34 35  1  0  0  0  0
 35 36  2  0  0  0  0
 36 37  1  0  0  0  0
 37 38  2  0  0  0  0
 38 39  1  0  0  0  0
 39 40  1  0  0  0  0
 38 41  1  0  0  0  0
 41 42  2  0  0  0  0
 34 43  1  0  0  0  0
 43 44  2  0  0  0  0
 44 45  1  0  0  0  0
 45 46  2  0  0  0  0
 46 47  1  0  0  0  0
 47 48  1  0  0  0  0
 46 49  1  0  0  0  0
 49 50  2  0  0  0  0
 33 51  1  0  0  0  0
 51 52  1  0  0  0  0
 52 53  1  0  0  0  0
 53 54  2  0  0  0  0
 54 55  1  0  0  0  0
 55 56  1  0  0  0  0
 56 57  2  0  0  0  0
 57 58  1  0  0  0  0
 58 59  2  0  0  0  0
 59 60  1  0  0  0  0
 60 61  1  0  0  0  0
 59 62  1  0  0  0  0
 62 63  2  0  0  0  0
 55 64  1  0  0  0  0
 64 65  2  0  0  0  0
 65 66  1  0  0  0  0
 66 67  2  0  0  0  0
 67 68  1  0  0  0  0
 68 69  1  0  0  0  0
 67 70  1  0  0  0  0
 70 71  2  0  0  0  0
 54 72  1  0  0  0  0
 72 73  1  0  0  0  0
 53 74  1  0  0  0  0
 74 75  1  0  0  0  0
 75 76  1  0  0  0  0
 76 77  1  0  0  0  0
 77 78  2  0  0  0  0
 78 79  1  0  0  0  0
 79 80  1  0  0  0  0
 80 81  1  0  0  0  0
 78 82  1  0  0  0  0
 82 83  2  0  0  0  0
 83 84  1  0  0  0  0
 84 85  2  0  0  0  0
 84 86  1  0  0  0  0
 86 87  2  0  0  0  0
 87 88  1  0  0  0  0
 88 89  2  0  0  0  0
 89 90  1  0  0  0  0
 90 91  2  0  0  0  0
 91 92  1  0  0  0  0
 92 93  2  0  0  0  0
 93 94  1  0  0  0  0
 94 95  3  0  0  0  0
 93 96  1  0  0  0  0
 96 97  3  0  0  0  0
 89 98  1  0  0  0  0
 98 99  1  0  0  0  0
 99100  1  0  0  0  0
100101  2  0  0  0  0
101102  1  0  0  0  0
102103  1  0  0  0  0
102104  1  0  0  0  0
 11  2  1  0  0  0  0
 23 17  1  0  0  0  0
 31 24  2  0  0  0  0
 73 32  1  0  0  0  0
 81 74  2  0  0  0  0
 92 83  1  0  0  0  0
104 98  1  0  0  0  0
 10  5  1  0  0  0  0
 22 18  1  0  0  0  0
 30 26  2  0  0  0  0
 42 35  1  0  0  0  0
 50 43  1  0  0  0  0
 72 51  2  0  0  0  0
 80 76  2  0  0  0  0
 91 86  1  0  0  0  0
103 99  1  0  0  0  0
 23  7  1  0  0  0  0
 63 56  1  0  0  0  0
 71 64  1  0  0  0  0
104 88  1  0  0  0  0
  1105  1  0  0  0  0
  6106  1  0  0  0  0
  9107  1  0  0  0  0
 17108  1  0  0  0  0
 18109  1  0  0  0  0
 19110  1  0  0  0  0
 20111  1  0  0  0  0
 21112  1  0  0  0  0
 22113  1  0  0  0  0
 22114  1  0  0  0  0
 23115  1  0  0  0  0
 36116  1  0  0  0  0
 37117  1  0  0  0  0
 40118  1  0  0  0  0
 40119  1  0  0  0  0
 40120  1  0  0  0  0
 41121  1  0  0  0  0
 42122  1  0  0  0  0
 44123  1  0  0  0  0
 45124  1  0  0  0  0
 48125  1  0  0  0  0
 48126  1  0  0  0  0
 48127  1  0  0  0  0
 49128  1  0  0  0  0
 50129  1  0  0  0  0
 57130  1  0  0  0  0
 58131  1  0  0  0  0
 61132  1  0  0  0  0
 61133  1  0  0  0  0
 61134  1  0  0  0  0
 62135  1  0  0  0  0
 63136  1  0  0  0  0
 65137  1  0  0  0  0
 66138  1  0  0  0  0
 69139  1  0  0  0  0
 69140  1  0  0  0  0
 69141  1  0  0  0  0
 70142  1  0  0  0  0
 71143  1  0  0  0  0
 82144  1  0  0  0  0
 87145  1  0  0  0  0
 90146  1  0  0  0  0
 98147  1  0  0  0  0
 99148  1  0  0  0  0
100149  1  0  0  0  0
101150  1  0  0  0  0
102151  1  0  0  0  0
103152  1  0  0  0  0
103153  1  0  0  0  0
104154  1  0  0  0  0
M  END
