
  xtb     02042206423D
 energy: -288.602344627936 gnorm: 0.000733070802 xtb: 6.4.1 (unknown)
170188  0     0  0            999 V2000
    4.0679   -0.9629   -6.0850 C   0  0  0  0  0  0  0  0  0  0  0  0
    5.0074   -0.0287   -5.7961 C   0  0  0  0  0  0  0  0  0  0  0  0
    5.9833    0.4081   -6.8285 C   0  0  0  0  0  0  0  0  0  0  0  0
    5.9355    0.1849   -8.0165 O   0  0  0  0  0  0  0  0  0  0  0  0
    7.0448    1.1178   -6.0861 C   0  0  0  0  0  0  0  0  0  0  0  0
    8.2402    1.6177   -6.5989 C   0  0  0  0  0  0  0  0  0  0  0  0
    9.0471    2.2147   -5.6603 C   0  0  0  0  0  0  0  0  0  0  0  0
    8.6967    2.3061   -4.3061 C   0  0  0  0  0  0  0  0  0  0  0  0
    7.5180    1.8269   -3.7876 C   0  0  0  0  0  0  0  0  0  0  0  0
    6.6786    1.2184   -4.7277 C   0  0  0  0  0  0  0  0  0  0  0  0
    5.3517    0.6327   -4.5529 C   0  0  0  0  0  0  0  0  0  0  0  0
    4.5271    0.8785   -3.4855 C   0  0  0  0  0  0  0  0  0  0  0  0
    3.1632    0.5330   -3.3876 C   0  0  0  0  0  0  0  0  0  0  0  0
    2.0414    0.3615   -3.2048 N   0  0  0  0  0  0  0  0  0  0  0  0
    4.8970    1.5951   -2.3292 C   0  0  0  0  0  0  0  0  0  0  0  0
    5.1121    2.1501   -1.3461 N   0  0  0  0  0  0  0  0  0  0  0  0
    9.9784    3.0113   -3.9388 C   0  0  0  0  0  0  0  0  0  0  0  0
   11.0648    2.1568   -3.2522 C   0  0  0  0  0  0  0  0  0  0  0  0
   12.3320    2.9572   -3.4501 C   0  0  0  0  0  0  0  0  0  0  0  0
   12.6629    2.8782   -4.7327 C   0  0  0  0  0  0  0  0  0  0  0  0
   11.6255    2.0225   -5.4232 C   0  0  0  0  0  0  0  0  0  0  0  0
   11.2887    1.0473   -4.2877 C   0  0  0  0  0  0  0  0  0  0  0  0
   10.3667    2.9153   -5.4493 C   0  0  0  0  0  0  0  0  0  0  0  0
    3.3070   -1.6990   -5.1228 C   0  0  0  0  0  0  0  0  0  0  0  0
    1.9676   -2.0247   -5.3246 C   0  0  0  0  0  0  0  0  0  0  0  0
    1.4211   -1.7599   -6.5253 F   0  0  0  0  0  0  0  0  0  0  0  0
    1.1208   -2.4637   -4.3247 C   0  0  0  0  0  0  0  0  0  0  0  0
    1.6073   -2.6825   -3.0348 C   0  0  0  0  0  0  0  0  0  0  0  0
    3.0298   -2.6668   -2.8825 C   0  0  0  0  0  0  0  0  0  0  0  0
    3.5584   -3.0856   -1.7232 N   0  0  0  0  0  0  0  0  0  0  0  0
    4.8425   -2.9994   -1.5325 C   0  0  0  0  0  0  0  0  0  0  0  0
    5.6858   -2.4720   -2.5467 C   0  0  0  0  0  0  0  0  0  0  0  0
    6.9947   -2.4402   -2.3192 O   0  0  0  0  0  0  0  0  0  0  0  0
    7.8282   -1.9838   -3.3821 C   0  0  0  0  0  0  0  0  0  0  0  0
    9.2699   -2.2662   -3.0025 C   0  0  0  0  0  0  0  0  0  0  0  0
    5.1956   -2.0382   -3.6854 N   0  0  0  0  0  0  0  0  0  0  0  0
    3.8662   -2.1277   -3.8864 C   0  0  0  0  0  0  0  0  0  0  0  0
    0.8197   -2.6775   -1.8510 C   0  0  0  0  0  0  0  0  0  0  0  0
   -0.5267   -2.3064   -1.7173 C   0  0  0  0  0  0  0  0  0  0  0  0
   -1.4856   -2.2301   -2.7090 N   0  0  0  0  0  0  0  0  0  0  0  0
   -2.3021   -1.0766   -2.6329 C   0  0  0  0  0  0  0  0  0  0  0  0
   -3.6786   -1.1634   -2.4602 C   0  0  0  0  0  0  0  0  0  0  0  0
   -4.4226   -0.0206   -2.2402 C   0  0  0  0  0  0  0  0  0  0  0  0
   -3.7961    1.2185   -2.1922 C   0  0  0  0  0  0  0  0  0  0  0  0
   -4.6513    2.7241   -1.8630 S   0  0  0  0  0  0  0  0  0  0  0  0
   -6.1239    2.1746   -0.9537 C   0  0  0  0  0  0  0  0  0  0  0  0
   -2.4245    1.3089   -2.4228 C   0  0  0  0  0  0  0  0  0  0  0  0
   -1.6797    0.1714   -2.6380 C   0  0  0  0  0  0  0  0  0  0  0  0
   -1.8018   -3.2887   -3.5528 C   0  0  0  0  0  0  0  0  0  0  0  0
   -1.3688   -4.5856   -3.2793 C   0  0  0  0  0  0  0  0  0  0  0  0
   -1.6824   -5.6290   -4.1273 C   0  0  0  0  0  0  0  0  0  0  0  0
   -2.4406   -5.3991   -5.2675 C   0  0  0  0  0  0  0  0  0  0  0  0
   -2.9120   -6.6500   -6.4190 S   0  0  0  0  0  0  0  0  0  0  0  0
   -2.0711   -8.1410   -5.8156 C   0  0  0  0  0  0  0  0  0  0  0  0
   -2.8784   -4.1043   -5.5446 C   0  0  0  0  0  0  0  0  0  0  0  0
   -2.5625   -3.0619   -4.7049 C   0  0  0  0  0  0  0  0  0  0  0  0
   -0.8068   -1.8859   -0.3973 C   0  0  0  0  0  0  0  0  0  0  0  0
   -2.1432   -1.0804    0.3551 S   0  0  0  0  0  0  0  0  0  0  0  0
   -1.2061   -0.8435    1.8214 C   0  0  0  0  0  0  0  0  0  0  0  0
    0.0600   -1.4088    1.7289 C   0  0  0  0  0  0  0  0  0  0  0  0
    1.0744   -1.3037    2.6857 N   0  0  0  0  0  0  0  0  0  0  0  0
    1.7403   -0.0684    2.7887 C   0  0  0  0  0  0  0  0  0  0  0  0
    1.7993    0.8018    1.7044 C   0  0  0  0  0  0  0  0  0  0  0  0
    2.5108    1.9823    1.7839 C   0  0  0  0  0  0  0  0  0  0  0  0
    3.1794    2.3132    2.9543 C   0  0  0  0  0  0  0  0  0  0  0  0
    4.1707    3.7604    3.1332 S   0  0  0  0  0  0  0  0  0  0  0  0
    4.3854    4.3433    1.4266 C   0  0  0  0  0  0  0  0  0  0  0  0
    3.0823    1.4683    4.0593 C   0  0  0  0  0  0  0  0  0  0  0  0
    2.3690    0.2930    3.9806 C   0  0  0  0  0  0  0  0  0  0  0  0
    1.7151   -2.4993    3.0293 C   0  0  0  0  0  0  0  0  0  0  0  0
    3.0968   -2.5899    3.2016 C   0  0  0  0  0  0  0  0  0  0  0  0
    3.6744   -3.7918    3.5421 C   0  0  0  0  0  0  0  0  0  0  0  0
    2.8957   -4.9351    3.7105 C   0  0  0  0  0  0  0  0  0  0  0  0
    3.7581   -6.4151    4.1442 S   0  0  0  0  0  0  0  0  0  0  0  0
    2.4464   -7.6615    4.2906 C   0  0  0  0  0  0  0  0  0  0  0  0
    1.5224   -4.8537    3.5307 C   0  0  0  0  0  0  0  0  0  0  0  0
    0.9416   -3.6463    3.1967 C   0  0  0  0  0  0  0  0  0  0  0  0
    0.2621   -2.0152    0.4732 C   0  0  0  0  0  0  0  0  0  0  0  0
    1.6600   -2.6833   -0.3017 S   0  0  0  0  0  0  0  0  0  0  0  0
   -1.7958   -0.1024    2.8741 C   0  0  0  0  0  0  0  0  0  0  0  0
   -1.3078    0.1493    4.1394 C   0  0  0  0  0  0  0  0  0  0  0  0
   -2.1746    0.9169    4.9241 C   0  0  0  0  0  0  0  0  0  0  0  0
   -1.7751    1.1709    6.1789 O   0  0  0  0  0  0  0  0  0  0  0  0
   -2.6506    1.5729    7.2125 C   0  0  0  0  0  0  0  0  0  0  0  0
   -3.3569    1.2991    4.2408 C   0  0  0  0  0  0  0  0  0  0  0  0
   -3.3732    0.5744    2.6411 S   0  0  0  0  0  0  0  0  0  0  0  0
   -4.3026    2.2304    4.6745 C   0  0  0  0  0  0  0  0  0  0  0  0
   -5.4781    2.6522    4.0897 C   0  0  0  0  0  0  0  0  0  0  0  0
   -6.1249    2.0779    2.9101 C   0  0  0  0  0  0  0  0  0  0  0  0
   -5.7132    1.1853    2.1848 O   0  0  0  0  0  0  0  0  0  0  0  0
   -7.4082    2.7840    2.7519 C   0  0  0  0  0  0  0  0  0  0  0  0
   -8.3782    2.5541    1.7798 C   0  0  0  0  0  0  0  0  0  0  0  0
   -9.4586    3.3994    1.8572 C   0  0  0  0  0  0  0  0  0  0  0  0
   -9.5694    4.3948    2.8359 C   0  0  0  0  0  0  0  0  0  0  0  0
   -8.6285    4.6171    3.8141 C   0  0  0  0  0  0  0  0  0  0  0  0
   -7.5189    3.7705    3.7508 C   0  0  0  0  0  0  0  0  0  0  0  0
   -6.3278    3.7055    4.5995 C   0  0  0  0  0  0  0  0  0  0  0  0
   -6.0860    4.5287    5.6737 C   0  0  0  0  0  0  0  0  0  0  0  0
   -4.9331    4.5135    6.4806 C   0  0  0  0  0  0  0  0  0  0  0  0
   -4.0250    4.5723    7.1851 N   0  0  0  0  0  0  0  0  0  0  0  0
   -6.9677    5.5289    6.1321 C   0  0  0  0  0  0  0  0  0  0  0  0
   -7.6303    6.3570    6.5731 N   0  0  0  0  0  0  0  0  0  0  0  0
  -10.8919    4.8843    2.3015 C   0  0  0  0  0  0  0  0  0  0  0  0
  -10.8895    6.1849    1.4604 C   0  0  0  0  0  0  0  0  0  0  0  0
   -9.5207    6.2929    0.8356 C   0  0  0  0  0  0  0  0  0  0  0  0
   -9.4218    5.3478   -0.0896 C   0  0  0  0  0  0  0  0  0  0  0  0
  -10.7216    4.5818   -0.1052 C   0  0  0  0  0  0  0  0  0  0  0  0
  -11.7042    5.7102    0.2464 C   0  0  0  0  0  0  0  0  0  0  0  0
  -10.7710    3.7708    1.2136 C   0  0  0  0  0  0  0  0  0  0  0  0
    3.8985   -1.1767   -7.1347 H   0  0  0  0  0  0  0  0  0  0  0  0
    8.4713    1.5301   -7.6488 H   0  0  0  0  0  0  0  0  0  0  0  0
    7.2593    1.9025   -2.7439 H   0  0  0  0  0  0  0  0  0  0  0  0
    9.8655    3.9966   -3.4908 H   0  0  0  0  0  0  0  0  0  0  0  0
   10.8311    1.8543   -2.2351 H   0  0  0  0  0  0  0  0  0  0  0  0
   12.8095    3.5258   -2.6741 H   0  0  0  0  0  0  0  0  0  0  0  0
   13.4720    3.3677   -5.2421 H   0  0  0  0  0  0  0  0  0  0  0  0
   11.9028    1.5971   -6.3838 H   0  0  0  0  0  0  0  0  0  0  0  0
   12.1310    0.4073   -4.0301 H   0  0  0  0  0  0  0  0  0  0  0  0
   10.4085    0.4357   -4.4780 H   0  0  0  0  0  0  0  0  0  0  0  0
   10.5096    3.8373   -6.0095 H   0  0  0  0  0  0  0  0  0  0  0  0
    0.0779   -2.5527   -4.5673 H   0  0  0  0  0  0  0  0  0  0  0  0
    5.2444   -3.3478   -0.5939 H   0  0  0  0  0  0  0  0  0  0  0  0
    7.6631   -0.9105   -3.5331 H   0  0  0  0  0  0  0  0  0  0  0  0
    7.5466   -2.5032   -4.3054 H   0  0  0  0  0  0  0  0  0  0  0  0
    9.5354   -1.7177   -2.1030 H   0  0  0  0  0  0  0  0  0  0  0  0
    9.4048   -3.3278   -2.8134 H   0  0  0  0  0  0  0  0  0  0  0  0
    9.9277   -1.9640   -3.8119 H   0  0  0  0  0  0  0  0  0  0  0  0
   -4.1605   -2.1298   -2.4705 H   0  0  0  0  0  0  0  0  0  0  0  0
   -5.4856   -0.1090   -2.0867 H   0  0  0  0  0  0  0  0  0  0  0  0
   -5.8212    1.5216   -0.1394 H   0  0  0  0  0  0  0  0  0  0  0  0
   -6.5718    3.0803   -0.5547 H   0  0  0  0  0  0  0  0  0  0  0  0
   -6.8247    1.6857   -1.6247 H   0  0  0  0  0  0  0  0  0  0  0  0
   -1.9515    2.2784   -2.4112 H   0  0  0  0  0  0  0  0  0  0  0  0
   -0.6121    0.2335   -2.7905 H   0  0  0  0  0  0  0  0  0  0  0  0
   -0.7867   -4.7798   -2.3913 H   0  0  0  0  0  0  0  0  0  0  0  0
   -1.3338   -6.6183   -3.8792 H   0  0  0  0  0  0  0  0  0  0  0  0
   -2.4582   -8.4207   -4.8400 H   0  0  0  0  0  0  0  0  0  0  0  0
   -0.9985   -7.9735   -5.7833 H   0  0  0  0  0  0  0  0  0  0  0  0
   -2.3014   -8.9179   -6.5381 H   0  0  0  0  0  0  0  0  0  0  0  0
   -3.4627   -3.9276   -6.4342 H   0  0  0  0  0  0  0  0  0  0  0  0
   -2.8911   -2.0607   -4.9386 H   0  0  0  0  0  0  0  0  0  0  0  0
    1.3099    0.5457    0.7766 H   0  0  0  0  0  0  0  0  0  0  0  0
    2.5523    2.6214    0.9172 H   0  0  0  0  0  0  0  0  0  0  0  0
    5.1412    5.1211    1.4787 H   0  0  0  0  0  0  0  0  0  0  0  0
    4.7314    3.5292    0.7967 H   0  0  0  0  0  0  0  0  0  0  0  0
    3.4551    4.7630    1.0541 H   0  0  0  0  0  0  0  0  0  0  0  0
    3.5825    1.7424    4.9754 H   0  0  0  0  0  0  0  0  0  0  0  0
    2.3137   -0.3658    4.8348 H   0  0  0  0  0  0  0  0  0  0  0  0
    3.7163   -1.7192    3.0528 H   0  0  0  0  0  0  0  0  0  0  0  0
    4.7435   -3.8632    3.6726 H   0  0  0  0  0  0  0  0  0  0  0  0
    2.9495   -8.5838    4.5640 H   0  0  0  0  0  0  0  0  0  0  0  0
    1.7488   -7.3769    5.0729 H   0  0  0  0  0  0  0  0  0  0  0  0
    1.9426   -7.7854    3.3363 H   0  0  0  0  0  0  0  0  0  0  0  0
    0.8899   -5.7182    3.6518 H   0  0  0  0  0  0  0  0  0  0  0  0
   -0.1292   -3.5872    3.0659 H   0  0  0  0  0  0  0  0  0  0  0  0
   -0.3675   -0.2061    4.5143 H   0  0  0  0  0  0  0  0  0  0  0  0
   -2.1720    1.2429    8.1354 H   0  0  0  0  0  0  0  0  0  0  0  0
   -3.6294    1.0949    7.1230 H   0  0  0  0  0  0  0  0  0  0  0  0
   -2.7653    2.6606    7.2542 H   0  0  0  0  0  0  0  0  0  0  0  0
   -4.0533    2.7266    5.5989 H   0  0  0  0  0  0  0  0  0  0  0  0
   -8.2566    1.7722    1.0468 H   0  0  0  0  0  0  0  0  0  0  0  0
   -8.7370    5.3813    4.5650 H   0  0  0  0  0  0  0  0  0  0  0  0
  -11.7337    4.8376    2.9895 H   0  0  0  0  0  0  0  0  0  0  0  0
  -11.2452    7.0646    1.9900 H   0  0  0  0  0  0  0  0  0  0  0  0
   -8.7678    6.9877    1.1589 H   0  0  0  0  0  0  0  0  0  0  0  0
   -8.5710    5.0987   -0.6968 H   0  0  0  0  0  0  0  0  0  0  0  0
  -10.9263    4.0011   -1.0010 H   0  0  0  0  0  0  0  0  0  0  0  0
  -12.7003    5.3535    0.5048 H   0  0  0  0  0  0  0  0  0  0  0  0
  -11.7749    6.4655   -0.5349 H   0  0  0  0  0  0  0  0  0  0  0  0
  -11.5318    2.9927    1.1950 H   0  0  0  0  0  0  0  0  0  0  0  0
  1  2  2  0  0  0  0
  2  3  1  0  0  0  0
  3  4  2  0  0  0  0
  3  5  1  0  0  0  0
  5  6  2  0  0  0  0
  6  7  1  0  0  0  0
  7  8  2  0  0  0  0
  8  9  1  0  0  0  0
  9 10  2  0  0  0  0
 10 11  1  0  0  0  0
 11 12  2  0  0  0  0
 12 13  1  0  0  0  0
 13 14  3  0  0  0  0
 12 15  1  0  0  0  0
 15 16  3  0  0  0  0
  8 17  1  0  0  0  0
 17 18  1  0  0  0  0
 18 19  1  0  0  0  0
 19 20  2  0  0  0  0
 20 21  1  0  0  0  0
 21 22  1  0  0  0  0
 21 23  1  0  0  0  0
  1 24  1  0  0  0  0
 24 25  2  0  0  0  0
 25 26  1  0  0  0  0
 25 27  1  0  0  0  0
 27 28  2  0  0  0  0
 28 29  1  0  0  0  0
 29 30  2  0  0  0  0
 30 31  1  0  0  0  0
 31 32  2  0  0  0  0
 32 33  1  0  0  0  0
 33 34  1  0  0  0  0
 34 35  1  0  0  0  0
 32 36  1  0  0  0  0
 36 37  2  0  0  0  0
 28 38  1  0  0  0  0
 38 39  2  0  0  0  0
 39 40  1  0  0  0  0
 40 41  1  0  0  0  0
 41 42  2  0  0  0  0
 42 43  1  0  0  0  0
 43 44  2  0  0  0  0
 44 45  1  0  0  0  0
 45 46  1  0  0  0  0
 44 47  1  0  0  0  0
 47 48  2  0  0  0  0
 40 49  1  0  0  0  0
 49 50  2  0  0  0  0
 50 51  1  0  0  0  0
 51 52  2  0  0  0  0
 52 53  1  0  0  0  0
 53 54  1  0  0  0  0
 52 55  1  0  0  0  0
 55 56  2  0  0  0  0
 39 57  1  0  0  0  0
 57 58  1  0  0  0  0
 58 59  1  0  0  0  0
 59 60  2  0  0  0  0
 60 61  1  0  0  0  0
 61 62  1  0  0  0  0
 62 63  2  0  0  0  0
 63 64  1  0  0  0  0
 64 65  2  0  0  0  0
 65 66  1  0  0  0  0
 66 67  1  0  0  0  0
 65 68  1  0  0  0  0
 68 69  2  0  0  0  0
 61 70  1  0  0  0  0
 70 71  2  0  0  0  0
 71 72  1  0  0  0  0
 72 73  2  0  0  0  0
 73 74  1  0  0  0  0
 74 75  1  0  0  0  0
 73 76  1  0  0  0  0
 76 77  2  0  0  0  0
 60 78  1  0  0  0  0
 78 79  1  0  0  0  0
 59 80  1  0  0  0  0
 80 81  2  0  0  0  0
 81 82  1  0  0  0  0
 82 83  1  0  0  0  0
 83 84  1  0  0  0  0
 82 85  2  0  0  0  0
 85 86  1  0  0  0  0
 85 87  1  0  0  0  0
 87 88  2  0  0  0  0
 88 89  1  0  0  0  0
 89 90  2  0  0  0  0
 89 91  1  0  0  0  0
 91 92  2  0  0  0  0
 92 93  1  0  0  0  0
 93 94  2  0  0  0  0
 94 95  1  0  0  0  0
 95 96  2  0  0  0  0
 96 97  1  0  0  0  0
 97 98  2  0  0  0  0
 98 99  1  0  0  0  0
 99100  3  0  0  0  0
 98101  1  0  0  0  0
101102  3  0  0  0  0
 94103  1  0  0  0  0
103104  1  0  0  0  0
104105  1  0  0  0  0
105106  2  0  0  0  0
106107  1  0  0  0  0
107108  1  0  0  0  0
107109  1  0  0  0  0
 11  2  1  0  0  0  0
 23 17  1  0  0  0  0
 37 24  1  0  0  0  0
 79 38  1  0  0  0  0
 86 80  1  0  0  0  0
 97 88  1  0  0  0  0
109103  1  0  0  0  0
 10  5  1  0  0  0  0
 22 18  1  0  0  0  0
 37 29  1  0  0  0  0
 48 41  1  0  0  0  0
 56 49  1  0  0  0  0
 78 57  2  0  0  0  0
 96 91  1  0  0  0  0
108104  1  0  0  0  0
 23  7  1  0  0  0  0
 69 62  1  0  0  0  0
 77 70  1  0  0  0  0
109 93  1  0  0  0  0
  1110  1  0  0  0  0
  6111  1  0  0  0  0
  9112  1  0  0  0  0
 17113  1  0  0  0  0
 18114  1  0  0  0  0
 19115  1  0  0  0  0
 20116  1  0  0  0  0
 21117  1  0  0  0  0
 22118  1  0  0  0  0
 22119  1  0  0  0  0
 23120  1  0  0  0  0
 27121  1  0  0  0  0
 31122  1  0  0  0  0
 34123  1  0  0  0  0
 34124  1  0  0  0  0
 35125  1  0  0  0  0
 35126  1  0  0  0  0
 35127  1  0  0  0  0
 42128  1  0  0  0  0
 43129  1  0  0  0  0
 46130  1  0  0  0  0
 46131  1  0  0  0  0
 46132  1  0  0  0  0
 47133  1  0  0  0  0
 48134  1  0  0  0  0
 50135  1  0  0  0  0
 51136  1  0  0  0  0
 54137  1  0  0  0  0
 54138  1  0  0  0  0
 54139  1  0  0  0  0
 55140  1  0  0  0  0
 56141  1  0  0  0  0
 63142  1  0  0  0  0
 64143  1  0  0  0  0
 67144  1  0  0  0  0
 67145  1  0  0  0  0
 67146  1  0  0  0  0
 68147  1  0  0  0  0
 69148  1  0  0  0  0
 71149  1  0  0  0  0
 72150  1  0  0  0  0
 75151  1  0  0  0  0
 75152  1  0  0  0  0
 75153  1  0  0  0  0
 76154  1  0  0  0  0
 77155  1  0  0  0  0
 81156  1  0  0  0  0
 84157  1  0  0  0  0
 84158  1  0  0  0  0
 84159  1  0  0  0  0
 87160  1  0  0  0  0
 92161  1  0  0  0  0
 95162  1  0  0  0  0
103163  1  0  0  0  0
104164  1  0  0  0  0
105165  1  0  0  0  0
106166  1  0  0  0  0
107167  1  0  0  0  0
108168  1  0  0  0  0
108169  1  0  0  0  0
109170  1  0  0  0  0
M  END
