148

C         -1.61290       -2.37380       -6.20300
C         -0.84090       -3.35990       -6.74350
C         -0.04600       -4.35060       -5.97500
O         -0.07620       -4.56000       -4.78040
C          0.67590       -5.15080       -6.98340
C          1.62180       -6.14400       -6.74390
C          2.13470       -6.71680       -7.88300
C          1.72070       -6.34390       -9.16870
C          0.77750       -5.37640       -9.41910
C          0.25400       -4.77010       -8.27300
C         -0.73430       -3.70140       -8.14750
C         -1.40880       -3.11800       -9.18980
C         -2.35280       -2.07730       -9.08480
N         -3.13070       -1.23200       -9.11470
C         -1.27170       -3.49160      -10.54310
N         -1.22450       -3.74010      -11.66350
C          2.65590       -7.31830       -9.83990
C          3.94970       -6.75180      -10.47520
C          4.27750       -5.48660       -9.72190
C          4.67350       -5.83190       -8.50410
C          4.62150       -7.33690       -8.41220
C          4.98270       -7.70890       -9.85920
C          3.12260       -7.72860       -8.40760
C         -1.53320       -1.87360       -4.87720
C         -2.67300       -1.31580       -4.25700
C         -2.64600       -0.72100       -2.93910
N         -3.86230       -0.34190       -2.54130
S         -4.92090       -0.68350       -3.70000
N         -3.90570       -1.32300       -4.76680
C         -1.45580       -0.61490       -2.18810
C         -0.33560       -1.24450       -2.77060
N          0.88710       -1.26570       -2.23650
S          1.90480       -1.90660       -3.30060
N          0.86760       -2.17380       -4.48970
C         -0.35600       -1.81290       -4.10140
C         -1.34680        0.10800       -0.97210
C         -2.00840        1.28680       -0.59310
N         -2.72410        2.10930       -1.42790
C         -2.48500        2.13970       -2.80850
C         -3.54760        2.29060       -3.69470
C         -3.35380        2.17180       -5.05680
C         -2.08540        1.90670       -5.56090
S         -1.73290        1.61590       -7.25670
C         -3.36250        1.63450       -8.04880
C         -1.00270        1.85660       -4.67930
C         -1.19630        1.98090       -3.32370
C         -3.65450        2.99710       -0.86760
C         -4.53010        2.56060        0.12340
C         -5.36270        3.45610        0.76340
C         -5.32830        4.80120        0.41950
S         -6.27710        6.02820        1.26010
C         -6.46160        5.29890        2.91530
C         -4.51590        5.22440       -0.63030
C         -3.68620        4.33210       -1.27060
C         -1.69540        1.61970        0.74410
S         -2.15450        2.92730        1.79110
C         -1.13780        2.27740        3.06200
C         -0.35780        1.18700        2.62800
N          0.73560        0.68520        3.28460
C          1.52640        1.49720        4.10540
C          2.15820        0.96880        5.23030
C          2.87670        1.77740        6.08810
C          2.97020        3.14290        5.84210
S          3.77690        4.28610        6.90720
C          4.80290        3.24580        7.97550
C          2.38210        3.66900        4.68980
C          1.68700        2.85760        3.82540
C          1.09640       -0.65350        3.06880
C          2.43000       -1.00540        2.85840
C          2.76460       -2.31640        2.61310
C          1.77980       -3.30490        2.57150
S          2.33110       -4.94040        2.23280
C          0.79760       -5.89600        2.06210
C          0.45390       -2.95860        2.80350
C          0.11760       -1.64300        3.05020
C         -0.74900        0.78870        1.33040
S         -0.20910       -0.44700        0.24100
C         -1.17300        2.87620        4.33280
C         -1.57890        4.21990        4.50490
C         -1.28760        4.98960        5.69980
N         -1.70300        6.24690        5.55540
S         -2.38970        6.44450        4.10870
N         -2.18190        4.94290        3.56780
C         -0.62580        4.40940        6.81640
C         -0.61750        2.98560        6.76020
N         -0.45050        2.18020        7.80070
S         -0.51220        0.64900        7.31910
N         -0.76870        0.92270        5.75290
C         -0.83120        2.23630        5.54610
C          0.02420        5.08580        7.87190
C          0.92350        4.54200        8.77790
C          1.46280        3.25520        8.88180
N          2.02220        2.25840        9.01570
C          1.35560        5.59490        9.66120
C          2.27940        5.54980       10.67730
C          3.04880        4.42450       11.00910
N          3.74590        3.56480       11.31570
C          2.55090        6.70650       11.43470
N          2.77700        7.64200       12.05950
O          0.72840        6.73480        9.36670
C         -0.06500        6.56710        8.18060
C         -1.48350        7.03030        8.50250
C          0.59500        7.43000        7.09960
H         -2.38250       -1.91200       -6.80850
H          1.90760       -6.40490       -5.73680
H          0.46890       -5.10380      -10.41430
H          2.18700       -8.07930      -10.46050
H          3.92340       -6.67250      -11.55860
H          4.13650       -4.49890      -10.12020
H          4.92870       -5.18970       -7.68150
H          5.20890       -7.78980       -7.61760
H          6.00730       -7.44620      -10.11850
H          4.79990       -8.75600      -10.09680
H          2.96520       -8.75920       -8.09500
H         -4.54100        2.45870       -3.30560
H         -4.20320        2.26410       -5.71350
H         -3.99810        0.88160       -7.59390
H         -3.79680        2.62810       -7.98480
H         -3.18310        1.36850       -9.08530
H         -0.01100        1.70790       -5.07820
H         -0.35070        1.93700       -2.65390
H         -4.54870        1.51450        0.38920
H         -6.02960        3.09840        1.53110
H         -7.23910        4.54050        2.91430
H         -6.74970        6.11460        3.57100
H         -5.50730        4.88430        3.22600
H         -4.52260        6.26530       -0.91360
H         -3.03070        4.66680       -2.06050
H          2.05540       -0.08320        5.45070
H          3.32420        1.34330        6.96610
H          5.43340        2.61350        7.35770
H          5.41150        3.93000        8.55870
H          4.17080        2.66310        8.64200
H          2.49110        4.72200        4.47970
H          1.26220        3.27630        2.92570
H          3.19320       -0.24220        2.87290
H          3.79230       -2.59410        2.43740
H          0.27170       -5.93450        3.01160
H          1.10780       -6.89590        1.77490
H          0.17980       -5.46260        1.28140
H         -0.32490       -3.70330        2.80100
H         -0.90910       -1.37430        3.24710
H         -2.09610        6.97770        7.60950
H         -1.44640        8.05540        8.86070
H         -1.91330        6.40200        9.27990
H          0.68390        8.44640        7.47340
H         -0.00850        7.42760        6.19990
H          1.59020        7.04760        6.87760
