172

C         -0.76400       -3.19400        3.42460
C         -0.18170       -4.38910        3.06510
C          0.30340       -4.68340        1.70600
O          0.22180       -3.96880        0.72350
C          1.03110       -5.96440        1.81020
C          1.66440       -6.65550        0.78270
C          2.21690       -7.85330        1.17130
C          2.15280       -8.32430        2.48820
C          1.54830       -7.64150        3.51740
C          0.97680       -6.42550        3.14030
C          0.21850       -5.46110        3.93160
C         -0.19010       -5.62370        5.23340
C         -1.08800       -4.75570        5.88440
N         -1.86020       -4.12860        6.46020
C          0.15470       -6.71270        6.05430
N          0.38140       -7.57120        6.78410
C          2.88020       -9.60100        2.15230
C          2.03210      -10.88820        2.00390
C          0.64990      -10.45160        1.58400
C          0.72830      -10.01250        0.33470
C          2.16460      -10.13690       -0.10920
C          2.57610      -11.40150        0.66090
C          2.96150       -9.07270        0.68530
C         -1.45480       -2.33960        2.55860
C         -2.16270       -2.59780        1.36640
N         -2.46550       -3.81430        0.82690
C         -2.74030       -3.88190       -0.55920
C         -3.88460       -4.53410       -1.01150
C         -4.18850       -4.53150       -2.35510
C         -3.35830       -3.87900       -3.26570
S         -3.86680       -3.87050       -4.95140
C         -2.91130       -2.49960       -5.66270
C         -2.18370       -3.28460       -2.82050
C         -1.87780       -3.28780       -1.47460
C         -2.49260       -5.00860        1.55450
C         -3.01290       -5.06750        2.84550
C         -2.97920       -6.24340        3.56770
C         -2.41290       -7.38640        3.01340
S         -2.21710       -8.91190        3.86750
C         -2.95610       -8.61740        5.49690
C         -1.94390       -7.34680        1.70070
C         -1.98840       -6.17720        0.97730
C         -2.61340       -1.38170        0.79380
S         -3.45350       -0.96170       -0.65570
C         -3.31100        0.74350       -0.29750
C         -2.67970        0.97010        0.91750
N         -2.36640        2.21660        1.49950
C         -3.21560        2.70190        2.49550
C         -3.21530        4.04970        2.86590
C         -4.06960        4.51640        3.83940
C         -4.96920        3.66110        4.46980
S         -6.01850        4.37800        5.69940
C         -6.85320        2.94740        6.44050
C         -5.00570        2.33090        4.08380
C         -4.14210        1.86220        3.11220
C         -1.18610        2.86020        1.11690
C         -0.44810        3.61350        2.03200
C          0.64020        4.36280        1.63070
C          1.03400        4.36360        0.30000
S          2.33740        5.37450       -0.34620
C          2.69380        6.52680        1.01240
C          0.38950        3.51390       -0.59270
C         -0.69190        2.76230       -0.18700
C         -2.29570       -0.24390        1.52260
S         -1.47940       -0.62170        2.99250
C         -3.53880        1.72310       -1.33240
C         -3.70380        3.10600       -1.06980
N         -4.16450        3.75660        0.00340
N         -4.06080        5.01750       -0.30900
C         -4.55980        6.05560        0.54750
C         -5.79820        6.69720       -0.06880
N         -3.55790        5.29010       -1.47990
C         -3.32650        4.09330       -2.02830
C         -2.82550        3.75950       -3.30580
C         -2.97410        2.42040       -3.62690
C         -3.31710        1.44400       -2.67710
F         -3.25250        0.16750       -3.10700
F         -2.63820        1.97420       -4.84910
C         -2.00840        4.66690       -4.06790
C         -1.67470        4.67970       -5.39050
C         -0.57310        5.52180       -5.67010
C          0.01790        5.67970       -7.00860
O         -0.38620        5.14090       -8.00750
O          1.06210        6.52610       -6.97480
C          1.75620        6.76870       -8.19790
C          2.86090        5.74400       -8.41110
C         -0.06040        6.12200       -4.54160
S         -0.98850        5.74440       -3.14340
C          1.20170        6.83660       -4.42650
C          2.31290        6.16810       -4.06890
C          2.31120        4.72000       -3.70300
O          1.39370        3.93880       -3.82210
C          3.63570        4.45440       -3.12940
C          4.06430        3.26220       -2.54930
C          5.32460        3.32570       -2.00950
C          6.10540        4.49110       -2.03820
C          5.70350        5.66770       -2.62310
C          4.42260        5.62520       -3.18480
C          3.67020        6.66610       -3.87110
C          4.15860        7.85190       -4.33950
C          3.41160        8.76160       -5.12000
N          2.87380        9.52820       -5.78310
C          5.48850        8.29070       -4.15950
N          6.55330        8.70180       -4.04170
C          7.23230        3.84700       -1.26970
C          7.36510        4.19020        0.23540
C          5.98380        4.55760        0.71770
C          5.25160        3.45200        0.73500
C          6.12550        2.31620        0.26360
C          7.48540        2.77190        0.81570
C          6.36720        2.54760       -1.24870
H         -0.65020       -2.84300        4.44370
H          1.68620       -6.26120       -0.22150
H          1.51450       -8.01060        4.52900
H          3.81290       -9.77830        2.68440
H          2.08210      -11.56100        2.85550
H         -0.20200      -10.45240        2.23920
H         -0.04610       -9.58020       -0.27240
H          2.33940      -10.12500       -1.18210
H          3.65130      -11.57570        0.66640
H          2.06050      -12.29430        0.31040
H          3.94880       -8.89170        0.26420
H         -4.53950       -5.02000       -0.30340
H         -5.08360       -5.01530       -2.71390
H         -1.87550       -2.79340       -5.80590
H         -2.99190       -1.63230       -5.01540
H         -3.36730       -2.29030       -6.62520
H         -1.50320       -2.81520       -3.51120
H         -0.96120       -2.84360       -1.11890
H         -3.44070       -4.18440        3.29600
H         -3.38390       -6.24800        4.56690
H         -2.41120       -7.83880        6.02240
H         -4.00680       -8.36540        5.38730
H         -2.85400       -9.55540        6.03360
H         -1.52130       -8.24080        1.27010
H         -1.60960       -6.14840       -0.03290
H         -2.55190        4.74390        2.37470
H         -4.05280        5.55890        4.12140
H         -7.42940        3.34230        7.27140
H         -6.11440        2.23990        6.80490
H         -7.52000        2.48620        5.71740
H         -5.70240        1.63960        4.52970
H         -4.20510        0.82220        2.83500
H         -0.72540        3.60810        3.07480
H          1.17200        4.93920        2.37080
H          3.16540        6.00060        1.83740
H          3.38260        7.25810        0.60070
H          1.77800        7.01760        1.32760
H          0.72550        3.45730       -1.61620
H         -1.15680        2.10530       -0.90250
H         -3.77290        6.80370        0.67120
H         -4.79270        5.59090        1.50630
H         -5.55720        7.11020       -1.04490
H         -6.58910        5.95990       -0.18270
H         -6.15610        7.49500        0.57510
H         -2.16540        4.10210       -6.15210
H          2.16450        7.77680       -8.09600
H          1.03980        6.73310       -9.02500
H          3.40370        5.97640       -9.32260
H          2.43200        4.74850       -8.49900
H          3.55390        5.75590       -7.57230
H          1.21010        7.90100       -4.62060
H          3.42660        2.39260       -2.53300
H          6.31170        6.55740       -2.63610
H          8.19630        3.81250       -1.77310
H          8.15830        4.89550        0.46820
H          5.67740        5.56440        0.93240
H          4.20780        3.34400        0.96430
H          5.79000        1.31480        0.51950
H          8.32740        2.20870        0.41590
H          7.52180        2.76400        1.90410
H          6.76210        1.66440       -1.74670
