174

C          8.81750       -0.01540       -1.28870
C          9.38540        1.21150       -1.32360
C          8.66270        2.49470       -1.10860
O          7.47190        2.69290       -1.22050
C          9.71230        3.50460       -0.89340
C          9.53360        4.83590       -0.52280
C         10.70360        5.54540       -0.40300
C         11.96320        4.97720       -0.64280
C         12.15440        3.67130       -1.02450
C         10.97470        2.92900       -1.14980
C         10.78580        1.53780       -1.54660
C         11.73840        0.71400       -2.08150
C         13.08630        1.07880       -2.28460
N         14.19390        1.31370       -2.47240
C         11.48390       -0.58530       -2.56800
N         11.33430       -1.63480       -3.00960
C         12.69050        6.25980       -0.32480
C         13.36980        6.34240        1.05860
C         13.56880        7.82530        1.27520
C         12.37720        8.36370        1.50060
C         11.35260        7.25390        1.44020
C         12.18570        6.09470        2.00240
C         11.28700        6.89300       -0.05920
C          7.48900       -0.28710       -0.79300
C          6.68120       -1.25390       -1.38320
O          7.12190       -1.88950       -2.51140
C          7.33180       -1.10260       -3.68080
C          8.22830       -1.88670       -4.62250
C          5.39790       -1.59590       -0.85870
O          4.53890       -2.45030       -1.44890
C          4.95130       -3.55090       -2.24690
C          5.91440       -4.48260       -1.52440
C          4.89550       -0.93280        0.26510
C          5.69510        0.06130        0.86790
C          7.00270        0.36720        0.36180
N          7.64380        1.25500        1.11550
S          6.67610        1.69550        2.32440
N          5.41170        0.76820        1.96280
C          3.54570       -1.18840        0.75500
C          2.70370       -0.14990        1.10400
C          1.34500       -0.33430        1.35980
C          0.73920       -1.57730        1.28070
C          1.60470       -2.68760        1.12570
N          1.27220       -3.97500        1.16970
S          2.60430       -4.85480        0.95100
N          3.65290       -3.65280        0.76350
C          3.00700       -2.49340        0.86090
C         -0.68760       -1.75140        1.26460
C         -1.62580       -0.92930        0.64990
N         -1.35370        0.16850       -0.14710
C         -2.30430        1.20080       -0.23100
C         -2.64340        1.73670       -1.47300
C         -3.58270        2.73840       -1.56090
C         -4.20030        3.23140       -0.41270
S         -5.40350        4.50250       -0.64010
C         -5.44110        5.34330        0.97010
C         -3.86440        2.70250        0.82660
C         -2.92300        1.69460        0.91490
C         -0.19020        0.23610       -0.92390
C          0.36040       -0.90280       -1.51490
C          1.57490       -0.83560       -2.15970
C          2.25900        0.37430       -2.24940
S          3.84710        0.36740       -3.01970
C          4.62650        1.84770       -2.31840
C          1.67450        1.52640       -1.74130
C          0.46600        1.45490       -1.07900
C         -2.93190       -1.43240        0.85280
S         -4.50110       -0.85280        0.44020
C         -5.24750       -2.26840        1.19210
C         -4.29170       -3.14330        1.72810
N         -4.56520       -4.31740        2.37250
C         -3.58060       -5.32210        2.39160
C         -3.27270       -5.99460        3.57310
C         -2.26360       -6.93070        3.58900
C         -1.54390       -7.21580        2.42960
S         -0.23250       -8.38510        2.57100
C          0.72010       -8.12020        1.04740
C         -1.88640       -6.58880        1.23930
C         -2.89870       -5.65080        1.22340
C         -5.74940       -4.52590        3.10600
C         -6.26790       -3.52830        3.92470
C         -7.42990       -3.74560        4.63810
C         -8.08210       -4.96970        4.55460
S         -9.56520       -5.36150        5.42380
C        -10.08330       -3.77520        6.13790
C         -7.54540       -5.97920        3.75740
C         -6.39080       -5.76140        3.03920
C         -2.98240       -2.63630        1.53910
S         -1.39770       -3.18230        1.97300
C         -6.63700       -2.44900        1.08410
C         -7.55100       -1.47090        0.80480
C         -8.85850       -1.78860        0.18020
O         -9.36810       -2.88320        0.07760
C         -9.37150       -0.49650       -0.32780
C        -10.48250       -0.27770       -1.13920
C        -10.66270        1.03750       -1.49980
C         -9.79590        2.06320       -1.10030
C         -8.70050        1.86620       -0.29330
C         -8.51510        0.53930        0.09820
C         -7.47740       -0.03910        0.94550
C         -6.79030        0.65290        1.91430
C         -5.93820        0.05060        2.85760
N         -5.26790       -0.39490        3.67850
C         -6.97410        2.01900        2.18080
N         -7.09670        3.12010        2.48890
C        -10.56510        3.11840       -1.85410
C        -11.47450        4.03880       -1.01320
C        -12.43540        4.61950       -2.02490
C        -13.26140        3.65070       -2.39900
C        -12.87280        2.39880       -1.64580
C        -12.39570        3.02160       -0.32750
C        -11.53720        1.97700       -2.29420
H          9.38510       -0.88870       -1.58700
H          8.54610        5.23500       -0.35210
H         13.12780        3.24910       -1.21130
H         13.30410        6.66790       -1.12550
H         14.24490        5.70910        1.17430
H         14.51740        8.32190        1.18990
H         12.13150        9.40000        1.64110
H         10.38980        7.45080        1.90400
H         11.72140        5.11710        1.88610
H         12.45300        6.24900        3.04640
H         10.96350        7.72380       -0.68340
H          7.79470       -0.14320       -3.41970
H          6.35540       -0.89870       -4.14570
H          7.78440       -2.85500       -4.83680
H          8.35000       -1.33780       -5.55180
H          9.20550       -2.04450       -4.17220
H          5.37310       -3.21240       -3.19710
H          4.00810       -4.06920       -2.44870
H          5.53010       -4.70240       -0.53120
H          6.89440       -4.02330       -1.43430
H          6.01360       -5.40700       -2.08650
H          3.09690        0.85410        1.11800
H          0.73890        0.52870        1.58730
H         -2.16460        1.35750       -2.36360
H         -3.85430        3.15080       -2.52040
H         -4.42340        5.53410        1.29630
H         -5.98900        4.74440        1.69370
H         -5.96050        6.28100        0.79860
H         -4.33220        3.06560        1.72780
H         -2.66710        1.28540        1.88160
H         -0.15910       -1.84680       -1.44350
H          2.01870       -1.72120       -2.58680
H          5.69320        1.76100       -2.49530
H          4.44300        1.87390       -1.24890
H          4.24910        2.74240       -2.80480
H          2.16060        2.48360       -1.83910
H          0.03190        2.34990       -0.65790
H         -3.81340       -5.75950        4.47730
H         -2.00570       -7.43910        4.50500
H          0.89100       -7.05590        0.91370
H          1.66450       -8.63450        1.19500
H          0.19880       -8.54960        0.19650
H         -1.37650       -6.82080        0.31900
H         -3.16410       -5.16450        0.29600
H         -5.76090       -2.57840        4.00490
H         -7.80460       -2.95400        5.26620
H         -9.37700       -3.45630        6.89900
H        -10.17980       -3.03330        5.35080
H        -11.05190       -3.96160        6.59130
H         -8.05130       -6.93050        3.70320
H         -5.98240       -6.54250        2.41540
H         -7.01320       -3.46570        1.11100
H        -11.11820       -1.09420       -1.44440
H         -8.02150        2.65440       -0.01060
H        -10.00790        3.65390       -2.62020
H        -10.94480        4.74350       -0.37820
H        -12.38130        5.62670       -2.39490
H        -14.03510        3.68720       -3.14350
H        -13.61990        1.61180       -1.58730
H        -11.87660        2.32640        0.32950
H        -13.20650        3.50210        0.21780
H        -11.63160        1.75360       -3.35550
