
  xtb     02082206153D
 energy: -428.683353874232 gnorm: 0.000380213688 xtb: 6.4.1 (unknown)
258284  0     0  0            999 V2000
   -2.1117    2.2249   -8.5209 C   0  0  0  0  0  0  0  0  0  0  0  0
   -1.3507    3.2073   -9.1150 C   0  0  0  0  0  0  0  0  0  0  0  0
   -0.1135    3.7972   -8.5868 C   0  0  0  0  0  0  0  0  0  0  0  0
    0.6849    3.2891   -7.8169 O   0  0  0  0  0  0  0  0  0  0  0  0
    0.0147    5.1197   -9.2141 C   0  0  0  0  0  0  0  0  0  0  0  0
    0.9154    6.1245   -8.8730 C   0  0  0  0  0  0  0  0  0  0  0  0
    0.7460    7.2857   -9.5871 C   0  0  0  0  0  0  0  0  0  0  0  0
   -0.2321    7.4282  -10.5801 C   0  0  0  0  0  0  0  0  0  0  0  0
   -1.1170    6.4363  -10.9364 C   0  0  0  0  0  0  0  0  0  0  0  0
   -0.9744    5.2522  -10.2082 C   0  0  0  0  0  0  0  0  0  0  0  0
   -1.7426    4.0067  -10.2567 C   0  0  0  0  0  0  0  0  0  0  0  0
   -2.6180    3.6588  -11.2538 C   0  0  0  0  0  0  0  0  0  0  0  0
   -2.9594    4.4940  -12.3369 C   0  0  0  0  0  0  0  0  0  0  0  0
   -3.2911    5.1225  -13.2393 N   0  0  0  0  0  0  0  0  0  0  0  0
   -3.2189    2.3962  -11.4039 C   0  0  0  0  0  0  0  0  0  0  0  0
   -3.7152    1.3889  -11.6481 N   0  0  0  0  0  0  0  0  0  0  0  0
    0.1481    8.8620  -10.8589 C   0  0  0  0  0  0  0  0  0  0  0  0
   -0.7838    9.9440  -10.2735 C   0  0  0  0  0  0  0  0  0  0  0  0
    0.0669   11.1936  -10.2711 C   0  0  0  0  0  0  0  0  0  0  0  0
    0.9851   11.0555   -9.3231 C   0  0  0  0  0  0  0  0  0  0  0  0
    0.7721    9.7090   -8.6707 C   0  0  0  0  0  0  0  0  0  0  0  0
   -0.7540    9.6027   -8.7782 C   0  0  0  0  0  0  0  0  0  0  0  0
    1.2342    8.7027   -9.7468 C   0  0  0  0  0  0  0  0  0  0  0  0
   -1.9581    1.6827   -7.2379 C   0  0  0  0  0  0  0  0  0  0  0  0
   -2.9974    1.0536   -6.5041 C   0  0  0  0  0  0  0  0  0  0  0  0
   -4.2141    0.6757   -7.0298 N   0  0  0  0  0  0  0  0  0  0  0  0
   -5.3909    1.0614   -6.3747 C   0  0  0  0  0  0  0  0  0  0  0  0
   -5.4426    2.2723   -5.6882 C   0  0  0  0  0  0  0  0  0  0  0  0
   -6.6139    2.7050   -5.0996 C   0  0  0  0  0  0  0  0  0  0  0  0
   -7.7687    1.9429   -5.2065 C   0  0  0  0  0  0  0  0  0  0  0  0
   -9.3421    2.4364   -4.5873 S   0  0  0  0  0  0  0  0  0  0  0  0
   -8.9825    3.9291   -3.6185 C   0  0  0  0  0  0  0  0  0  0  0  0
   -7.7155    0.7185   -5.8722 C   0  0  0  0  0  0  0  0  0  0  0  0
   -6.5410    0.2729   -6.4332 C   0  0  0  0  0  0  0  0  0  0  0  0
   -4.2592   -0.0497   -8.2318 C   0  0  0  0  0  0  0  0  0  0  0  0
   -3.2757   -1.0027   -8.4966 C   0  0  0  0  0  0  0  0  0  0  0  0
   -3.2929   -1.7054   -9.6803 C   0  0  0  0  0  0  0  0  0  0  0  0
   -4.2952   -1.4779  -10.6191 C   0  0  0  0  0  0  0  0  0  0  0  0
   -4.2328   -2.3979  -12.1200 S   0  0  0  0  0  0  0  0  0  0  0  0
   -5.0918   -1.2949  -13.2809 C   0  0  0  0  0  0  0  0  0  0  0  0
   -5.2946   -0.5526  -10.3436 C   0  0  0  0  0  0  0  0  0  0  0  0
   -5.2708    0.1622   -9.1646 C   0  0  0  0  0  0  0  0  0  0  0  0
   -2.6793    0.9694   -5.1380 C   0  0  0  0  0  0  0  0  0  0  0  0
   -3.5020    0.4757   -3.6819 S   0  0  0  0  0  0  0  0  0  0  0  0
   -2.1666    1.0606   -2.6936 C   0  0  0  0  0  0  0  0  0  0  0  0
   -1.1324    1.5521   -3.4728 C   0  0  0  0  0  0  0  0  0  0  0  0
    0.0671    2.1376   -2.9983 N   0  0  0  0  0  0  0  0  0  0  0  0
    0.3158    3.4502   -3.4247 C   0  0  0  0  0  0  0  0  0  0  0  0
   -0.7086    4.2488   -3.9392 C   0  0  0  0  0  0  0  0  0  0  0  0
   -0.4392    5.4990   -4.4508 C   0  0  0  0  0  0  0  0  0  0  0  0
    0.8548    6.0055   -4.4333 C   0  0  0  0  0  0  0  0  0  0  0  0
    1.1224    7.5706   -5.2168 S   0  0  0  0  0  0  0  0  0  0  0  0
    2.9276    7.6130   -5.4314 C   0  0  0  0  0  0  0  0  0  0  0  0
    1.8518    5.2757   -3.8034 C   0  0  0  0  0  0  0  0  0  0  0  0
    1.5828    4.0172   -3.3035 C   0  0  0  0  0  0  0  0  0  0  0  0
    1.1526    1.2152   -2.9586 C   0  0  0  0  0  0  0  0  0  0  0  0
    1.2250    0.2723   -1.9388 C   0  0  0  0  0  0  0  0  0  0  0  0
    2.2883   -0.6030   -1.8756 C   0  0  0  0  0  0  0  0  0  0  0  0
    3.2997   -0.5563   -2.8303 C   0  0  0  0  0  0  0  0  0  0  0  0
    4.6543   -1.6710   -2.5973 S   0  0  0  0  0  0  0  0  0  0  0  0
    5.7492   -1.3296   -4.0022 C   0  0  0  0  0  0  0  0  0  0  0  0
    3.2021    0.3429   -3.8825 C   0  0  0  0  0  0  0  0  0  0  0  0
    2.1298    1.2103   -3.9490 C   0  0  0  0  0  0  0  0  0  0  0  0
   -1.4147    1.4601   -4.8441 C   0  0  0  0  0  0  0  0  0  0  0  0
   -0.5504    2.0010   -6.2255 S   0  0  0  0  0  0  0  0  0  0  0  0
   -2.1406    1.0645   -1.2699 C   0  0  0  0  0  0  0  0  0  0  0  0
   -2.6936    0.2094   -0.3229 C   0  0  0  0  0  0  0  0  0  0  0  0
   -3.5042   -0.8926   -0.5557 N   0  0  0  0  0  0  0  0  0  0  0  0
   -3.2605   -2.0040    0.2787 C   0  0  0  0  0  0  0  0  0  0  0  0
   -4.2743   -2.5723    1.0495 C   0  0  0  0  0  0  0  0  0  0  0  0
   -3.9786   -3.5672    1.9534 C   0  0  0  0  0  0  0  0  0  0  0  0
   -2.6689   -4.0180    2.1087 C   0  0  0  0  0  0  0  0  0  0  0  0
   -2.3988   -5.2258    3.3666 S   0  0  0  0  0  0  0  0  0  0  0  0
   -0.5976   -5.4528    3.3797 C   0  0  0  0  0  0  0  0  0  0  0  0
   -1.6670   -3.4966    1.3022 C   0  0  0  0  0  0  0  0  0  0  0  0
   -1.9647   -2.4981    0.3947 C   0  0  0  0  0  0  0  0  0  0  0  0
   -4.7193   -0.8144   -1.2397 C   0  0  0  0  0  0  0  0  0  0  0  0
   -5.4427    0.3752   -1.3278 C   0  0  0  0  0  0  0  0  0  0  0  0
   -6.6809    0.3851   -1.9324 C   0  0  0  0  0  0  0  0  0  0  0  0
   -7.2259   -0.7840   -2.4569 C   0  0  0  0  0  0  0  0  0  0  0  0
   -8.8689   -0.6883   -3.0861 S   0  0  0  0  0  0  0  0  0  0  0  0
   -9.0889   -2.2605   -3.9665 C   0  0  0  0  0  0  0  0  0  0  0  0
   -6.4876   -1.9599   -2.4094 C   0  0  0  0  0  0  0  0  0  0  0  0
   -5.2466   -1.9712   -1.8103 C   0  0  0  0  0  0  0  0  0  0  0  0
   -2.1876    0.5020    0.9691 C   0  0  0  0  0  0  0  0  0  0  0  0
   -2.3625   -0.2298    2.5297 S   0  0  0  0  0  0  0  0  0  0  0  0
   -1.1150    0.8176    3.1848 C   0  0  0  0  0  0  0  0  0  0  0  0
   -0.6931    1.7718    2.2674 C   0  0  0  0  0  0  0  0  0  0  0  0
    0.2500    2.7681    2.4750 N   0  0  0  0  0  0  0  0  0  0  0  0
    0.2071    3.6124    3.5812 C   0  0  0  0  0  0  0  0  0  0  0  0
    1.3422    4.3126    3.9812 C   0  0  0  0  0  0  0  0  0  0  0  0
    1.3184    5.1423    5.0844 C   0  0  0  0  0  0  0  0  0  0  0  0
    0.1528    5.2819    5.8233 C   0  0  0  0  0  0  0  0  0  0  0  0
    0.0060    6.2916    7.2647 S   0  0  0  0  0  0  0  0  0  0  0  0
    1.6596    7.0149    7.4577 C   0  0  0  0  0  0  0  0  0  0  0  0
   -0.9901    4.5914    5.4239 C   0  0  0  0  0  0  0  0  0  0  0  0
   -0.9679    3.7725    4.3184 C   0  0  0  0  0  0  0  0  0  0  0  0
    1.3220    2.7956    1.5562 C   0  0  0  0  0  0  0  0  0  0  0  0
    1.6675    3.9565    0.8697 C   0  0  0  0  0  0  0  0  0  0  0  0
    2.7183    3.9414   -0.0227 C   0  0  0  0  0  0  0  0  0  0  0  0
    3.4436    2.7717   -0.2385 C   0  0  0  0  0  0  0  0  0  0  0  0
    4.7594    2.8238   -1.4170 S   0  0  0  0  0  0  0  0  0  0  0  0
    5.8672    1.5039   -0.8442 C   0  0  0  0  0  0  0  0  0  0  0  0
    3.1006    1.6125    0.4418 C   0  0  0  0  0  0  0  0  0  0  0  0
    2.0424    1.6264    1.3271 C   0  0  0  0  0  0  0  0  0  0  0  0
   -1.3040    1.5671    1.0111 C   0  0  0  0  0  0  0  0  0  0  0  0
   -1.0868    2.2825   -0.5417 S   0  0  0  0  0  0  0  0  0  0  0  0
   -0.4594    0.4362    4.3883 C   0  0  0  0  0  0  0  0  0  0  0  0
    0.8256    0.7424    4.7430 C   0  0  0  0  0  0  0  0  0  0  0  0
    1.3255   -0.0534    5.7955 C   0  0  0  0  0  0  0  0  0  0  0  0
    2.6526   -0.0936    6.2510 C   0  0  0  0  0  0  0  0  0  0  0  0
    3.6520    0.7337    5.5523 C   0  0  0  0  0  0  0  0  0  0  0  0
    4.5822    0.1201    4.7155 C   0  0  0  0  0  0  0  0  0  0  0  0
    5.3752    0.8744    3.8796 C   0  0  0  0  0  0  0  0  0  0  0  0
    5.3039    2.2680    3.8717 C   0  0  0  0  0  0  0  0  0  0  0  0
    6.3310    3.1022    2.7026 S   0  0  0  0  0  0  0  0  0  0  0  0
    5.4868    4.7022    2.3856 C   0  0  0  0  0  0  0  0  0  0  0  0
    6.0733    5.3260    1.1350 C   0  0  0  0  0  0  0  0  0  0  0  0
    4.4483    2.8651    4.7918 C   0  0  0  0  0  0  0  0  0  0  0  0
    4.4006    4.2111    4.9275 F   0  0  0  0  0  0  0  0  0  0  0  0
    3.6051    2.1203    5.5942 C   0  0  0  0  0  0  0  0  0  0  0  0
    2.9488   -1.0324    7.2203 C   0  0  0  0  0  0  0  0  0  0  0  0
    1.9764   -1.9316    7.7449 C   0  0  0  0  0  0  0  0  0  0  0  0
    0.6522   -1.9154    7.2561 C   0  0  0  0  0  0  0  0  0  0  0  0
   -0.3456   -2.8978    7.6932 C   0  0  0  0  0  0  0  0  0  0  0  0
   -1.0610   -3.6274    6.7477 C   0  0  0  0  0  0  0  0  0  0  0  0
   -2.0053   -4.5610    7.1213 C   0  0  0  0  0  0  0  0  0  0  0  0
   -2.2835   -4.7874    8.4642 C   0  0  0  0  0  0  0  0  0  0  0  0
   -3.4621   -5.9425    9.0734 S   0  0  0  0  0  0  0  0  0  0  0  0
   -4.4628   -6.3703    7.6063 C   0  0  0  0  0  0  0  0  0  0  0  0
   -5.3391   -5.2204    7.1479 C   0  0  0  0  0  0  0  0  0  0  0  0
   -1.5551   -4.0539    9.4043 C   0  0  0  0  0  0  0  0  0  0  0  0
   -0.6009   -3.1295    9.0434 C   0  0  0  0  0  0  0  0  0  0  0  0
   -1.8014   -4.2465   10.7148 F   0  0  0  0  0  0  0  0  0  0  0  0
    0.3654   -0.9763    6.2809 C   0  0  0  0  0  0  0  0  0  0  0  0
   -1.1493   -0.7987    5.4240 S   0  0  0  0  0  0  0  0  0  0  0  0
    2.5380   -2.8352    8.6680 C   0  0  0  0  0  0  0  0  0  0  0  0
    3.8813   -2.6502    8.8830 C   0  0  0  0  0  0  0  0  0  0  0  0
    4.5121   -1.3058    7.9239 S   0  0  0  0  0  0  0  0  0  0  0  0
    4.8092   -3.3047    9.7266 C   0  0  0  0  0  0  0  0  0  0  0  0
    4.6984   -4.4383   10.4794 C   0  0  0  0  0  0  0  0  0  0  0  0
    3.5940   -5.4297   10.5110 C   0  0  0  0  0  0  0  0  0  0  0  0
    2.5036   -5.3723    9.9797 O   0  0  0  0  0  0  0  0  0  0  0  0
    4.0919   -6.5634   11.3085 C   0  0  0  0  0  0  0  0  0  0  0  0
    3.4113   -7.7507   11.5705 C   0  0  0  0  0  0  0  0  0  0  0  0
    4.1235   -8.6465   12.3298 C   0  0  0  0  0  0  0  0  0  0  0  0
    5.4191   -8.3811   12.7953 C   0  0  0  0  0  0  0  0  0  0  0  0
    6.0975   -7.2114   12.5504 C   0  0  0  0  0  0  0  0  0  0  0  0
    5.3896   -6.2842   11.7787 C   0  0  0  0  0  0  0  0  0  0  0  0
    5.7685   -4.9494   11.3265 C   0  0  0  0  0  0  0  0  0  0  0  0
    6.9074   -4.2861   11.7014 C   0  0  0  0  0  0  0  0  0  0  0  0
    7.9107   -4.8293   12.5326 C   0  0  0  0  0  0  0  0  0  0  0  0
    8.7734   -5.1974   13.1948 N   0  0  0  0  0  0  0  0  0  0  0  0
    7.2546   -2.9604   11.3611 C   0  0  0  0  0  0  0  0  0  0  0  0
    7.6195   -1.8897   11.1609 N   0  0  0  0  0  0  0  0  0  0  0  0
    5.5361   -9.7231   13.4731 C   0  0  0  0  0  0  0  0  0  0  0  0
    6.3819  -10.8139   12.7705 C   0  0  0  0  0  0  0  0  0  0  0  0
    6.3485  -10.4992   11.2955 C   0  0  0  0  0  0  0  0  0  0  0  0
    5.1225  -10.7494   10.8558 C   0  0  0  0  0  0  0  0  0  0  0  0
    4.3045  -11.2382   12.0256 C   0  0  0  0  0  0  0  0  0  0  0  0
    5.3878  -11.9853   12.8198 C   0  0  0  0  0  0  0  0  0  0  0  0
    4.0928  -10.0179   12.9559 C   0  0  0  0  0  0  0  0  0  0  0  0
   -3.0272    1.9420   -9.0302 H   0  0  0  0  0  0  0  0  0  0  0  0
    1.6504    5.9714   -8.0994 H   0  0  0  0  0  0  0  0  0  0  0  0
   -1.8684    6.5641  -11.6979 H   0  0  0  0  0  0  0  0  0  0  0  0
    0.4706    9.0801  -11.8752 H   0  0  0  0  0  0  0  0  0  0  0  0
   -1.7560   10.0151  -10.7539 H   0  0  0  0  0  0  0  0  0  0  0  0
   -0.0483   11.9989  -10.9729 H   0  0  0  0  0  0  0  0  0  0  0  0
    1.7896   11.7233   -9.0756 H   0  0  0  0  0  0  0  0  0  0  0  0
    1.2075    9.5601   -7.6865 H   0  0  0  0  0  0  0  0  0  0  0  0
   -1.1454    8.6169   -8.5360 H   0  0  0  0  0  0  0  0  0  0  0  0
   -1.2599   10.3530   -8.1732 H   0  0  0  0  0  0  0  0  0  0  0  0
    2.2813    8.8212  -10.0201 H   0  0  0  0  0  0  0  0  0  0  0  0
   -4.5631    2.8977   -5.6374 H   0  0  0  0  0  0  0  0  0  0  0  0
   -6.6157    3.6534   -4.5872 H   0  0  0  0  0  0  0  0  0  0  0  0
   -9.9218    4.2031   -3.1484 H   0  0  0  0  0  0  0  0  0  0  0  0
   -8.2410    3.7063   -2.8570 H   0  0  0  0  0  0  0  0  0  0  0  0
   -8.6502    4.7319   -4.2702 H   0  0  0  0  0  0  0  0  0  0  0  0
   -8.6144    0.1269   -5.9451 H   0  0  0  0  0  0  0  0  0  0  0  0
   -6.5079   -0.6814   -6.9372 H   0  0  0  0  0  0  0  0  0  0  0  0
   -2.4950   -1.1786   -7.7711 H   0  0  0  0  0  0  0  0  0  0  0  0
   -2.5269   -2.4350   -9.8930 H   0  0  0  0  0  0  0  0  0  0  0  0
   -4.7636   -0.2773  -13.0944 H   0  0  0  0  0  0  0  0  0  0  0  0
   -4.7929   -1.6132  -14.2746 H   0  0  0  0  0  0  0  0  0  0  0  0
   -6.1683   -1.3940  -13.1726 H   0  0  0  0  0  0  0  0  0  0  0  0
   -6.0866   -0.3685  -11.0502 H   0  0  0  0  0  0  0  0  0  0  0  0
   -6.0335    0.9020   -8.9707 H   0  0  0  0  0  0  0  0  0  0  0  0
   -1.7245    3.8845   -3.9608 H   0  0  0  0  0  0  0  0  0  0  0  0
   -1.2314    6.0886   -4.8873 H   0  0  0  0  0  0  0  0  0  0  0  0
    3.4170    7.7960   -4.4790 H   0  0  0  0  0  0  0  0  0  0  0  0
    3.2628    6.6772   -5.8682 H   0  0  0  0  0  0  0  0  0  0  0  0
    3.1310    8.4356   -6.1101 H   0  0  0  0  0  0  0  0  0  0  0  0
    2.8528    5.6647   -3.7047 H   0  0  0  0  0  0  0  0  0  0  0  0
    2.3794    3.4648   -2.8316 H   0  0  0  0  0  0  0  0  0  0  0  0
    0.4577    0.2293   -1.1838 H   0  0  0  0  0  0  0  0  0  0  0  0
    2.3520   -1.3271   -1.0768 H   0  0  0  0  0  0  0  0  0  0  0  0
    6.0693   -0.2918   -3.9801 H   0  0  0  0  0  0  0  0  0  0  0  0
    6.6056   -1.9838   -3.8705 H   0  0  0  0  0  0  0  0  0  0  0  0
    5.2421   -1.5680   -4.9325 H   0  0  0  0  0  0  0  0  0  0  0  0
    3.9472    0.3794   -4.6602 H   0  0  0  0  0  0  0  0  0  0  0  0
    2.0531    1.8957   -4.7798 H   0  0  0  0  0  0  0  0  0  0  0  0
   -5.2855   -2.2063    0.9567 H   0  0  0  0  0  0  0  0  0  0  0  0
   -4.7556   -3.9886    2.5723 H   0  0  0  0  0  0  0  0  0  0  0  0
   -0.3875   -6.1060    4.2211 H   0  0  0  0  0  0  0  0  0  0  0  0
   -0.1048   -4.4960    3.5256 H   0  0  0  0  0  0  0  0  0  0  0  0
   -0.2744   -5.9253    2.4565 H   0  0  0  0  0  0  0  0  0  0  0  0
   -0.6505   -3.8486    1.3727 H   0  0  0  0  0  0  0  0  0  0  0  0
   -1.1793   -2.0783   -0.2175 H   0  0  0  0  0  0  0  0  0  0  0  0
   -5.0394    1.2811   -0.8999 H   0  0  0  0  0  0  0  0  0  0  0  0
   -7.2553    1.2969   -1.9812 H   0  0  0  0  0  0  0  0  0  0  0  0
   -9.1339   -3.0866   -3.2627 H   0  0  0  0  0  0  0  0  0  0  0  0
  -10.0383   -2.1721   -4.4856 H   0  0  0  0  0  0  0  0  0  0  0  0
   -8.2836   -2.3934   -4.6829 H   0  0  0  0  0  0  0  0  0  0  0  0
   -6.8740   -2.8768   -2.8235 H   0  0  0  0  0  0  0  0  0  0  0  0
   -4.6804   -2.8895   -1.7638 H   0  0  0  0  0  0  0  0  0  0  0  0
    2.2600    4.2050    3.4242 H   0  0  0  0  0  0  0  0  0  0  0  0
    2.2235    5.6594    5.3565 H   0  0  0  0  0  0  0  0  0  0  0  0
    1.6038    7.6370    8.3456 H   0  0  0  0  0  0  0  0  0  0  0  0
    2.3961    6.2302    7.6037 H   0  0  0  0  0  0  0  0  0  0  0  0
    1.9008    7.6265    6.5932 H   0  0  0  0  0  0  0  0  0  0  0  0
   -1.8996    4.7098    5.9927 H   0  0  0  0  0  0  0  0  0  0  0  0
   -1.8666    3.2558    4.0187 H   0  0  0  0  0  0  0  0  0  0  0  0
    1.1085    4.8638    1.0409 H   0  0  0  0  0  0  0  0  0  0  0  0
    2.9845    4.8364   -0.5633 H   0  0  0  0  0  0  0  0  0  0  0  0
    6.8024    1.6531   -1.3752 H   0  0  0  0  0  0  0  0  0  0  0  0
    6.0279    1.6136    0.2244 H   0  0  0  0  0  0  0  0  0  0  0  0
    5.4567    0.5279   -1.0865 H   0  0  0  0  0  0  0  0  0  0  0  0
    3.6484    0.6976    0.2883 H   0  0  0  0  0  0  0  0  0  0  0  0
    1.7719    0.7223    1.8538 H   0  0  0  0  0  0  0  0  0  0  0  0
    1.4355    1.4578    4.2272 H   0  0  0  0  0  0  0  0  0  0  0  0
    4.6482   -0.9569    4.6919 H   0  0  0  0  0  0  0  0  0  0  0  0
    6.0628    0.3951    3.1999 H   0  0  0  0  0  0  0  0  0  0  0  0
    5.6387    5.3468    3.2495 H   0  0  0  0  0  0  0  0  0  0  0  0
    4.4259    4.4882    2.2563 H   0  0  0  0  0  0  0  0  0  0  0  0
    7.1417    5.4897    1.2562 H   0  0  0  0  0  0  0  0  0  0  0  0
    5.9159    4.6843    0.2717 H   0  0  0  0  0  0  0  0  0  0  0  0
    5.5926    6.2839    0.9489 H   0  0  0  0  0  0  0  0  0  0  0  0
    2.9205    2.6346    6.2512 H   0  0  0  0  0  0  0  0  0  0  0  0
   -0.8639   -3.4805    5.6980 H   0  0  0  0  0  0  0  0  0  0  0  0
   -2.5178   -5.1116    6.3496 H   0  0  0  0  0  0  0  0  0  0  0  0
   -3.7993   -6.7254    6.8190 H   0  0  0  0  0  0  0  0  0  0  0  0
   -5.0706   -7.2067    7.9517 H   0  0  0  0  0  0  0  0  0  0  0  0
   -4.7382   -4.3663    6.8439 H   0  0  0  0  0  0  0  0  0  0  0  0
   -5.9454   -5.5358    6.3011 H   0  0  0  0  0  0  0  0  0  0  0  0
   -5.9998   -4.9076    7.9531 H   0  0  0  0  0  0  0  0  0  0  0  0
   -0.0880   -2.5761    9.8141 H   0  0  0  0  0  0  0  0  0  0  0  0
    1.9806   -3.6181    9.1469 H   0  0  0  0  0  0  0  0  0  0  0  0
    5.7734   -2.8100    9.7479 H   0  0  0  0  0  0  0  0  0  0  0  0
    2.4137   -7.9107   11.1924 H   0  0  0  0  0  0  0  0  0  0  0  0
    7.0934   -7.0257   12.9158 H   0  0  0  0  0  0  0  0  0  0  0  0
    5.6986   -9.7012   14.5487 H   0  0  0  0  0  0  0  0  0  0  0  0
    7.3651  -10.9722   13.2053 H   0  0  0  0  0  0  0  0  0  0  0  0
    7.1781  -10.0852   10.7528 H   0  0  0  0  0  0  0  0  0  0  0  0
    4.7226  -10.5853    9.8722 H   0  0  0  0  0  0  0  0  0  0  0  0
    3.3963  -11.7832   11.7820 H   0  0  0  0  0  0  0  0  0  0  0  0
    5.7542  -12.8706   12.3022 H   0  0  0  0  0  0  0  0  0  0  0  0
    5.0798  -12.2508   13.8301 H   0  0  0  0  0  0  0  0  0  0  0  0
    3.3115  -10.1890   13.6937 H   0  0  0  0  0  0  0  0  0  0  0  0
  1  2  2  0  0  0  0
  2  3  1  0  0  0  0
  3  4  2  0  0  0  0
  3  5  1  0  0  0  0
  5  6  2  0  0  0  0
  6  7  1  0  0  0  0
  7  8  2  0  0  0  0
  8  9  1  0  0  0  0
  9 10  2  0  0  0  0
 10 11  1  0  0  0  0
 11 12  2  0  0  0  0
 12 13  1  0  0  0  0
 13 14  3  0  0  0  0
 12 15  1  0  0  0  0
 15 16  3  0  0  0  0
  8 17  1  0  0  0  0
 17 18  1  0  0  0  0
 18 19  1  0  0  0  0
 19 20  2  0  0  0  0
 20 21  1  0  0  0  0
 21 22  1  0  0  0  0
 21 23  1  0  0  0  0
  1 24  1  0  0  0  0
 24 25  2  0  0  0  0
 25 26  1  0  0  0  0
 26 27  1  0  0  0  0
 27 28  2  0  0  0  0
 28 29  1  0  0  0  0
 29 30  2  0  0  0  0
 30 31  1  0  0  0  0
 31 32  1  0  0  0  0
 30 33  1  0  0  0  0
 33 34  2  0  0  0  0
 26 35  1  0  0  0  0
 35 36  2  0  0  0  0
 36 37  1  0  0  0  0
 37 38  2  0  0  0  0
 38 39  1  0  0  0  0
 39 40  1  0  0  0  0
 38 41  1  0  0  0  0
 41 42  2  0  0  0  0
 25 43  1  0  0  0  0
 43 44  1  0  0  0  0
 44 45  1  0  0  0  0
 45 46  2  0  0  0  0
 46 47  1  0  0  0  0
 47 48  1  0  0  0  0
 48 49  2  0  0  0  0
 49 50  1  0  0  0  0
 50 51  2  0  0  0  0
 51 52  1  0  0  0  0
 52 53  1  0  0  0  0
 51 54  1  0  0  0  0
 54 55  2  0  0  0  0
 47 56  1  0  0  0  0
 56 57  2  0  0  0  0
 57 58  1  0  0  0  0
 58 59  2  0  0  0  0
 59 60  1  0  0  0  0
 60 61  1  0  0  0  0
 59 62  1  0  0  0  0
 62 63  2  0  0  0  0
 46 64  1  0  0  0  0
 64 65  1  0  0  0  0
 45 66  1  0  0  0  0
 66 67  2  0  0  0  0
 67 68  1  0  0  0  0
 68 69  1  0  0  0  0
 69 70  2  0  0  0  0
 70 71  1  0  0  0  0
 71 72  2  0  0  0  0
 72 73  1  0  0  0  0
 73 74  1  0  0  0  0
 72 75  1  0  0  0  0
 75 76  2  0  0  0  0
 68 77  1  0  0  0  0
 77 78  2  0  0  0  0
 78 79  1  0  0  0  0
 79 80  2  0  0  0  0
 80 81  1  0  0  0  0
 81 82  1  0  0  0  0
 80 83  1  0  0  0  0
 83 84  2  0  0  0  0
 67 85  1  0  0  0  0
 85 86  1  0  0  0  0
 86 87  1  0  0  0  0
 87 88  2  0  0  0  0
 88 89  1  0  0  0  0
 89 90  1  0  0  0  0
 90 91  2  0  0  0  0
 91 92  1  0  0  0  0
 92 93  2  0  0  0  0
 93 94  1  0  0  0  0
 94 95  1  0  0  0  0
 93 96  1  0  0  0  0
 96 97  2  0  0  0  0
 89 98  1  0  0  0  0
 98 99  2  0  0  0  0
 99100  1  0  0  0  0
100101  2  0  0  0  0
101102  1  0  0  0  0
102103  1  0  0  0  0
101104  1  0  0  0  0
104105  2  0  0  0  0
 88106  1  0  0  0  0
106107  1  0  0  0  0
 87108  1  0  0  0  0
108109  2  0  0  0  0
109110  1  0  0  0  0
110111  2  0  0  0  0
111112  1  0  0  0  0
112113  2  0  0  0  0
113114  1  0  0  0  0
114115  2  0  0  0  0
115116  1  0  0  0  0
116117  1  0  0  0  0
117118  1  0  0  0  0
115119  1  0  0  0  0
119120  1  0  0  0  0
119121  2  0  0  0  0
111122  1  0  0  0  0
122123  2  0  0  0  0
123124  1  0  0  0  0
124125  1  0  0  0  0
125126  2  0  0  0  0
126127  1  0  0  0  0
127128  2  0  0  0  0
128129  1  0  0  0  0
129130  1  0  0  0  0
130131  1  0  0  0  0
128132  1  0  0  0  0
132133  2  0  0  0  0
132134  1  0  0  0  0
124135  2  0  0  0  0
135136  1  0  0  0  0
123137  1  0  0  0  0
137138  2  0  0  0  0
138139  1  0  0  0  0
138140  1  0  0  0  0
140141  2  0  0  0  0
141142  1  0  0  0  0
142143  2  0  0  0  0
142144  1  0  0  0  0
144145  2  0  0  0  0
145146  1  0  0  0  0
146147  2  0  0  0  0
147148  1  0  0  0  0
148149  2  0  0  0  0
149150  1  0  0  0  0
150151  2  0  0  0  0
151152  1  0  0  0  0
152153  3  0  0  0  0
151154  1  0  0  0  0
154155  3  0  0  0  0
147156  1  0  0  0  0
156157  1  0  0  0  0
157158  1  0  0  0  0
158159  2  0  0  0  0
159160  1  0  0  0  0
160161  1  0  0  0  0
160162  1  0  0  0  0
 11  2  1  0  0  0  0
 23 17  1  0  0  0  0
 65 24  1  0  0  0  0
107 66  1  0  0  0  0
136108  1  0  0  0  0
150141  1  0  0  0  0
162156  1  0  0  0  0
 10  5  1  0  0  0  0
 22 18  1  0  0  0  0
 34 27  1  0  0  0  0
 42 35  1  0  0  0  0
 64 43  2  0  0  0  0
 76 69  1  0  0  0  0
 84 77  1  0  0  0  0
106 85  2  0  0  0  0
135110  1  0  0  0  0
149144  1  0  0  0  0
161157  1  0  0  0  0
 23  7  1  0  0  0  0
 55 48  1  0  0  0  0
 63 56  1  0  0  0  0
 97 90  1  0  0  0  0
105 98  1  0  0  0  0
121112  1  0  0  0  0
139122  1  0  0  0  0
162146  1  0  0  0  0
133125  1  0  0  0  0
  1163  1  0  0  0  0
  6164  1  0  0  0  0
  9165  1  0  0  0  0
 17166  1  0  0  0  0
 18167  1  0  0  0  0
 19168  1  0  0  0  0
 20169  1  0  0  0  0
 21170  1  0  0  0  0
 22171  1  0  0  0  0
 22172  1  0  0  0  0
 23173  1  0  0  0  0
 28174  1  0  0  0  0
 29175  1  0  0  0  0
 32176  1  0  0  0  0
 32177  1  0  0  0  0
 32178  1  0  0  0  0
 33179  1  0  0  0  0
 34180  1  0  0  0  0
 36181  1  0  0  0  0
 37182  1  0  0  0  0
 40183  1  0  0  0  0
 40184  1  0  0  0  0
 40185  1  0  0  0  0
 41186  1  0  0  0  0
 42187  1  0  0  0  0
 49188  1  0  0  0  0
 50189  1  0  0  0  0
 53190  1  0  0  0  0
 53191  1  0  0  0  0
 53192  1  0  0  0  0
 54193  1  0  0  0  0
 55194  1  0  0  0  0
 57195  1  0  0  0  0
 58196  1  0  0  0  0
 61197  1  0  0  0  0
 61198  1  0  0  0  0
 61199  1  0  0  0  0
 62200  1  0  0  0  0
 63201  1  0  0  0  0
 70202  1  0  0  0  0
 71203  1  0  0  0  0
 74204  1  0  0  0  0
 74205  1  0  0  0  0
 74206  1  0  0  0  0
 75207  1  0  0  0  0
 76208  1  0  0  0  0
 78209  1  0  0  0  0
 79210  1  0  0  0  0
 82211  1  0  0  0  0
 82212  1  0  0  0  0
 82213  1  0  0  0  0
 83214  1  0  0  0  0
 84215  1  0  0  0  0
 91216  1  0  0  0  0
 92217  1  0  0  0  0
 95218  1  0  0  0  0
 95219  1  0  0  0  0
 95220  1  0  0  0  0
 96221  1  0  0  0  0
 97222  1  0  0  0  0
 99223  1  0  0  0  0
100224  1  0  0  0  0
103225  1  0  0  0  0
103226  1  0  0  0  0
103227  1  0  0  0  0
104228  1  0  0  0  0
105229  1  0  0  0  0
109230  1  0  0  0  0
113231  1  0  0  0  0
114232  1  0  0  0  0
117233  1  0  0  0  0
117234  1  0  0  0  0
118235  1  0  0  0  0
118236  1  0  0  0  0
118237  1  0  0  0  0
121238  1  0  0  0  0
126239  1  0  0  0  0
127240  1  0  0  0  0
130241  1  0  0  0  0
130242  1  0  0  0  0
131243  1  0  0  0  0
131244  1  0  0  0  0
131245  1  0  0  0  0
133246  1  0  0  0  0
137247  1  0  0  0  0
140248  1  0  0  0  0
145249  1  0  0  0  0
148250  1  0  0  0  0
156251  1  0  0  0  0
157252  1  0  0  0  0
158253  1  0  0  0  0
159254  1  0  0  0  0
160255  1  0  0  0  0
161256  1  0  0  0  0
161257  1  0  0  0  0
162258  1  0  0  0  0
M  END
