173

C          0.49330        5.75680        4.53800
C         -0.41540        4.76190        4.72720
C         -1.86140        5.14290        4.75160
O         -2.29860        6.27090        4.70900
C         -2.61360        3.88330        4.85490
C         -3.99080        3.73020        5.00250
C         -4.39530        2.43060        5.19380
C         -3.49540        1.35620        5.24100
C         -2.13760        1.48970        5.07830
C         -1.70410        2.80510        4.87630
C         -0.34190        3.32790        4.85310
C          0.78440        2.55780        5.05330
C          1.95570        3.04040        5.65850
N          2.87630        3.36360        6.26560
C          0.85050        1.19240        4.72690
N          0.99310        0.11740        4.34430
C         -4.58000        0.35730        5.56850
C         -5.06180       -0.56950        4.43420
C         -6.41150       -1.05740        4.90960
C         -7.25830       -0.03810        4.83620
C         -6.49530        1.15720        4.31310
C         -5.50590        0.45000        3.38050
C         -5.58430        1.55250        5.49520
C          1.91380        5.79030        4.43900
C          2.79420        4.93710        3.86970
C          2.55020        3.83380        2.98700
C          1.62000        3.68210        1.97380
N          0.66700        4.66140        1.61530
C         -0.69530        4.36940        1.68640
C         -1.18360        3.08040        1.89660
C         -2.54260        2.83910        1.89720
C         -3.44020        3.87860        1.72410
S         -5.19490        3.58040        1.71180
C         -5.30570        2.47690        0.26560
C         -2.96720        5.17810        1.59630
C         -1.61210        5.41990        1.57560
C          1.11950        5.57570        0.63240
C          2.28300        6.31330        0.84090
C          2.73260        7.19260       -0.11980
C          2.03600        7.35700       -1.31460
S          2.70540        8.51740       -2.46360
C          1.51660        8.51110       -3.83570
C          0.88810        6.60890       -1.53620
C          0.44300        5.72220       -0.57520
C          1.84340        2.49280        1.24590
S          1.04850        1.72380       -0.08580
C          2.14680        0.35850        0.02050
C          3.05800        0.48570        1.06470
N          3.92490       -0.50750        1.47610
C          3.46780       -1.83370        1.54840
C          2.14530       -2.10210        1.89080
C          1.68410       -3.40050        1.93130
C          2.53990       -4.45170        1.63250
S          2.01710       -6.13990        1.70000
C          0.26900       -6.01780        1.21290
C          3.86760       -4.19150        1.31250
C          4.32870       -2.89290        1.26780
C          5.16620       -0.13990        2.00780
C          5.88600        0.90620        1.42720
C          7.09700        1.29250        1.95520
C          7.62290        0.64030        3.06860
S          9.18360        1.22070        3.65230
C          9.45020        0.29060        5.18820
C          6.91660       -0.41030        3.63980
C          5.69760       -0.79260        3.11630
C          2.89920        1.72620        1.72370
S          3.70430        2.50720        3.03230
C          2.03760       -0.68850       -0.93270
C          3.05390       -1.49990       -1.40890
C          2.63470       -2.37200       -2.40400
C          3.55870       -3.25730       -3.12290
C          4.65260       -2.67920       -3.78670
O          4.75790       -1.32450       -3.66790
C          5.67350       -0.61620       -4.47880
C          5.22100       -0.52170       -5.93260
C          5.52390       -3.48650       -4.50660
C          5.30060       -4.84950       -4.56200
C          4.24040       -5.43540       -3.90030
C          3.36350       -4.64590       -3.16410
O          2.30430       -5.11160       -2.45000
C          1.96390       -6.48550       -2.53140
C          2.82970       -7.37790       -1.64820
C          1.26590       -2.24270       -2.71070
S          0.52390       -1.02350       -1.70290
C          0.64770       -2.93740       -3.75460
C         -0.64820       -2.89360       -4.21160
C         -1.73090       -2.06710       -3.67100
O         -1.69900       -1.33880       -2.69280
C         -2.89630       -2.28170       -4.54810
C         -4.14640       -1.67760       -4.44460
C         -5.03500       -2.06080       -5.42050
C         -4.70110       -2.97430       -6.42820
C         -3.47050       -3.57720       -6.54080
C         -2.55350       -3.20630       -5.55390
C         -1.16910       -3.63160       -5.34170
C         -0.52050       -4.58960       -6.08130
C          0.78490       -5.07200       -5.86310
N          1.82320       -5.55750       -5.76950
C         -1.08890       -5.27760       -7.17310
N         -1.47650       -5.88130       -8.07040
C         -6.06760       -2.89740       -7.06200
C         -7.04820       -4.06840       -6.80680
C         -6.65130       -4.67930       -5.48580
C         -6.96820       -3.81670       -4.52950
C         -7.58500       -2.60680       -5.18670
C         -8.29270       -3.27590       -6.37580
C         -6.44080       -1.88100       -5.93710
H          0.02990        6.74240        4.55400
H         -4.64780        4.58510        4.98830
H         -1.45390        0.65730        5.13040
H         -4.46060       -0.15940        6.51940
H         -4.34620       -1.32920        4.13040
H         -6.59230       -2.04580        5.29030
H         -8.28700       -0.00670        5.14420
H         -7.07590        1.97400        3.89450
H         -4.70690        1.09830        3.03380
H         -6.00130       -0.01740        2.53110
H         -6.14590        1.81660        6.38950
H          2.34570        6.67060        4.90310
H          3.84620        5.11040        4.06420
H         -0.51340        2.25180        2.05670
H         -2.89250        1.82680        2.03280
H         -6.34140        2.16190        0.19830
H         -4.65970        1.61600        0.40080
H         -5.02230        3.02860       -0.62570
H         -3.66720        5.99450        1.51440
H         -1.24600        6.42940        1.46790
H          2.83390        6.20180        1.76090
H          3.63080        7.76710        0.04710
H          1.49230        7.53150       -4.30410
H          1.88430        9.24790       -4.54300
H          0.53450        8.80310       -3.47590
H          0.33470        6.69270       -2.45740
H         -0.44010        5.13190       -0.76950
H          1.48250       -1.29320        2.15640
H          0.66050       -3.58460        2.21580
H         -0.03080       -7.01790        0.91540
H          0.18420       -5.33360        0.37430
H         -0.33760       -5.68900        2.05180
H          4.53000       -5.01390        1.09080
H          5.35800       -2.69250        1.00900
H          5.48970        1.40860        0.55690
H          7.65380        2.10210        1.50910
H          9.56890       -0.76690        4.97060
H         10.36950        0.68370        5.61110
H          8.62440        0.46530        5.87140
H          7.29760       -0.93540        4.50050
H          5.14500       -1.59780        3.57640
H          4.07500       -1.42900       -1.08460
H          6.67740       -1.05280       -4.40890
H          5.70390        0.38240       -4.03350
H          5.92970        0.07560       -6.49960
H          4.24170       -0.05200       -5.98280
H          5.15070       -1.50940       -6.38150
H          6.37010       -3.07040       -5.02810
H          5.97220       -5.47050       -5.13510
H          4.09730       -6.49820       -3.98390
H          0.92600       -6.52330       -2.18540
H          1.98960       -6.81590       -3.57620
H          3.87210       -7.34310       -1.95200
H          2.76590       -7.05370       -0.61320
H          2.47730       -8.40350       -1.71840
H          1.32610       -3.58920       -4.29060
H         -4.35760       -0.97380       -3.65450
H         -3.23160       -4.27420       -7.32630
H         -6.09610       -2.54970       -8.09280
H         -7.15590       -4.75680       -7.64060
H         -6.14350       -5.62120       -5.39060
H         -6.77780       -3.89360       -3.47490
H         -8.18310       -1.96450       -4.54520
H         -8.63880       -2.56880       -7.12850
H         -9.11620       -3.91880       -6.06870
H         -6.71550       -0.87050       -6.23410
