235

C         -4.30820       -5.51110       -6.63600
C         -5.55030       -6.09680       -6.54720
C         -6.56210       -5.88800       -5.50160
O         -6.70100       -4.93270       -4.75810
C         -7.40790       -7.10020       -5.51160
C         -8.42650       -7.42780       -4.61930
C         -9.03050       -8.63530       -4.87710
C         -8.65540       -9.45980       -5.94510
C         -7.65730       -9.14670       -6.83800
C         -7.02770       -7.92480       -6.58890
C         -5.95020       -7.25610       -7.31170
C         -5.49060       -7.59540       -8.56000
C         -5.86850       -8.75590       -9.26290
N         -6.11640       -9.69660       -9.87360
C         -4.69340       -6.75220       -9.35280
N         -4.13230       -6.07770      -10.09560
C         -9.66940      -10.51850       -5.58900
C         -9.13080      -11.77630       -4.87490
C        -10.35870      -12.38330       -4.23550
C        -10.71540      -11.60170       -3.22440
C         -9.73450      -10.45310       -3.16340
C         -8.46180      -11.16810       -3.63540
C        -10.08900       -9.59780       -4.39830
C         -3.77370       -4.44360       -5.90420
C         -2.39650       -4.20280       -5.69140
N         -1.34970       -4.95860       -6.16530
C         -1.28800       -5.40860       -7.49410
C         -0.71830       -6.65080       -7.77570
C         -0.62310       -7.08690       -9.07790
C         -1.08970       -6.29300      -10.12450
S         -0.92060       -6.93840      -11.75220
C         -2.11880       -5.96300      -12.70530
C         -1.64030       -5.04640       -9.84640
C         -1.74150       -4.61120       -8.54130
C         -0.20030       -5.08610       -5.36620
C         -0.32130       -5.38220       -4.00770
C          0.80120       -5.48460       -3.21850
C          2.07030       -5.29940       -3.76560
S          3.43160       -5.43920       -2.65260
C          4.87240       -4.99070       -3.66230
C          2.19510       -5.02570       -5.12090
C          1.06830       -4.91940       -5.91210
C         -2.20430       -3.10860       -4.82970
S         -0.79200       -2.32840       -4.20020
C         -1.79860       -1.18280       -3.33190
C         -3.15090       -1.30010       -3.66190
N         -4.13660       -0.38350       -3.37760
C         -3.82840        0.96190       -3.15170
C         -2.79570        1.58880       -3.85060
C         -2.36130        2.83900       -3.47320
C         -2.94920        3.49340       -2.39180
S         -2.19780        4.99500       -1.84570
C         -2.82810        5.16750       -0.15230
C         -4.06900        2.93510       -1.78890
C         -4.50790        1.68270       -2.17010
C         -5.46710       -0.81860       -3.26890
C         -5.76920       -1.99940       -2.59740
C         -7.06760       -2.46380       -2.55170
C         -8.08000       -1.75060       -3.17910
S         -9.75210       -2.31300       -3.21750
C         -9.52920       -4.11590       -3.15610
C         -7.79050       -0.53890       -3.80060
C         -6.49450       -0.07590       -3.84840
C         -3.37190       -2.44830       -4.46960
S         -4.77360       -3.24680       -5.07750
C         -1.17040       -0.31770       -2.38200
C         -1.84420        0.17580       -1.23690
C         -1.19650        1.06820       -0.31380
N         -2.04310        1.30810        0.66640
O         -3.14020        0.59560        0.39080
N         -3.03730       -0.09150       -0.74750
C          0.14860        1.47240       -0.48010
C          0.80100        0.96610       -1.60040
O          2.07900        1.32720       -1.93650
C          2.36260        2.71100       -2.12190
C          1.38160        3.39520       -3.06240
C          0.17790        0.03420       -2.48410
O          0.84230       -0.49150       -3.55020
C          2.14480       -1.04670       -3.38270
C          2.24400       -1.97200       -2.17980
C          0.79040        2.24600        0.54990
C          2.08930        2.13190        0.95610
C          2.41380        2.94820        2.06320
C          3.63750        3.01040        2.75600
C          4.80180        2.29720        2.27400
C          5.21420        2.15390        0.97630
C          6.39210        1.39090        0.87390
Cl         7.10930        1.05980       -0.65260
C          6.90060        0.94060        2.05950
Si         8.41050       -0.12810        2.45660
C          9.91710        0.45750        1.43000
C         10.97250       -0.62600        1.22620
C          8.69540        0.12680        4.32890
C          9.93720       -0.56960        4.87330
C          7.94290       -1.95660        2.11810
C          7.36730       -2.20820        0.72730
S          5.89080        1.48240        3.35280
C          3.66660        3.79070        3.90750
C          2.54850        4.54850        4.34710
C          1.32480        4.50430        3.63590
C          0.15950        5.22880        4.09490
S         -0.87930        6.07040        2.98450
C         -1.93910        6.60180        4.24360
Si        -3.49600        7.57740        3.78730
C         -3.03630        8.63770        2.26400
C         -1.96420        9.68150        2.56130
C         -4.08670        8.67670        5.23190
C         -5.22300        9.61030        4.82470
C         -4.80500        6.26900        3.29350
C         -5.15930        5.32010        4.43460
C         -1.48840        6.12130        5.44080
C         -0.30590        5.35810        5.37450
Cl        -2.28970        6.40770        6.93170
C          1.29430        3.69990        2.50610
S         -0.11040        3.38460        1.52010
C          2.86470        5.29930        5.49030
C          4.15110        5.10380        5.95780
S          5.04450        3.98630        4.94870
C          4.61910        5.73820        7.12980
C          5.79680        5.59400        7.80410
C          6.90560        4.68870        7.44670
O          7.02370        4.01810        6.43930
C          7.86470        4.75540        8.56080
C          9.04270        4.02340        8.69170
C          9.73110        4.27620        9.85320
C          9.28400        5.19590       10.81210
C          8.12820        5.92980       10.69100
C          7.40780        5.68390        9.51800
C          6.14600        6.25380        9.05200
C          5.44690        7.25030        9.68170
C          5.84060        7.86200       10.89100
N          6.08730        8.40430       11.87250
C          4.24900        7.83860        9.22310
N          3.28190        8.38280        8.92570
C         10.45400        4.93230       11.72630
C         10.20970        4.04330       12.97090
C          9.05100        3.13900       12.63110
C          9.47050        2.26700       11.72410
C         10.92100        2.56540       11.43470
C         11.37750        3.05560       12.81810
C         10.95050        3.90630       10.65940
H         -3.60320       -6.00170       -7.30060
H         -8.69270       -6.77120       -3.80620
H         -7.37420       -9.78790       -7.65630
H        -10.40670      -10.74720       -6.35600
H         -8.52920      -12.43140       -5.49900
H        -10.85750      -13.25920       -4.60660
H        -11.57160      -11.69410       -2.58220
H         -9.68270       -9.90330       -2.22730
H         -7.63420      -10.49830       -3.86150
H         -8.13200      -11.92950       -2.93050
H        -11.10660       -9.21250       -4.37200
H         -0.36220       -7.26870       -6.96460
H         -0.19460       -8.05180       -9.30100
H         -1.72000       -4.97400      -12.91310
H         -3.04690       -5.91190      -12.14470
H         -2.26770       -6.50230      -13.63550
H         -1.98500       -4.40490      -10.63920
H         -2.17070       -3.64380       -8.32620
H         -1.30160       -5.52800       -3.57900
H          0.71140       -5.71210       -2.16720
H          4.74330       -3.99160       -4.06840
H          5.02030       -5.72290       -4.45060
H          5.71970       -5.00640       -2.98380
H          3.16240       -4.88500       -5.57490
H          1.17160       -4.69430       -6.96300
H         -2.31190        1.07760       -4.66890
H         -1.54810        3.31450       -3.99880
H         -2.18400        5.89520        0.33140
H         -2.74870        4.21410        0.36160
H         -3.85200        5.53060       -0.16770
H         -4.58810        3.45110       -0.99770
H         -5.34640        1.23170       -1.66270
H         -4.98040       -2.54370       -2.10080
H         -7.27970       -3.38050       -2.02690
H         -9.42750       -4.44800       -2.12590
H         -8.65130       -4.36900       -3.74410
H        -10.42360       -4.54770       -3.59540
H         -8.58900        0.01950       -4.26440
H         -6.26410        0.85040       -4.35360
H          3.36880        2.70500       -2.54990
H          2.38910        3.23950       -1.16200
H          1.27390        2.81800       -3.97860
H          1.74860        4.38710       -3.30930
H          0.40660        3.49630       -2.59060
H          2.29440       -1.60800       -4.30950
H          2.89200       -0.25130       -3.31350
H          1.47860       -2.74320       -2.23530
H          3.22040       -2.44660       -2.16340
H          2.11820       -1.41310       -1.25540
H          2.77340        1.42890        0.51700
H          4.72960        2.60680        0.13090
H         10.37940        1.31150        1.92850
H          9.59530        0.81290        0.45200
H         11.33350       -1.00430        2.17890
H         11.82330       -0.23230        0.67250
H         10.56190       -1.46100        0.66470
H          7.82130       -0.23280        4.87370
H          8.76400        1.19410        4.54410
H          9.89670       -1.63850        4.67770
H         10.83540       -0.17050        4.40900
H         10.02120       -0.42510        5.94910
H          8.82440       -2.58420        2.25420
H          7.21370       -2.28480        2.86160
H          8.07200       -1.90830       -0.04410
H          6.45080       -1.64110        0.58580
H          7.13830       -3.26390        0.59000
H         -2.68040        7.99070        1.46150
H         -3.92520        9.13980        1.88160
H         -1.05450        9.20280        2.91560
H         -1.72180       10.25180        1.66650
H         -2.30230       10.37630        3.32560
H         -4.42730        8.05620        6.06010
H         -3.25680        9.27140        5.61600
H         -6.07860        9.04120        4.46970
H         -4.90830       10.28110        4.02960
H         -5.54500       10.21450        5.67090
H         -4.42930        5.68160        2.45390
H         -5.71320        6.76240        2.94620
H         -5.58350        5.86660        5.27270
H         -4.27280        4.79710        4.78460
H         -5.88600        4.57800        4.10960
H          0.14160        4.88850        6.23110
H          2.18230        5.98060        5.96590
H          3.88860        6.41460        7.55750
H          9.34840        3.32650        7.92700
H          7.80010        6.63130       11.43950
H         11.08920        5.78800       11.94570
H         10.13410        4.58920       13.90740
H          8.06090        3.25870       13.03050
H          8.90060        1.51290       11.21350
H         11.49290        1.76460       10.97330
H         12.35450        3.53680       12.80750
H         11.36350        2.26780       13.56970
H         11.91220        4.08920       10.18410
