
  xtb     02052201373D
 energy: -321.145367605951 gnorm: 0.001474747956 xtb: 6.4.1 (unknown)
196218  0     0  0            999 V2000
    7.8779   -7.6407    4.4707 C   0  0  0  0  0  0  0  0  0  0  0  0
    7.7786   -8.8931    3.9404 C   0  0  0  0  0  0  0  0  0  0  0  0
    6.8664   -9.2719    2.8313 C   0  0  0  0  0  0  0  0  0  0  0  0
    6.0638   -8.5716    2.2502 O   0  0  0  0  0  0  0  0  0  0  0  0
    7.2417  -10.6501    2.4616 C   0  0  0  0  0  0  0  0  0  0  0  0
    6.6600  -11.4312    1.4659 C   0  0  0  0  0  0  0  0  0  0  0  0
    7.2294  -12.6733    1.3237 C   0  0  0  0  0  0  0  0  0  0  0  0
    8.3071  -13.1064    2.1079 C   0  0  0  0  0  0  0  0  0  0  0  0
    8.8927  -12.3450    3.0911 C   0  0  0  0  0  0  0  0  0  0  0  0
    8.3248  -11.0777    3.2552 C   0  0  0  0  0  0  0  0  0  0  0  0
    8.6685  -10.0086    4.1886 C   0  0  0  0  0  0  0  0  0  0  0  0
    9.6140  -10.0795    5.1791 C   0  0  0  0  0  0  0  0  0  0  0  0
   10.4637  -11.1832    5.3964 C   0  0  0  0  0  0  0  0  0  0  0  0
   11.1951  -12.0385    5.6261 N   0  0  0  0  0  0  0  0  0  0  0  0
    9.8575   -9.0731    6.1375 C   0  0  0  0  0  0  0  0  0  0  0  0
   10.1078   -8.3251    6.9721 N   0  0  0  0  0  0  0  0  0  0  0  0
    8.3793  -14.4427    1.4116 C   0  0  0  0  0  0  0  0  0  0  0  0
    9.4998  -14.6514    0.3627 C   0  0  0  0  0  0  0  0  0  0  0  0
    9.8406  -13.2857   -0.1796 C   0  0  0  0  0  0  0  0  0  0  0  0
    8.8184  -12.8769   -0.9195 C   0  0  0  0  0  0  0  0  0  0  0  0
    7.7677  -13.9593   -0.8910 C   0  0  0  0  0  0  0  0  0  0  0  0
    8.6645  -15.2045   -0.8033 C   0  0  0  0  0  0  0  0  0  0  0  0
    7.1765  -13.9612    0.5404 C   0  0  0  0  0  0  0  0  0  0  0  0
    6.8953   -6.6205    4.3566 C   0  0  0  0  0  0  0  0  0  0  0  0
    7.2684   -5.2605    4.2971 C   0  0  0  0  0  0  0  0  0  0  0  0
    6.3197   -4.1864    4.0785 C   0  0  0  0  0  0  0  0  0  0  0  0
    6.9315   -3.0009    4.0094 N   0  0  0  0  0  0  0  0  0  0  0  0
    8.5114   -3.2120    4.1976 S   0  0  0  0  0  4  0  0  0  0  0  0
    8.5210   -4.8046    4.3646 N   0  0  0  0  0  0  0  0  0  0  0  0
    4.9343   -4.4292    3.9500 C   0  0  0  0  0  0  0  0  0  0  0  0
    4.5568   -5.7751    4.1337 C   0  0  0  0  0  0  0  0  0  0  0  0
    3.2975   -6.2185    4.1500 N   0  0  0  0  0  0  0  0  0  0  0  0
    3.3051   -7.7965    4.4237 S   0  0  0  0  0  0  0  0  0  0  0  0
    4.8858   -8.0128    4.5390 N   0  0  0  0  0  0  0  0  0  0  0  0
    5.5048   -6.8477    4.3372 C   0  0  0  0  0  0  0  0  0  0  0  0
    3.9735   -3.4312    3.6396 C   0  0  0  0  0  0  0  0  0  0  0  0
    4.1990   -2.1027    3.3599 C   0  0  0  0  0  0  0  0  0  0  0  0
    3.0292   -1.3929    3.0340 C   0  0  0  0  0  0  0  0  0  0  0  0
    2.9158   -0.0426    2.6303 C   0  0  0  0  0  0  0  0  0  0  0  0
    4.0368    0.8677    2.6588 C   0  0  0  0  0  0  0  0  0  0  0  0
    5.0117    0.9996    3.6142 C   0  0  0  0  0  0  0  0  0  0  0  0
    5.8764    2.0796    3.3702 C   0  0  0  0  0  0  0  0  0  0  0  0
    5.5970    2.7724    2.2257 C   0  0  0  0  0  0  0  0  0  0  0  0
    6.3081    4.3621    1.4975 Si  0  0  0  0  0  4  0  0  0  0  0  0
    7.4056    3.8950    0.0003 C   0  0  0  0  0  0  0  0  0  0  0  0
    7.9645    5.1071   -0.7377 C   0  0  0  0  0  0  0  0  0  0  0  0
    7.2805    5.3017    2.8492 C   0  0  0  0  0  0  0  0  0  0  0  0
    8.6805    4.7497    3.0993 C   0  0  0  0  0  0  0  0  0  0  0  0
    4.8053    5.3790    0.8873 C   0  0  0  0  0  0  0  0  0  0  0  0
    3.7759    5.6785    1.9717 C   0  0  0  0  0  0  0  0  0  0  0  0
    4.2322    2.0753    1.4251 S   0  0  0  0  0  0  0  0  0  0  0  0
    1.6542    0.3712    2.2213 C   0  0  0  0  0  0  0  0  0  0  0  0
    0.5053   -0.4596    2.2402 C   0  0  0  0  0  0  0  0  0  0  0  0
    0.6155   -1.7966    2.6762 C   0  0  0  0  0  0  0  0  0  0  0  0
   -0.5147   -2.7011    2.6900 C   0  0  0  0  0  0  0  0  0  0  0  0
   -1.4872   -2.8826    1.7426 C   0  0  0  0  0  0  0  0  0  0  0  0
   -2.3821   -3.9159    2.0667 C   0  0  0  0  0  0  0  0  0  0  0  0
   -2.1210   -4.5257    3.2621 C   0  0  0  0  0  0  0  0  0  0  0  0
   -2.9560   -6.0032    4.0847 Si  0  0  0  0  0  4  0  0  0  0  0  0
   -1.7648   -7.5034    4.0091 C   0  0  0  0  0  0  0  0  0  0  0  0
   -0.3863   -7.2500    4.6108 C   0  0  0  0  0  0  0  0  0  0  0  0
   -4.5268   -6.4352    3.0832 C   0  0  0  0  0  0  0  0  0  0  0  0
   -5.6564   -5.4223    3.2292 C   0  0  0  0  0  0  0  0  0  0  0  0
   -3.3582   -5.5800    5.9107 C   0  0  0  0  0  0  0  0  0  0  0  0
   -3.7328   -4.1198    6.1528 C   0  0  0  0  0  0  0  0  0  0  0  0
   -0.7332   -3.8101    4.0076 S   0  0  0  0  0  0  0  0  0  0  0  0
    1.8797   -2.2249    3.0621 C   0  0  0  0  0  0  0  0  0  0  0  0
    2.2842   -3.8553    3.5318 S   0  0  0  0  0  0  0  0  0  0  0  0
   -0.6529    0.2296    1.8087 C   0  0  0  0  0  0  0  0  0  0  0  0
   -0.4135    1.5269    1.4546 C   0  0  0  0  0  0  0  0  0  0  0  0
    1.2641    1.9751    1.6656 S   0  0  0  0  0  0  0  0  0  0  0  0
   -1.2989    2.4863    0.8895 C   0  0  0  0  0  0  0  0  0  0  0  0
   -0.9781    3.7695    0.5496 C   0  0  0  0  0  0  0  0  0  0  0  0
   -2.0226    4.4708   -0.0920 C   0  0  0  0  0  0  0  0  0  0  0  0
   -1.9860    5.7830   -0.6107 C   0  0  0  0  0  0  0  0  0  0  0  0
   -0.7875    6.5947   -0.5970 C   0  0  0  0  0  0  0  0  0  0  0  0
   -0.7131    7.9461   -0.3972 C   0  0  0  0  0  0  0  0  0  0  0  0
    0.5606    8.5270   -0.5479 C   0  0  0  0  0  0  0  0  0  0  0  0
    1.5549    7.6608   -0.8992 C   0  0  0  0  0  0  0  0  0  0  0  0
    3.2341    8.1121   -1.0745 S   0  0  0  0  0  0  0  0  0  0  0  0
    3.7707    6.9242   -2.3570 C   0  0  0  0  0  0  0  0  0  0  0  0
    3.1469    7.2272   -3.7033 C   0  0  0  0  0  0  0  0  0  0  0  0
    0.9158    5.8913   -1.0122 Se  0  0  0  0  0  2  0  0  0  0  0  0
   -3.1717    6.2463   -1.1749 C   0  0  0  0  0  0  0  0  0  0  0  0
   -4.3535    5.4628   -1.2653 C   0  0  0  0  0  0  0  0  0  0  0  0
   -4.3704    4.1280   -0.7892 C   0  0  0  0  0  0  0  0  0  0  0  0
   -5.5331    3.2874   -0.9498 C   0  0  0  0  0  0  0  0  0  0  0  0
   -6.3955    3.2569   -2.0147 C   0  0  0  0  0  0  0  0  0  0  0  0
   -7.4739    2.3586   -1.9143 C   0  0  0  0  0  0  0  0  0  0  0  0
   -7.5197    1.6457   -0.7506 C   0  0  0  0  0  0  0  0  0  0  0  0
   -8.6797    0.4431   -0.2368 S   0  0  0  0  0  0  0  0  0  0  0  0
  -10.1563    0.8672   -1.2302 C   0  0  0  0  0  0  0  0  0  0  0  0
  -10.7291    2.2208   -0.8603 C   0  0  0  0  0  0  0  0  0  0  0  0
   -6.0860    2.0592    0.3860 Se  0  0  0  0  0  2  0  0  0  0  0  0
   -3.1958    3.6829   -0.1938 C   0  0  0  0  0  0  0  0  0  0  0  0
   -2.9454    2.0832    0.4578 S   0  0  0  0  0  0  0  0  0  0  0  0
   -5.4123    6.1679   -1.8691 C   0  0  0  0  0  0  0  0  0  0  0  0
   -5.0715    7.4241   -2.3048 C   0  0  0  0  0  0  0  0  0  0  0  0
   -3.4032    7.8109   -1.8965 S   0  0  0  0  0  0  0  0  0  0  0  0
   -5.8340    8.4241   -2.9505 C   0  0  0  0  0  0  0  0  0  0  0  0
   -6.9871    8.2978   -3.6716 C   0  0  0  0  0  0  0  0  0  0  0  0
   -7.5871    7.0488   -4.1992 C   0  0  0  0  0  0  0  0  0  0  0  0
   -7.3076    5.8981   -3.9282 O   0  0  0  0  0  0  0  0  0  0  0  0
   -8.5864    7.4748   -5.1955 C   0  0  0  0  0  0  0  0  0  0  0  0
   -9.3576    6.6429   -6.0046 C   0  0  0  0  0  0  0  0  0  0  0  0
  -10.2045    7.3145   -6.8522 C   0  0  0  0  0  0  0  0  0  0  0  0
  -10.2794    8.7136   -6.8945 C   0  0  0  0  0  0  0  0  0  0  0  0
   -9.5274    9.5455   -6.0997 C   0  0  0  0  0  0  0  0  0  0  0  0
   -8.6586    8.8812   -5.2287 C   0  0  0  0  0  0  0  0  0  0  0  0
   -7.7192    9.4141   -4.2474 C   0  0  0  0  0  0  0  0  0  0  0  0
   -7.6145   10.7284   -3.8751 C   0  0  0  0  0  0  0  0  0  0  0  0
   -8.3659   11.7791   -4.4421 C   0  0  0  0  0  0  0  0  0  0  0  0
   -8.9382   12.6817   -4.8612 N   0  0  0  0  0  0  0  0  0  0  0  0
   -6.7832   11.2204   -2.8455 C   0  0  0  0  0  0  0  0  0  0  0  0
   -6.1595   11.7013   -2.0097 N   0  0  0  0  0  0  0  0  0  0  0  0
  -11.3241    8.7038   -7.9821 C   0  0  0  0  0  0  0  0  0  0  0  0
  -10.8671    9.0279   -9.4260 C   0  0  0  0  0  0  0  0  0  0  0  0
   -9.4112    8.6424   -9.5123 C   0  0  0  0  0  0  0  0  0  0  0  0
   -9.3397    7.3187   -9.4716 C   0  0  0  0  0  0  0  0  0  0  0  0
  -10.7464    6.7849   -9.3573 C   0  0  0  0  0  0  0  0  0  0  0  0
  -11.5050    7.8448  -10.1718 C   0  0  0  0  0  0  0  0  0  0  0  0
  -11.2411    7.1455   -7.9344 C   0  0  0  0  0  0  0  0  0  0  0  0
    8.7855   -7.3440    4.9819 H   0  0  0  0  0  0  0  0  0  0  0  0
    5.8335  -11.0573    0.8818 H   0  0  0  0  0  0  0  0  0  0  0  0
    9.7238  -12.6896    3.6837 H   0  0  0  0  0  0  0  0  0  0  0  0
    8.2347  -15.3179    2.0421 H   0  0  0  0  0  0  0  0  0  0  0  0
   10.3361  -15.2525    0.7093 H   0  0  0  0  0  0  0  0  0  0  0  0
   10.7372  -12.7492    0.0700 H   0  0  0  0  0  0  0  0  0  0  0  0
    8.6903  -11.9304   -1.4112 H   0  0  0  0  0  0  0  0  0  0  0  0
    7.0269  -13.9306   -1.6860 H   0  0  0  0  0  0  0  0  0  0  0  0
    8.1202  -16.1144   -0.5539 H   0  0  0  0  0  0  0  0  0  0  0  0
    9.2537  -15.3638   -1.7053 H   0  0  0  0  0  0  0  0  0  0  0  0
    6.2455  -14.5215    0.6044 H   0  0  0  0  0  0  0  0  0  0  0  0
    5.1875   -1.6828    3.3571 H   0  0  0  0  0  0  0  0  0  0  0  0
    5.0671    0.3762    4.4888 H   0  0  0  0  0  0  0  0  0  0  0  0
    6.6796    2.3495    4.0323 H   0  0  0  0  0  0  0  0  0  0  0  0
    8.2336    3.2684    0.3334 H   0  0  0  0  0  0  0  0  0  0  0  0
    6.8267    3.2905   -0.6996 H   0  0  0  0  0  0  0  0  0  0  0  0
    7.1578    5.7152   -1.1399 H   0  0  0  0  0  0  0  0  0  0  0  0
    8.5537    5.7285   -0.0679 H   0  0  0  0  0  0  0  0  0  0  0  0
    8.6028    4.7978   -1.5642 H   0  0  0  0  0  0  0  0  0  0  0  0
    7.3639    6.3517    2.5666 H   0  0  0  0  0  0  0  0  0  0  0  0
    6.7197    5.2794    3.7845 H   0  0  0  0  0  0  0  0  0  0  0  0
    9.2915    4.8308    2.2042 H   0  0  0  0  0  0  0  0  0  0  0  0
    8.6392    3.7013    3.3831 H   0  0  0  0  0  0  0  0  0  0  0  0
    9.1749    5.3003    3.8980 H   0  0  0  0  0  0  0  0  0  0  0  0
    4.3103    4.8221    0.0884 H   0  0  0  0  0  0  0  0  0  0  0  0
    5.1374    6.3232    0.4544 H   0  0  0  0  0  0  0  0  0  0  0  0
    3.3816    4.7565    2.3922 H   0  0  0  0  0  0  0  0  0  0  0  0
    2.9424    6.2476    1.5603 H   0  0  0  0  0  0  0  0  0  0  0  0
    4.2193    6.2610    2.7749 H   0  0  0  0  0  0  0  0  0  0  0  0
   -1.5254   -2.3288    0.8211 H   0  0  0  0  0  0  0  0  0  0  0  0
   -3.1977   -4.2084    1.4300 H   0  0  0  0  0  0  0  0  0  0  0  0
   -2.2256   -8.3451    4.5288 H   0  0  0  0  0  0  0  0  0  0  0  0
   -1.6416   -7.8149    2.9708 H   0  0  0  0  0  0  0  0  0  0  0  0
    0.2159   -8.1573    4.5869 H   0  0  0  0  0  0  0  0  0  0  0  0
    0.1451   -6.4791    4.0593 H   0  0  0  0  0  0  0  0  0  0  0  0
   -0.4688   -6.9264    5.6452 H   0  0  0  0  0  0  0  0  0  0  0  0
   -4.2690   -6.5299    2.0280 H   0  0  0  0  0  0  0  0  0  0  0  0
   -4.8910   -7.4142    3.3951 H   0  0  0  0  0  0  0  0  0  0  0  0
   -6.5028   -5.6913    2.5992 H   0  0  0  0  0  0  0  0  0  0  0  0
   -5.3222   -4.4278    2.9444 H   0  0  0  0  0  0  0  0  0  0  0  0
   -6.0019   -5.3836    4.2588 H   0  0  0  0  0  0  0  0  0  0  0  0
   -4.1753   -6.2165    6.2552 H   0  0  0  0  0  0  0  0  0  0  0  0
   -2.4980   -5.8218    6.5365 H   0  0  0  0  0  0  0  0  0  0  0  0
   -2.9058   -3.4656    5.8880 H   0  0  0  0  0  0  0  0  0  0  0  0
   -3.9738   -3.9549    7.2019 H   0  0  0  0  0  0  0  0  0  0  0  0
   -4.5947   -3.8335    5.5558 H   0  0  0  0  0  0  0  0  0  0  0  0
   -1.6332   -0.2093    1.7683 H   0  0  0  0  0  0  0  0  0  0  0  0
   -0.0136    4.1893    0.7819 H   0  0  0  0  0  0  0  0  0  0  0  0
   -1.5707    8.5343   -0.1181 H   0  0  0  0  0  0  0  0  0  0  0  0
    0.7399    9.5797   -0.4146 H   0  0  0  0  0  0  0  0  0  0  0  0
    3.5055    5.9238   -2.0027 H   0  0  0  0  0  0  0  0  0  0  0  0
    4.8556    7.0173   -2.3897 H   0  0  0  0  0  0  0  0  0  0  0  0
    3.4092    8.2319   -4.0267 H   0  0  0  0  0  0  0  0  0  0  0  0
    2.0613    7.1542   -3.6468 H   0  0  0  0  0  0  0  0  0  0  0  0
    3.5024    6.5151   -4.4451 H   0  0  0  0  0  0  0  0  0  0  0  0
   -6.2448    3.8438   -2.9043 H   0  0  0  0  0  0  0  0  0  0  0  0
   -8.1906    2.2492   -2.7092 H   0  0  0  0  0  0  0  0  0  0  0  0
   -9.8838    0.8076   -2.2831 H   0  0  0  0  0  0  0  0  0  0  0  0
  -10.8595    0.0667   -1.0021 H   0  0  0  0  0  0  0  0  0  0  0  0
  -10.0097    3.0129   -1.0576 H   0  0  0  0  0  0  0  0  0  0  0  0
  -11.6263    2.4131   -1.4454 H   0  0  0  0  0  0  0  0  0  0  0  0
  -10.9890    2.2454    0.1954 H   0  0  0  0  0  0  0  0  0  0  0  0
   -6.4101    5.7843   -1.9453 H   0  0  0  0  0  0  0  0  0  0  0  0
   -5.3953    9.4136   -2.8921 H   0  0  0  0  0  0  0  0  0  0  0  0
   -9.2675    5.5697   -5.9405 H   0  0  0  0  0  0  0  0  0  0  0  0
   -9.5938   10.6196   -6.1468 H   0  0  0  0  0  0  0  0  0  0  0  0
  -12.2743    9.1719   -7.7333 H   0  0  0  0  0  0  0  0  0  0  0  0
  -11.1196   10.0289   -9.7650 H   0  0  0  0  0  0  0  0  0  0  0  0
   -8.6045    9.3514   -9.5359 H   0  0  0  0  0  0  0  0  0  0  0  0
   -8.4611    6.7007   -9.4542 H   0  0  0  0  0  0  0  0  0  0  0  0
  -10.8888    5.7437   -9.6348 H   0  0  0  0  0  0  0  0  0  0  0  0
  -12.5864    7.7901  -10.0549 H   0  0  0  0  0  0  0  0  0  0  0  0
  -11.2480    7.8262  -11.2298 H   0  0  0  0  0  0  0  0  0  0  0  0
  -12.1382    6.5960   -7.6555 H   0  0  0  0  0  0  0  0  0  0  0  0
  1  2  2  0  0  0  0
  2  3  1  0  0  0  0
  3  4  2  0  0  0  0
  3  5  1  0  0  0  0
  5  6  2  0  0  0  0
  6  7  1  0  0  0  0
  7  8  2  0  0  0  0
  8  9  1  0  0  0  0
  9 10  2  0  0  0  0
 10 11  1  0  0  0  0
 11 12  2  0  0  0  0
 12 13  1  0  0  0  0
 13 14  3  0  0  0  0
 12 15  1  0  0  0  0
 15 16  3  0  0  0  0
  8 17  1  0  0  0  0
 17 18  1  0  0  0  0
 18 19  1  0  0  0  0
 19 20  2  0  0  0  0
 20 21  1  0  0  0  0
 21 22  1  0  0  0  0
 21 23  1  0  0  0  0
  1 24  1  0  0  0  0
 24 25  2  0  0  0  0
 25 26  1  0  0  0  0
 26 27  1  0  0  0  0
 27 28  2  0  0  0  0
 28 29  2  0  0  0  0
 26 30  2  0  0  0  0
 30 31  1  0  0  0  0
 31 32  2  0  0  0  0
 32 33  1  0  0  0  0
 33 34  1  0  0  0  0
 34 35  2  0  0  0  0
 30 36  1  0  0  0  0
 36 37  2  0  0  0  0
 37 38  1  0  0  0  0
 38 39  2  0  0  0  0
 39 40  1  0  0  0  0
 40 41  2  0  0  0  0
 41 42  1  0  0  0  0
 42 43  2  0  0  0  0
 43 44  1  0  0  0  0
 44 45  1  0  0  0  0
 45 46  1  0  0  0  0
 44 47  1  0  0  0  0
 47 48  1  0  0  0  0
 44 49  1  0  0  0  0
 49 50  1  0  0  0  0
 43 51  1  0  0  0  0
 39 52  1  0  0  0  0
 52 53  2  0  0  0  0
 53 54  1  0  0  0  0
 54 55  1  0  0  0  0
 55 56  2  0  0  0  0
 56 57  1  0  0  0  0
 57 58  2  0  0  0  0
 58 59  1  0  0  0  0
 59 60  1  0  0  0  0
 60 61  1  0  0  0  0
 59 62  1  0  0  0  0
 62 63  1  0  0  0  0
 59 64  1  0  0  0  0
 64 65  1  0  0  0  0
 58 66  1  0  0  0  0
 54 67  2  0  0  0  0
 67 68  1  0  0  0  0
 53 69  1  0  0  0  0
 69 70  2  0  0  0  0
 70 71  1  0  0  0  0
 70 72  1  0  0  0  0
 72 73  2  0  0  0  0
 73 74  1  0  0  0  0
 74 75  2  0  0  0  0
 75 76  1  0  0  0  0
 76 77  2  0  0  0  0
 77 78  1  0  0  0  0
 78 79  2  0  0  0  0
 79 80  1  0  0  0  0
 80 81  1  0  0  0  0
 81 82  1  0  0  0  0
 79 83  1  0  0  0  0
 75 84  1  0  0  0  0
 84 85  2  0  0  0  0
 85 86  1  0  0  0  0
 86 87  1  0  0  0  0
 87 88  2  0  0  0  0
 88 89  1  0  0  0  0
 89 90  2  0  0  0  0
 90 91  1  0  0  0  0
 91 92  1  0  0  0  0
 92 93  1  0  0  0  0
 90 94  1  0  0  0  0
 86 95  2  0  0  0  0
 95 96  1  0  0  0  0
 85 97  1  0  0  0  0
 97 98  2  0  0  0  0
 98 99  1  0  0  0  0
 98100  1  0  0  0  0
100101  2  0  0  0  0
101102  1  0  0  0  0
102103  2  0  0  0  0
102104  1  0  0  0  0
104105  2  0  0  0  0
105106  1  0  0  0  0
106107  2  0  0  0  0
107108  1  0  0  0  0
108109  2  0  0  0  0
109110  1  0  0  0  0
110111  2  0  0  0  0
111112  1  0  0  0  0
112113  3  0  0  0  0
111114  1  0  0  0  0
114115  3  0  0  0  0
107116  1  0  0  0  0
116117  1  0  0  0  0
117118  1  0  0  0  0
118119  2  0  0  0  0
119120  1  0  0  0  0
120121  1  0  0  0  0
120122  1  0  0  0  0
 11  2  1  0  0  0  0
 23 17  1  0  0  0  0
 35 24  1  0  0  0  0
 68 36  1  0  0  0  0
 96 72  1  0  0  0  0
110101  1  0  0  0  0
122116  1  0  0  0  0
 10  5  1  0  0  0  0
 22 18  1  0  0  0  0
 29 25  1  0  0  0  0
 35 31  1  0  0  0  0
 67 38  1  0  0  0  0
 95 74  1  0  0  0  0
109104  1  0  0  0  0
121117  1  0  0  0  0
 23  7  1  0  0  0  0
 51 40  1  0  0  0  0
 71 52  1  0  0  0  0
 83 76  1  0  0  0  0
 99 84  1  0  0  0  0
122106  1  0  0  0  0
 66 55  1  0  0  0  0
 94 87  1  0  0  0  0
  1123  1  0  0  0  0
  6124  1  0  0  0  0
  9125  1  0  0  0  0
 17126  1  0  0  0  0
 18127  1  0  0  0  0
 19128  1  0  0  0  0
 20129  1  0  0  0  0
 21130  1  0  0  0  0
 22131  1  0  0  0  0
 22132  1  0  0  0  0
 23133  1  0  0  0  0
 37134  1  0  0  0  0
 41135  1  0  0  0  0
 42136  1  0  0  0  0
 45137  1  0  0  0  0
 45138  1  0  0  0  0
 46139  1  0  0  0  0
 46140  1  0  0  0  0
 46141  1  0  0  0  0
 47142  1  0  0  0  0
 47143  1  0  0  0  0
 48144  1  0  0  0  0
 48145  1  0  0  0  0
 48146  1  0  0  0  0
 49147  1  0  0  0  0
 49148  1  0  0  0  0
 50149  1  0  0  0  0
 50150  1  0  0  0  0
 50151  1  0  0  0  0
 56152  1  0  0  0  0
 57153  1  0  0  0  0
 60154  1  0  0  0  0
 60155  1  0  0  0  0
 61156  1  0  0  0  0
 61157  1  0  0  0  0
 61158  1  0  0  0  0
 62159  1  0  0  0  0
 62160  1  0  0  0  0
 63161  1  0  0  0  0
 63162  1  0  0  0  0
 63163  1  0  0  0  0
 64164  1  0  0  0  0
 64165  1  0  0  0  0
 65166  1  0  0  0  0
 65167  1  0  0  0  0
 65168  1  0  0  0  0
 69169  1  0  0  0  0
 73170  1  0  0  0  0
 77171  1  0  0  0  0
 78172  1  0  0  0  0
 81173  1  0  0  0  0
 81174  1  0  0  0  0
 82175  1  0  0  0  0
 82176  1  0  0  0  0
 82177  1  0  0  0  0
 88178  1  0  0  0  0
 89179  1  0  0  0  0
 92180  1  0  0  0  0
 92181  1  0  0  0  0
 93182  1  0  0  0  0
 93183  1  0  0  0  0
 93184  1  0  0  0  0
 97185  1  0  0  0  0
100186  1  0  0  0  0
105187  1  0  0  0  0
108188  1  0  0  0  0
116189  1  0  0  0  0
117190  1  0  0  0  0
118191  1  0  0  0  0
119192  1  0  0  0  0
120193  1  0  0  0  0
121194  1  0  0  0  0
121195  1  0  0  0  0
122196  1  0  0  0  0
M  END
