
  xtb     02152212113D
 energy: -342.653913789154 gnorm: 0.000280414628 xtb: 6.4.1 (unknown)
197216  0     0  0            999 V2000
   -3.9857    1.5606   -6.2183 C   0  0  0  0  0  0  0  0  0  0  0  0
   -5.3044    1.2868   -6.5096 C   0  0  0  0  0  0  0  0  0  0  0  0
   -6.4573    1.9344   -5.8630 C   0  0  0  0  0  0  0  0  0  0  0  0
   -6.4317    2.7703   -4.9784 O   0  0  0  0  0  0  0  0  0  0  0  0
   -7.6499    1.4446   -6.5896 C   0  0  0  0  0  0  0  0  0  0  0  0
   -8.9813    1.7479   -6.3241 C   0  0  0  0  0  0  0  0  0  0  0  0
   -9.8797    1.0782   -7.1222 C   0  0  0  0  0  0  0  0  0  0  0  0
   -9.4818    0.1850   -8.1239 C   0  0  0  0  0  0  0  0  0  0  0  0
   -8.1697   -0.1074   -8.4117 C   0  0  0  0  0  0  0  0  0  0  0  0
   -7.2447    0.5533   -7.6024 C   0  0  0  0  0  0  0  0  0  0  0  0
   -5.7903    0.4362   -7.5591 C   0  0  0  0  0  0  0  0  0  0  0  0
   -5.0343   -0.4730   -8.2599 C   0  0  0  0  0  0  0  0  0  0  0  0
   -3.6688   -0.7157   -8.0150 C   0  0  0  0  0  0  0  0  0  0  0  0
   -2.5762   -1.0226   -7.8318 N   0  0  0  0  0  0  0  0  0  0  0  0
   -5.5344   -1.3530   -9.2370 C   0  0  0  0  0  0  0  0  0  0  0  0
   -5.8613   -2.1103  -10.0374 N   0  0  0  0  0  0  0  0  0  0  0  0
  -10.9014   -0.1452   -8.5076 C   0  0  0  0  0  0  0  0  0  0  0  0
  -11.4829   -1.4918   -8.0109 C   0  0  0  0  0  0  0  0  0  0  0  0
  -10.7451   -1.8429   -6.7423 C   0  0  0  0  0  0  0  0  0  0  0  0
  -11.1367   -0.9940   -5.8010 C   0  0  0  0  0  0  0  0  0  0  0  0
  -12.1388   -0.0502   -6.4175 C   0  0  0  0  0  0  0  0  0  0  0  0
  -12.8141   -0.9959   -7.4235 C   0  0  0  0  0  0  0  0  0  0  0  0
  -11.3478    0.8547   -7.3948 C   0  0  0  0  0  0  0  0  0  0  0  0
   -3.4772    2.0118   -4.9974 C   0  0  0  0  0  0  0  0  0  0  0  0
   -3.9770    1.9167   -3.6823 C   0  0  0  0  0  0  0  0  0  0  0  0
   -5.0907    1.2285   -3.2740 N   0  0  0  0  0  0  0  0  0  0  0  0
   -5.7735    1.6556   -2.1233 C   0  0  0  0  0  0  0  0  0  0  0  0
   -6.2770    0.7252   -1.2193 C   0  0  0  0  0  0  0  0  0  0  0  0
   -6.9812    1.1389   -0.1055 C   0  0  0  0  0  0  0  0  0  0  0  0
   -7.1890    2.4929    0.1206 C   0  0  0  0  0  0  0  0  0  0  0  0
   -8.0844    3.1271    1.5050 S   0  0  0  0  0  0  0  0  0  0  0  0
   -9.0687    1.7025    2.0580 C   0  0  0  0  0  0  0  0  0  0  0  0
   -6.6678    3.4268   -0.7726 C   0  0  0  0  0  0  0  0  0  0  0  0
   -5.9702    3.0155   -1.8851 C   0  0  0  0  0  0  0  0  0  0  0  0
   -5.5390    0.0865   -3.9469 C   0  0  0  0  0  0  0  0  0  0  0  0
   -4.6364   -0.8206   -4.4997 C   0  0  0  0  0  0  0  0  0  0  0  0
   -5.0775   -1.9086   -5.2243 C   0  0  0  0  0  0  0  0  0  0  0  0
   -6.4401   -2.1133   -5.4132 C   0  0  0  0  0  0  0  0  0  0  0  0
   -7.1209   -3.4065   -6.3933 S   0  0  0  0  0  0  0  0  0  0  0  0
   -5.6758   -4.3002   -7.0258 C   0  0  0  0  0  0  0  0  0  0  0  0
   -7.3487   -1.2455   -4.8090 C   0  0  0  0  0  0  0  0  0  0  0  0
   -6.9073   -0.1617   -4.0842 C   0  0  0  0  0  0  0  0  0  0  0  0
   -3.0765    2.4950   -2.7572 C   0  0  0  0  0  0  0  0  0  0  0  0
   -3.0229    2.5307   -1.0189 S   0  0  0  0  0  0  0  0  0  0  0  0
   -1.4022    3.1919   -1.0755 C   0  0  0  0  0  0  0  0  0  0  0  0
   -0.8945    3.2777   -2.3732 C   0  0  0  0  0  0  0  0  0  0  0  0
    0.4260    3.5052   -2.7163 N   0  0  0  0  0  0  0  0  0  0  0  0
    0.6917    4.2303   -3.8850 C   0  0  0  0  0  0  0  0  0  0  0  0
   -0.1175    5.3105   -4.2261 C   0  0  0  0  0  0  0  0  0  0  0  0
    0.1087    6.0242   -5.3860 C   0  0  0  0  0  0  0  0  0  0  0  0
    1.1582    5.6717   -6.2235 C   0  0  0  0  0  0  0  0  0  0  0  0
    1.5522    6.5057   -7.7263 S   0  0  0  0  0  0  0  0  0  0  0  0
    0.2663    7.7788   -7.8728 C   0  0  0  0  0  0  0  0  0  0  0  0
    1.9762    4.5955   -5.8801 C   0  0  0  0  0  0  0  0  0  0  0  0
    1.7462    3.8791   -4.7283 C   0  0  0  0  0  0  0  0  0  0  0  0
    1.4633    2.9248   -1.9750 C   0  0  0  0  0  0  0  0  0  0  0  0
    1.2945    1.6853   -1.3595 C   0  0  0  0  0  0  0  0  0  0  0  0
    2.2861    1.1471   -0.5635 C   0  0  0  0  0  0  0  0  0  0  0  0
    3.4817    1.8303   -0.3822 C   0  0  0  0  0  0  0  0  0  0  0  0
    4.7972    1.2645    0.6509 S   0  0  0  0  0  0  0  0  0  0  0  0
    4.3998   -0.4839    0.9352 C   0  0  0  0  0  0  0  0  0  0  0  0
    3.6712    3.0524   -1.0257 C   0  0  0  0  0  0  0  0  0  0  0  0
    2.6784    3.5943   -1.8098 C   0  0  0  0  0  0  0  0  0  0  0  0
   -1.8827    2.9234   -3.3188 C   0  0  0  0  0  0  0  0  0  0  0  0
   -1.8499    2.7108   -5.0307 S   0  0  0  0  0  0  0  0  0  0  0  0
   -0.6854    3.3890    0.1413 C   0  0  0  0  0  0  0  0  0  0  0  0
    0.4252    4.2170    0.2855 C   0  0  0  0  0  0  0  0  0  0  0  0
    0.6475    5.2006   -0.6064 F   0  0  0  0  0  0  0  0  0  0  0  0
    1.3492    4.0259    1.3126 C   0  0  0  0  0  0  0  0  0  0  0  0
    2.4779    4.7544    1.2911 F   0  0  0  0  0  0  0  0  0  0  0  0
    1.1765    3.0447    2.2788 C   0  0  0  0  0  0  0  0  0  0  0  0
   -0.1220    2.4561    2.3568 C   0  0  0  0  0  0  0  0  0  0  0  0
   -0.5084    1.7981    3.4573 N   0  0  0  0  0  0  0  0  0  0  0  0
   -1.7172    1.2890    3.5170 C   0  0  0  0  0  0  0  0  0  0  0  0
   -2.1052    0.6691    4.8260 C   0  0  0  0  0  0  0  0  0  0  0  0
   -1.5798   -0.7634    4.9268 C   0  0  0  0  0  0  0  0  0  0  0  0
   -2.5860    1.3464    2.3931 C   0  0  0  0  0  0  0  0  0  0  0  0
   -2.2246    2.0138    1.3226 N   0  0  0  0  0  0  0  0  0  0  0  0
   -1.0332    2.6176    1.2865 C   0  0  0  0  0  0  0  0  0  0  0  0
   -3.9611    0.7565    2.3696 C   0  0  0  0  0  0  0  0  0  0  0  0
   -4.9713    1.7817    2.8904 C   0  0  0  0  0  0  0  0  0  0  0  0
    2.2599    2.5086    3.0594 C   0  0  0  0  0  0  0  0  0  0  0  0
    3.5026    2.9828    3.3855 C   0  0  0  0  0  0  0  0  0  0  0  0
    4.2087    1.9050    3.9805 C   0  0  0  0  0  0  0  0  0  0  0  0
    5.5154    1.7499    4.4873 C   0  0  0  0  0  0  0  0  0  0  0  0
    6.5436    2.7533    4.4760 C   0  0  0  0  0  0  0  0  0  0  0  0
    6.6434    3.8975    3.7260 C   0  0  0  0  0  0  0  0  0  0  0  0
    7.8330    4.5948    3.9911 C   0  0  0  0  0  0  0  0  0  0  0  0
    8.1405    5.7469    3.3645 F   0  0  0  0  0  0  0  0  0  0  0  0
    8.6528    4.0278    4.9259 C   0  0  0  0  0  0  0  0  0  0  0  0
    9.9744    4.5084    5.4157 C   0  0  0  0  0  0  0  0  0  0  0  0
   11.0633    3.4515    5.2305 C   0  0  0  0  0  0  0  0  0  0  0  0
    7.9485    2.5595    5.4936 S   0  0  0  0  0  0  0  0  0  0  0  0
    5.7703    0.4741    4.9918 C   0  0  0  0  0  0  0  0  0  0  0  0
    4.8646   -0.6195    4.9623 C   0  0  0  0  0  0  0  0  0  0  0  0
    3.5675   -0.4757    4.4210 C   0  0  0  0  0  0  0  0  0  0  0  0
    2.6243   -1.5525    4.2787 C   0  0  0  0  0  0  0  0  0  0  0  0
    2.7855   -3.0458    5.1622 S   0  0  0  0  0  0  0  0  0  0  0  0
    1.3817   -3.7267    4.4223 C   0  0  0  0  0  0  0  0  0  0  0  0
    0.9109   -5.1030    4.7427 C   0  0  0  0  0  0  0  0  0  0  0  0
    2.0170   -6.1386    4.5432 C   0  0  0  0  0  0  0  0  0  0  0  0
    0.8469   -2.8241    3.5492 C   0  0  0  0  0  0  0  0  0  0  0  0
    1.5216   -1.5955    3.4607 C   0  0  0  0  0  0  0  0  0  0  0  0
   -0.2584   -3.0864    2.8212 F   0  0  0  0  0  0  0  0  0  0  0  0
    3.2941    0.8161    3.9710 C   0  0  0  0  0  0  0  0  0  0  0  0
    2.1269    1.2032    3.4211 O   0  0  0  0  0  0  0  0  0  0  0  0
    5.5809   -1.7113    5.4969 C   0  0  0  0  0  0  0  0  0  0  0  0
    6.8381   -1.2466    5.8249 C   0  0  0  0  0  0  0  0  0  0  0  0
    6.9426    0.0850    5.5209 O   0  0  0  0  0  0  0  0  0  0  0  0
    8.0097   -1.8164    6.3740 C   0  0  0  0  0  0  0  0  0  0  0  0
    8.2986   -3.0929    6.7564 C   0  0  0  0  0  0  0  0  0  0  0  0
    7.4143   -4.2900    6.7100 C   0  0  0  0  0  0  0  0  0  0  0  0
    6.2746   -4.3593    6.3032 O   0  0  0  0  0  0  0  0  0  0  0  0
    8.2157   -5.3922    7.2614 C   0  0  0  0  0  0  0  0  0  0  0  0
    7.8405   -6.7278    7.4415 C   0  0  0  0  0  0  0  0  0  0  0  0
    6.6001   -7.0807    7.0717 O   0  0  0  0  0  0  0  0  0  0  0  0
    6.1861   -8.4172    7.2320 C   0  0  0  0  0  0  0  0  0  0  0  0
    8.7945   -7.5898    7.9950 C   0  0  0  0  0  0  0  0  0  0  0  0
   10.0500   -7.1249    8.3433 C   0  0  0  0  0  0  0  0  0  0  0  0
   10.4234   -5.8001    8.1622 C   0  0  0  0  0  0  0  0  0  0  0  0
    9.4942   -4.9309    7.6146 C   0  0  0  0  0  0  0  0  0  0  0  0
    9.5828   -3.5059    7.2983 C   0  0  0  0  0  0  0  0  0  0  0  0
   10.6996   -2.7318    7.4761 C   0  0  0  0  0  0  0  0  0  0  0  0
   11.9203   -3.2053    8.0050 C   0  0  0  0  0  0  0  0  0  0  0  0
   12.9442   -3.5086    8.4263 N   0  0  0  0  0  0  0  0  0  0  0  0
   10.8385   -1.3617    7.1625 C   0  0  0  0  0  0  0  0  0  0  0  0
   11.0649   -0.2570    6.9412 N   0  0  0  0  0  0  0  0  0  0  0  0
   -3.2495    1.4237   -7.0021 H   0  0  0  0  0  0  0  0  0  0  0  0
   -9.2478    2.4396   -5.5397 H   0  0  0  0  0  0  0  0  0  0  0  0
   -7.8766   -0.7919   -9.1903 H   0  0  0  0  0  0  0  0  0  0  0  0
  -11.1853    0.0740   -9.5350 H   0  0  0  0  0  0  0  0  0  0  0  0
  -11.5273   -2.2702   -8.7676 H   0  0  0  0  0  0  0  0  0  0  0  0
   -9.9965   -2.6117   -6.6803 H   0  0  0  0  0  0  0  0  0  0  0  0
  -10.7902   -0.9127   -4.7867 H   0  0  0  0  0  0  0  0  0  0  0  0
  -12.7828    0.4863   -5.7252 H   0  0  0  0  0  0  0  0  0  0  0  0
  -13.3830   -1.7886   -6.9397 H   0  0  0  0  0  0  0  0  0  0  0  0
  -13.4433   -0.4813   -8.1484 H   0  0  0  0  0  0  0  0  0  0  0  0
  -11.9153    1.7326   -7.6984 H   0  0  0  0  0  0  0  0  0  0  0  0
   -6.1163   -0.3294   -1.3900 H   0  0  0  0  0  0  0  0  0  0  0  0
   -7.3577    0.3959    0.5793 H   0  0  0  0  0  0  0  0  0  0  0  0
   -9.5771    1.2609    1.2066 H   0  0  0  0  0  0  0  0  0  0  0  0
   -8.4411    0.9724    2.5613 H   0  0  0  0  0  0  0  0  0  0  0  0
   -9.7952    2.1015    2.7588 H   0  0  0  0  0  0  0  0  0  0  0  0
   -6.8365    4.4770   -0.5910 H   0  0  0  0  0  0  0  0  0  0  0  0
   -5.6104    3.7342   -2.6034 H   0  0  0  0  0  0  0  0  0  0  0  0
   -3.5750   -0.6699   -4.3718 H   0  0  0  0  0  0  0  0  0  0  0  0
   -4.3467   -2.5796   -5.6456 H   0  0  0  0  0  0  0  0  0  0  0  0
   -5.1126   -4.7270   -6.2010 H   0  0  0  0  0  0  0  0  0  0  0  0
   -5.0603   -3.6398   -7.6294 H   0  0  0  0  0  0  0  0  0  0  0  0
   -6.0766   -5.0925   -7.6501 H   0  0  0  0  0  0  0  0  0  0  0  0
   -8.4045   -1.4184   -4.9444 H   0  0  0  0  0  0  0  0  0  0  0  0
   -7.6179    0.5166   -3.6374 H   0  0  0  0  0  0  0  0  0  0  0  0
   -0.9236    5.6005   -3.5687 H   0  0  0  0  0  0  0  0  0  0  0  0
   -0.5363    6.8559   -5.6172 H   0  0  0  0  0  0  0  0  0  0  0  0
    0.4693    8.2918   -8.8078 H   0  0  0  0  0  0  0  0  0  0  0  0
    0.3392    8.4793   -7.0460 H   0  0  0  0  0  0  0  0  0  0  0  0
   -0.7138    7.3127   -7.9131 H   0  0  0  0  0  0  0  0  0  0  0  0
    2.7882    4.3247   -6.5371 H   0  0  0  0  0  0  0  0  0  0  0  0
    2.3746    3.0374   -4.4796 H   0  0  0  0  0  0  0  0  0  0  0  0
    0.3729    1.1387   -1.4957 H   0  0  0  0  0  0  0  0  0  0  0  0
    2.1133    0.1928   -0.0922 H   0  0  0  0  0  0  0  0  0  0  0  0
    5.2501   -0.8934    1.4718 H   0  0  0  0  0  0  0  0  0  0  0  0
    4.2820   -0.9895   -0.0185 H   0  0  0  0  0  0  0  0  0  0  0  0
    3.5073   -0.5801    1.5456 H   0  0  0  0  0  0  0  0  0  0  0  0
    4.6006    3.5811   -0.8845 H   0  0  0  0  0  0  0  0  0  0  0  0
    2.8232    4.5555   -2.2779 H   0  0  0  0  0  0  0  0  0  0  0  0
   -3.1874    0.6790    4.9479 H   0  0  0  0  0  0  0  0  0  0  0  0
   -1.6546    1.2625    5.6230 H   0  0  0  0  0  0  0  0  0  0  0  0
   -1.8948   -1.2130    5.8654 H   0  0  0  0  0  0  0  0  0  0  0  0
   -0.4940   -0.7558    4.8904 H   0  0  0  0  0  0  0  0  0  0  0  0
   -1.9515   -1.3738    4.1067 H   0  0  0  0  0  0  0  0  0  0  0  0
   -4.2100    0.5150    1.3353 H   0  0  0  0  0  0  0  0  0  0  0  0
   -3.9984   -0.1526    2.9700 H   0  0  0  0  0  0  0  0  0  0  0  0
   -4.7161    2.1126    3.8948 H   0  0  0  0  0  0  0  0  0  0  0  0
   -5.9658    1.3462    2.9146 H   0  0  0  0  0  0  0  0  0  0  0  0
   -4.9879    2.6490    2.2357 H   0  0  0  0  0  0  0  0  0  0  0  0
    3.8449    3.9828    3.2312 H   0  0  0  0  0  0  0  0  0  0  0  0
    5.9369    4.2124    2.9836 H   0  0  0  0  0  0  0  0  0  0  0  0
   10.2337    5.4182    4.8694 H   0  0  0  0  0  0  0  0  0  0  0  0
    9.8980    4.7598    6.4778 H   0  0  0  0  0  0  0  0  0  0  0  0
   12.0173    3.8327    5.5849 H   0  0  0  0  0  0  0  0  0  0  0  0
   10.8198    2.5509    5.7894 H   0  0  0  0  0  0  0  0  0  0  0  0
   11.1633    3.1905    4.1794 H   0  0  0  0  0  0  0  0  0  0  0  0
    0.0572   -5.3327    4.1010 H   0  0  0  0  0  0  0  0  0  0  0  0
    0.5722   -5.1369    5.7827 H   0  0  0  0  0  0  0  0  0  0  0  0
    1.6488   -7.1311    4.7905 H   0  0  0  0  0  0  0  0  0  0  0  0
    2.3528   -6.1409    3.5087 H   0  0  0  0  0  0  0  0  0  0  0  0
    2.8676   -5.9101    5.1816 H   0  0  0  0  0  0  0  0  0  0  0  0
    1.2007   -0.7943    2.8225 H   0  0  0  0  0  0  0  0  0  0  0  0
    5.2516   -2.7195    5.6319 H   0  0  0  0  0  0  0  0  0  0  0  0
    8.7906   -1.0738    6.4850 H   0  0  0  0  0  0  0  0  0  0  0  0
    5.1631   -8.4505    6.8615 H   0  0  0  0  0  0  0  0  0  0  0  0
    6.2003   -8.7191    8.2839 H   0  0  0  0  0  0  0  0  0  0  0  0
    6.8056   -9.1030    6.6457 H   0  0  0  0  0  0  0  0  0  0  0  0
    8.5605   -8.6300    8.1570 H   0  0  0  0  0  0  0  0  0  0  0  0
   10.7616   -7.8163    8.7690 H   0  0  0  0  0  0  0  0  0  0  0  0
   11.4100   -5.4772    8.4457 H   0  0  0  0  0  0  0  0  0  0  0  0
  1  2  2  0  0  0  0
  2  3  1  0  0  0  0
  3  4  2  0  0  0  0
  3  5  1  0  0  0  0
  5  6  2  0  0  0  0
  6  7  1  0  0  0  0
  7  8  2  0  0  0  0
  8  9  1  0  0  0  0
  9 10  2  0  0  0  0
 10 11  1  0  0  0  0
 11 12  2  0  0  0  0
 12 13  1  0  0  0  0
 13 14  3  0  0  0  0
 12 15  1  0  0  0  0
 15 16  3  0  0  0  0
  8 17  1  0  0  0  0
 17 18  1  0  0  0  0
 18 19  1  0  0  0  0
 19 20  2  0  0  0  0
 20 21  1  0  0  0  0
 21 22  1  0  0  0  0
 21 23  1  0  0  0  0
  1 24  1  0  0  0  0
 24 25  2  0  0  0  0
 25 26  1  0  0  0  0
 26 27  1  0  0  0  0
 27 28  2  0  0  0  0
 28 29  1  0  0  0  0
 29 30  2  0  0  0  0
 30 31  1  0  0  0  0
 31 32  1  0  0  0  0
 30 33  1  0  0  0  0
 33 34  2  0  0  0  0
 26 35  1  0  0  0  0
 35 36  2  0  0  0  0
 36 37  1  0  0  0  0
 37 38  2  0  0  0  0
 38 39  1  0  0  0  0
 39 40  1  0  0  0  0
 38 41  1  0  0  0  0
 41 42  2  0  0  0  0
 25 43  1  0  0  0  0
 43 44  1  0  0  0  0
 44 45  1  0  0  0  0
 45 46  2  0  0  0  0
 46 47  1  0  0  0  0
 47 48  1  0  0  0  0
 48 49  2  0  0  0  0
 49 50  1  0  0  0  0
 50 51  2  0  0  0  0
 51 52  1  0  0  0  0
 52 53  1  0  0  0  0
 51 54  1  0  0  0  0
 54 55  2  0  0  0  0
 47 56  1  0  0  0  0
 56 57  2  0  0  0  0
 57 58  1  0  0  0  0
 58 59  2  0  0  0  0
 59 60  1  0  0  0  0
 60 61  1  0  0  0  0
 59 62  1  0  0  0  0
 62 63  2  0  0  0  0
 46 64  1  0  0  0  0
 64 65  1  0  0  0  0
 45 66  1  0  0  0  0
 66 67  2  0  0  0  0
 67 68  1  0  0  0  0
 67 69  1  0  0  0  0
 69 70  1  0  0  0  0
 69 71  2  0  0  0  0
 71 72  1  0  0  0  0
 72 73  2  0  0  0  0
 73 74  1  0  0  0  0
 74 75  1  0  0  0  0
 75 76  1  0  0  0  0
 74 77  2  0  0  0  0
 77 78  1  0  0  0  0
 78 79  2  0  0  0  0
 77 80  1  0  0  0  0
 80 81  1  0  0  0  0
 71 82  1  0  0  0  0
 82 83  2  0  0  0  0
 83 84  1  0  0  0  0
 84 85  2  0  0  0  0
 85 86  1  0  0  0  0
 86 87  2  0  0  0  0
 87 88  1  0  0  0  0
 88 89  1  0  0  0  0
 88 90  2  0  0  0  0
 90 91  1  0  0  0  0
 91 92  1  0  0  0  0
 90 93  1  0  0  0  0
 85 94  1  0  0  0  0
 94 95  2  0  0  0  0
 95 96  1  0  0  0  0
 96 97  1  0  0  0  0
 97 98  1  0  0  0  0
 98 99  1  0  0  0  0
 99100  1  0  0  0  0
100101  1  0  0  0  0
 99102  2  0  0  0  0
102103  1  0  0  0  0
102104  1  0  0  0  0
 96105  2  0  0  0  0
105106  1  0  0  0  0
 95107  1  0  0  0  0
107108  2  0  0  0  0
108109  1  0  0  0  0
108110  1  0  0  0  0
110111  2  0  0  0  0
111112  1  0  0  0  0
112113  2  0  0  0  0
112114  1  0  0  0  0
114115  2  0  0  0  0
115116  1  0  0  0  0
116117  1  0  0  0  0
115118  1  0  0  0  0
118119  2  0  0  0  0
119120  1  0  0  0  0
120121  2  0  0  0  0
121122  1  0  0  0  0
122123  2  0  0  0  0
123124  1  0  0  0  0
124125  3  0  0  0  0
123126  1  0  0  0  0
126127  3  0  0  0  0
 11  2  1  0  0  0  0
 23 17  1  0  0  0  0
 65 24  1  0  0  0  0
 79 66  1  0  0  0  0
106 82  1  0  0  0  0
122111  1  0  0  0  0
 10  5  1  0  0  0  0
 22 18  1  0  0  0  0
 34 27  1  0  0  0  0
 42 35  1  0  0  0  0
 64 43  2  0  0  0  0
 79 72  1  0  0  0  0
105 84  1  0  0  0  0
121114  1  0  0  0  0
 23  7  1  0  0  0  0
 55 48  1  0  0  0  0
 63 56  1  0  0  0  0
 93 86  1  0  0  0  0
109 94  1  0  0  0  0
103 97  2  0  0  0  0
  1128  1  0  0  0  0
  6129  1  0  0  0  0
  9130  1  0  0  0  0
 17131  1  0  0  0  0
 18132  1  0  0  0  0
 19133  1  0  0  0  0
 20134  1  0  0  0  0
 21135  1  0  0  0  0
 22136  1  0  0  0  0
 22137  1  0  0  0  0
 23138  1  0  0  0  0
 28139  1  0  0  0  0
 29140  1  0  0  0  0
 32141  1  0  0  0  0
 32142  1  0  0  0  0
 32143  1  0  0  0  0
 33144  1  0  0  0  0
 34145  1  0  0  0  0
 36146  1  0  0  0  0
 37147  1  0  0  0  0
 40148  1  0  0  0  0
 40149  1  0  0  0  0
 40150  1  0  0  0  0
 41151  1  0  0  0  0
 42152  1  0  0  0  0
 49153  1  0  0  0  0
 50154  1  0  0  0  0
 53155  1  0  0  0  0
 53156  1  0  0  0  0
 53157  1  0  0  0  0
 54158  1  0  0  0  0
 55159  1  0  0  0  0
 57160  1  0  0  0  0
 58161  1  0  0  0  0
 61162  1  0  0  0  0
 61163  1  0  0  0  0
 61164  1  0  0  0  0
 62165  1  0  0  0  0
 63166  1  0  0  0  0
 75167  1  0  0  0  0
 75168  1  0  0  0  0
 76169  1  0  0  0  0
 76170  1  0  0  0  0
 76171  1  0  0  0  0
 80172  1  0  0  0  0
 80173  1  0  0  0  0
 81174  1  0  0  0  0
 81175  1  0  0  0  0
 81176  1  0  0  0  0
 83177  1  0  0  0  0
 87178  1  0  0  0  0
 91179  1  0  0  0  0
 91180  1  0  0  0  0
 92181  1  0  0  0  0
 92182  1  0  0  0  0
 92183  1  0  0  0  0
100184  1  0  0  0  0
100185  1  0  0  0  0
101186  1  0  0  0  0
101187  1  0  0  0  0
101188  1  0  0  0  0
103189  1  0  0  0  0
107190  1  0  0  0  0
110191  1  0  0  0  0
117192  1  0  0  0  0
117193  1  0  0  0  0
117194  1  0  0  0  0
118195  1  0  0  0  0
119196  1  0  0  0  0
120197  1  0  0  0  0
M  END
