200

C         -1.90540       -4.22090        3.91550
C         -2.58650       -4.15290        5.10110
C         -2.29990       -5.13600        6.17290
O         -1.61410       -6.13290        6.08850
C         -2.93920       -4.58880        7.38590
C         -2.85500       -5.09070        8.68290
C         -3.50860       -4.33070        9.62250
C         -4.22050       -3.16900        9.29590
C         -4.33430       -2.67610        8.01800
C         -3.64960       -3.41820        7.05300
C         -3.51710       -3.18880        5.61780
C         -4.29920       -2.35680        4.84680
C         -5.13050       -1.34460        5.35360
N         -5.77020       -0.45760        5.70750
C         -4.37040       -2.48910        3.45040
N         -4.48330       -2.60390        2.31200
C         -4.61140       -2.90970       10.72950
C         -6.05730       -3.26900       11.13040
C         -6.00150       -3.36460       12.63800
C         -5.32790       -4.46500       12.94780
C         -4.91710       -5.13190       11.65480
C         -6.11660       -4.75990       10.77340
C         -3.81820       -4.20560       11.09350
C         -1.61540       -3.22750        2.96360
C         -1.57440       -1.82280        3.02420
N         -1.73170       -1.03370        4.13980
C         -2.14700        0.30970        3.96970
C         -1.43490        1.34110        4.57870
C         -1.91000        2.63360        4.52770
C         -3.10740        2.90940        3.87660
S         -3.73880        4.56110        3.94180
C         -5.51820        4.24490        4.16090
C         -3.77960        1.89780        3.20500
C         -3.29650        0.60670        3.24360
C         -1.32390       -1.42490        5.42120
C         -0.30570       -2.35560        5.61540
C          0.03690       -2.77760        6.88420
C         -0.61980       -2.26060        7.99340
S         -0.32230       -2.79070        9.64420
C          0.61860       -4.32780        9.42440
C         -1.57770       -1.26400        7.81140
C         -1.93440       -0.86040        6.54640
C         -1.20850       -1.27990        1.76810
S         -0.92380        0.32690        1.17970
C         -0.36170       -0.31340       -0.35680
C         -0.44980       -1.68430       -0.41770
N         -0.08320       -2.45410       -1.52610
C         -0.85110       -2.38220       -2.69200
C         -2.17130       -1.93100       -2.65120
C         -2.92410       -1.88240       -3.80240
C         -2.38450       -2.27360       -5.02430
S         -3.45530       -2.15180       -6.42140
C         -2.46590       -2.79100       -7.80080
C         -1.07080       -2.71740       -5.07310
C         -0.31260       -2.76460       -3.91850
C          0.78950       -3.51970       -1.26430
C          1.87530       -3.30700       -0.41210
C          2.71680       -4.34550       -0.08280
C          2.50590       -5.61750       -0.61120
S          3.65600       -6.87680       -0.14040
C          2.81670       -8.41750       -0.60640
C          1.44190       -5.82870       -1.47730
C          0.58540       -4.79160       -1.79130
C         -0.92570       -2.22830        0.79860
S         -1.11140       -3.83200        1.38190
C          0.38040        0.49830       -1.29650
C         -0.01420        1.23790       -2.38490
N         -1.32060        1.35760       -2.84210
C         -1.53730        1.23430       -4.21960
C         -0.66540        0.46180       -4.98860
C         -0.84470        0.34360       -6.34790
C         -1.91780        0.96560       -6.97410
S         -2.09810        0.72760       -8.71740
C         -3.88990        0.91620       -8.95030
C         -2.78120        1.74730       -6.22010
C         -2.58570        1.88960       -4.86120
C         -2.32690        1.75980       -1.95590
C         -2.04020        2.65980       -0.93010
C         -3.04720        3.15150       -0.12440
C         -4.35970        2.75890       -0.34330
S         -5.71390        3.46970        0.55180
C         -5.19820        5.21420        0.64400
C         -4.64250        1.79860       -1.30760
C         -3.63480        1.29900       -2.10350
C          1.10450        1.83110       -3.03110
S          1.28140        2.90850       -4.36900
C          3.02720        2.91780       -4.15190
C          3.44140        2.15180       -3.05730
N          4.71800        2.00030       -2.58300
C          5.06610        0.75770       -2.02510
C          4.66480       -0.42190       -2.64800
C          4.99080       -1.65090       -2.11080
C          5.73960       -1.72030       -0.94310
S          6.22260       -3.23450       -0.18040
C          6.00350       -4.46260       -1.49750
C          6.13890       -0.54120       -0.31410
C          5.80590        0.68440       -0.84510
C          5.64860        3.04720       -2.58530
C          7.00610        2.77950       -2.75890
C          7.91800        3.80870       -2.77080
C          7.49790        5.12810       -2.61450
S          8.74440        6.37320       -2.66010
C          7.80820        7.88750       -3.01900
C          6.15040        5.39600       -2.41180
C          5.23620        4.36250       -2.39310
C          2.32100        1.53080       -2.44780
S          2.12580        0.52590       -1.05720
C          3.81820        3.61230       -5.08880
N          5.13440        3.52350       -5.15120
N          5.66080        4.24020       -6.08410
C          4.81030        4.91920       -6.82200
S          3.14170        4.66380       -6.31310
C          5.30240        5.73560       -7.86220
C          4.61970        6.46370       -8.79140
C          3.15170        6.50010       -8.96490
O          2.30380        6.02160       -8.23850
C          2.91290        7.24080      -10.21610
C          1.71150        7.50650      -10.84400
C          1.73890        8.22040      -12.03330
C          2.94550        8.64850      -12.56880
C          4.15470        8.38660      -11.93800
C          4.13980        7.67760      -10.74650
C          5.21690        7.26190       -9.85040
C          6.53200        7.62160       -9.96970
C          7.04440        8.40350      -11.02740
N          7.52700        9.02920      -11.85990
C          7.55700        7.31570       -9.04780
N          8.44470        7.14400       -8.34030
H         -1.46020       -5.19040        3.70890
H         -2.30920       -5.99740        8.89450
H         -4.88000       -1.77920        7.77380
H         -4.27490       -1.96220       11.14580
H         -6.82130       -2.62170       10.70850
H         -6.39610       -2.61770       13.30160
H         -5.04760       -4.82070       13.92190
H         -4.64400       -6.18230       11.71180
H         -7.03870       -5.22840       11.11340
H         -5.97100       -4.96810        9.71500
H         -2.95430       -4.11630       11.74930
H         -0.52270        1.11840        5.11200
H         -1.37130        3.43370        5.01140
H         -5.97730        3.95790        3.22000
H         -5.94670        5.17740        4.51400
H         -5.64470        3.46580        4.90560
H         -4.68850        2.10220        2.66330
H         -3.82880       -0.17420        2.72450
H          0.23060       -2.75470        4.76830
H          0.82050       -3.50950        6.99000
H          1.63300       -4.10590        9.10560
H          0.10940       -4.96440        8.70710
H          0.63780       -4.80430       10.39950
H         -2.06020       -0.83460        8.67520
H         -2.70990       -0.11980        6.42150
H         -2.61180       -1.63730       -1.71020
H         -3.95420       -1.56120       -3.76850
H         -1.61600       -2.13960       -7.98010
H         -3.12400       -2.77600       -8.66400
H         -2.15530       -3.81040       -7.59160
H         -0.62020       -3.02210       -6.00390
H          0.71170       -3.10440       -3.96640
H          2.05120       -2.32140       -0.00580
H          3.54750       -4.18200        0.58650
H          3.40840       -9.21670       -0.17080
H          2.79490       -8.52590       -1.68710
H          1.81490       -8.42650       -0.18780
H          1.25770       -6.80160       -1.90410
H         -0.25810       -4.97430       -2.43980
H          0.14690       -0.06750       -4.51500
H         -0.15620       -0.24570       -6.93450
H         -4.10960        0.50400       -9.93010
H         -4.40620        0.35100       -8.18010
H         -4.16810        1.96580       -8.92510
H         -3.60460        2.26530       -6.68540
H         -3.25040        2.52530       -4.29670
H         -1.02540        2.99760       -0.77960
H         -2.80580        3.85610        0.65610
H         -4.45210        5.35400        1.42090
H         -6.09210        5.78070        0.88520
H         -4.81310        5.51650       -0.32460
H         -5.65970        1.46310       -1.43870
H         -3.85690        0.57100       -2.86690
H          4.09970       -0.37190       -3.56730
H          4.65900       -2.54630       -2.61100
H          6.41730       -5.38650       -1.10640
H          6.55200       -4.14760       -2.38000
H          4.94840       -4.60280       -1.71120
H          6.71250       -0.60290        0.59760
H          6.11660        1.59370       -0.35350
H          7.33440        1.76310       -2.91110
H          8.96690        3.60780       -2.92250
H          8.54820        8.63650       -3.28270
H          7.25570        8.21150       -2.14140
H          7.14640        7.70790       -3.86070
H          5.80120        6.40510       -2.26030
H          4.19040        4.57900       -2.22910
H          6.38520        5.73100       -7.89560
H          0.78640        7.16010      -10.40950
H          0.81660        8.44370      -12.54800
H          2.94890        9.19880      -13.49770
H          5.07580        8.72920      -12.37990
