154

C         -2.42270       -0.37610       -6.69150
C         -3.76890       -0.31150       -6.85390
C         -4.73830       -0.50300       -5.74350
O         -4.48610       -0.77280       -4.58650
C         -6.07180       -0.47830       -6.36320
C         -7.29680       -0.61180       -5.71110
C         -8.38120       -0.60110       -6.55420
C         -8.25980       -0.47380       -7.94520
C         -7.05910       -0.33870       -8.60040
C         -5.93940       -0.34370       -7.76130
C         -4.52230       -0.23110       -8.09200
C         -4.00180       -0.02130       -9.34180
C         -2.62910        0.13930       -9.62520
N         -1.53190        0.28150       -9.93310
C         -4.76660        0.07570      -10.52310
N         -5.32560        0.15560      -11.52270
C         -9.74890       -0.57480       -8.16420
C        -10.27720       -1.93280       -8.67390
C        -11.75040       -1.89750       -8.33680
C        -11.86610       -2.01310       -7.02000
C        -10.47310       -2.12850       -6.44440
C         -9.78090       -2.89010       -7.58230
C         -9.88400       -0.71170       -6.61350
C         -1.77330       -0.26480       -5.41630
C         -0.65910       -1.01960       -5.08580
C         -0.08260       -0.96120       -3.82310
F          0.94550       -1.80800       -3.59640
C         -0.52160       -0.14140       -2.78420
C         -1.57300        0.74460       -3.15090
C         -2.20210        0.67420       -4.44180
N         -3.11000        1.63080       -4.60740
S         -3.17750        2.52140       -3.27400
N         -2.04760        1.75400       -2.42520
C          0.06660       -0.14020       -1.47980
C         -0.49710        0.24310       -0.26190
N         -1.81110        0.54420        0.02290
C         -2.01840        1.46270        1.07090
C         -1.33860        2.67660        1.06170
C         -1.43370        3.54640        2.13070
C         -2.21580        3.20920        3.22680
S         -2.35510        4.19440        4.68500
C         -1.29050        5.62760        4.35700
C         -2.93770        2.01580        3.21680
C         -2.84430        1.15070        2.15030
C         -2.90830       -0.07700       -0.57300
C         -2.82390       -1.35820       -1.11300
C         -3.92980       -1.96170       -1.67650
C         -5.14810       -1.29750       -1.70840
S         -6.62550       -1.99680       -2.36150
C         -6.02350       -3.35090       -3.40720
C         -5.24150       -0.01900       -1.16420
C         -4.13880        0.58410       -0.60540
C          0.48170        0.22310        0.76220
S          0.43440        0.56290        2.45240
C          2.14250        0.13790        2.62540
C          2.68620       -0.30550        1.41980
N          3.97180       -0.75500        1.19670
C          4.57780       -1.73240        1.99050
C          5.96510       -1.86550        1.98340
C          6.57890       -2.88340        2.67990
C          5.81670       -3.78240        3.41420
S          6.50130       -5.14960        4.29450
C          8.13200       -5.36690        3.52050
C          4.43620       -3.62070        3.47090
C          3.82010       -2.61160        2.76490
C          4.54460       -0.40730       -0.04290
C          5.13420       -1.36430       -0.86880
C          5.65670       -0.99700       -2.08710
C          5.59840        0.32940       -2.51520
S          6.29950        0.66990       -4.09590
C          5.95570        2.43260       -4.36160
C          5.01150        1.28450       -1.69630
C          4.49200        0.91580       -0.47060
C          1.73370       -0.21200        0.37040
S          1.75720       -0.61750       -1.30730
C          2.71950        0.40770        3.88930
C          2.03860        1.12350        4.86950
C          2.79850        1.36690        5.99800
S          2.28640        2.25870        7.40770
C          0.63670        2.89850        6.93590
C         -0.47090        1.88050        7.12560
C          4.09530        0.80890        5.92470
S          4.31410       -0.03990        4.40540
C          5.05080        1.00190        6.91190
C          6.31940        0.48520        7.10250
C          7.04910        1.01350        8.24650
O          6.62910        1.89620        8.96990
N          8.31010        0.46610        8.47020
C          9.07180        1.02420        9.58080
C          8.81870        0.25530       10.87080
C          8.81730       -0.58620        7.77060
S         10.29520       -1.22290        8.15230
N          8.08910       -1.09350        6.73160
C          8.57320       -2.28770        6.05020
C          8.24360       -3.53590        6.85930
C          6.88520       -0.55780        6.29030
O          6.36180       -1.00250        5.27420
H         -1.77800       -0.53730       -7.54560
H         -7.34880       -0.70980       -4.63780
H         -6.98230       -0.24400       -9.67060
H        -10.21640        0.27540       -8.65680
H        -10.01550       -2.16590       -9.70240
H        -12.52770       -1.74210       -9.06160
H        -12.75950       -1.97340       -6.42490
H        -10.38980       -2.53830       -5.44140
H         -8.69710       -2.93610       -7.49160
H        -10.17870       -3.89600       -7.70630
H        -10.44000        0.04850       -6.06870
H         -0.25430       -1.72800       -5.79270
H         -0.72460        2.92800        0.20990
H         -0.88860        4.47560        2.09690
H         -1.33550        6.23520        5.25540
H         -0.26880        5.30330        4.18270
H         -1.67560        6.19110        3.51230
H         -3.55510        1.76960        4.06690
H         -3.38790        0.21830        2.15520
H         -1.89000       -1.89850       -1.07770
H         -3.82890       -2.95660       -2.07860
H         -6.86720       -3.66260       -4.01540
H         -5.22580       -2.96750       -4.03610
H         -5.68530       -4.18130       -2.79390
H         -6.18860        0.49790       -1.19220
H         -4.21550        1.58350       -0.20450
H          6.56540       -1.16460        1.42350
H          7.65370       -2.96290        2.64490
H          8.80910       -4.57280        3.82180
H          8.50380       -6.32110        3.88090
H          8.01880       -5.39720        2.44120
H          3.84950       -4.30840        4.06050
H          2.74470       -2.51870        2.79050
H          5.16590       -2.39590       -0.55350
H          6.10610       -1.73540       -2.73280
H          4.88450        2.60880       -4.33490
H          6.34150        2.65820       -5.35100
H          6.47580        3.03140       -3.61960
H          4.95510        2.31860       -1.99560
H          4.03920        1.66180        0.16670
H          1.02780        1.45730        4.72240
H          0.49070        3.75120        7.59880
H          0.69870        3.25710        5.91030
H         -0.53460        1.58450        8.16970
H         -1.42020        2.32010        6.82580
H         -0.29670        0.98980        6.52670
H          4.74840        1.69280        7.69680
H         10.13040        0.99430        9.31750
H          8.74400        2.05920        9.69240
H          9.38010        0.71150       11.68080
H          7.76030        0.28120       11.11860
H          9.13700       -0.77910       10.76550
H          8.06790       -2.31180        5.08360
H          9.65180       -2.19330        5.90890
H          8.71010       -3.48540        7.84000
H          8.61590       -4.41870        6.34910
H          7.16720       -3.63290        6.97930
