
  xtb     02072208553D
 energy: -320.219947408071 gnorm: 0.000389554903 xtb: 6.4.1 (unknown)
187205  0     0  0            999 V2000
    5.7229    1.4019    3.3279 C   0  0  0  0  0  0  0  0  0  0  0  0
    5.5062    0.8348    4.5544 C   0  0  0  0  0  0  0  0  0  0  0  0
    4.3025    0.1171    4.9970 C   0  0  0  0  0  0  0  0  0  0  0  0
    3.2008    0.1078    4.4742 O   0  0  0  0  0  0  0  0  0  0  0  0
    4.6915   -0.6195    6.2116 C   0  0  0  0  0  0  0  0  0  0  0  0
    3.9063   -1.5132    6.9380 C   0  0  0  0  0  0  0  0  0  0  0  0
    4.5480   -2.0704    8.0178 C   0  0  0  0  0  0  0  0  0  0  0  0
    5.8723   -1.7595    8.3551 C   0  0  0  0  0  0  0  0  0  0  0  0
    6.6549   -0.8730    7.6537 C   0  0  0  0  0  0  0  0  0  0  0  0
    6.0225   -0.2969    6.5484 C   0  0  0  0  0  0  0  0  0  0  0  0
    6.5215    0.6745    5.5781 C   0  0  0  0  0  0  0  0  0  0  0  0
    7.6953    1.3745    5.6700 C   0  0  0  0  0  0  0  0  0  0  0  0
    8.0799    2.4295    4.8127 C   0  0  0  0  0  0  0  0  0  0  0  0
    8.4471    3.3329    4.2066 N   0  0  0  0  0  0  0  0  0  0  0  0
    8.6505    1.1896    6.6906 C   0  0  0  0  0  0  0  0  0  0  0  0
    9.4679    1.0822    7.4901 N   0  0  0  0  0  0  0  0  0  0  0  0
    5.8766   -2.6979    9.5359 C   0  0  0  0  0  0  0  0  0  0  0  0
    6.6045   -4.0449    9.3412 C   0  0  0  0  0  0  0  0  0  0  0  0
    6.0448   -4.9208   10.4388 C   0  0  0  0  0  0  0  0  0  0  0  0
    4.7909   -5.2153   10.1200 C   0  0  0  0  0  0  0  0  0  0  0  0
    4.4821   -4.5435    8.8014 C   0  0  0  0  0  0  0  0  0  0  0  0
    5.8605   -4.6288    8.1332 C   0  0  0  0  0  0  0  0  0  0  0  0
    4.4001   -3.0444    9.1604 C   0  0  0  0  0  0  0  0  0  0  0  0
    4.8289    1.6083    2.2646 C   0  0  0  0  0  0  0  0  0  0  0  0
    3.0982    1.4403    2.3793 S   0  0  0  0  0  0  0  0  0  0  0  0
    2.8660    2.0155    0.7526 C   0  0  0  0  0  0  0  0  0  0  0  0
    4.0999    2.3373    0.1545 C   0  0  0  0  0  0  0  0  0  0  0  0
    4.2481    2.9647   -1.1491 C   0  0  0  0  0  0  0  0  0  0  0  0
    3.2945    3.2802   -1.8598 O   0  0  0  0  0  0  0  0  0  0  0  0
    5.6203    3.2334   -1.5473 C   0  0  0  0  0  0  0  0  0  0  0  0
    5.9745    3.8263   -2.7372 C   0  0  0  0  0  0  0  0  0  0  0  0
    5.0748    4.3256   -3.8066 C   0  0  0  0  0  0  0  0  0  0  0  0
    5.8051    4.7138   -5.0830 C   0  0  0  0  0  0  0  0  0  0  0  0
    7.6948    3.9579   -2.8621 S   0  0  0  0  0  0  0  0  0  0  0  0
    7.9422    3.2146   -1.3165 C   0  0  0  0  0  0  0  0  0  0  0  0
    9.3190    2.9909   -0.8081 C   0  0  0  0  0  0  0  0  0  0  0  0
    9.8150    1.5931   -1.1910 C   0  0  0  0  0  0  0  0  0  0  0  0
    6.7445    2.8751   -0.7395 C   0  0  0  0  0  0  0  0  0  0  0  0
    6.5979    2.2131    0.5547 C   0  0  0  0  0  0  0  0  0  0  0  0
    7.5464    1.7692    1.1834 O   0  0  0  0  0  0  0  0  0  0  0  0
    5.1991    2.0785    0.9981 C   0  0  0  0  0  0  0  0  0  0  0  0
    1.5843    1.9184    0.1733 C   0  0  0  0  0  0  0  0  0  0  0  0
    0.4270    1.4849    0.8469 C   0  0  0  0  0  0  0  0  0  0  0  0
    0.2799    1.4406    2.2201 N   0  0  0  0  0  0  0  0  0  0  0  0
   -0.3753    0.3296    2.7685 C   0  0  0  0  0  0  0  0  0  0  0  0
   -0.1024   -0.9384    2.2629 C   0  0  0  0  0  0  0  0  0  0  0  0
   -0.7488   -2.0521    2.7591 C   0  0  0  0  0  0  0  0  0  0  0  0
   -1.6809   -1.9145    3.7787 C   0  0  0  0  0  0  0  0  0  0  0  0
   -2.5656   -3.2624    4.4967 S   0  0  0  0  0  0  0  0  0  0  0  0
   -2.2012   -4.6569    3.3920 C   0  0  0  0  0  0  0  0  0  0  0  0
   -1.9482   -0.6482    4.2961 C   0  0  0  0  0  0  0  0  0  0  0  0
   -1.3080    0.4631    3.7962 C   0  0  0  0  0  0  0  0  0  0  0  0
    0.5554    2.5716    2.9977 C   0  0  0  0  0  0  0  0  0  0  0  0
    0.9599    2.4306    4.3246 C   0  0  0  0  0  0  0  0  0  0  0  0
    1.2349    3.5395    5.0985 C   0  0  0  0  0  0  0  0  0  0  0  0
    1.1198    4.8135    4.5563 C   0  0  0  0  0  0  0  0  0  0  0  0
    1.4400    6.3046    5.4415 S   0  0  0  0  0  0  0  0  0  0  0  0
    1.9404    5.7401    7.0922 C   0  0  0  0  0  0  0  0  0  0  0  0
    0.7246    4.9572    3.2268 C   0  0  0  0  0  0  0  0  0  0  0  0
    0.4440    3.8526    2.4556 C   0  0  0  0  0  0  0  0  0  0  0  0
   -0.5766    1.0873   -0.0577 C   0  0  0  0  0  0  0  0  0  0  0  0
   -2.1926    0.4804    0.1080 S   0  0  0  0  0  0  0  0  0  0  0  0
   -2.3478    0.4124   -1.6336 C   0  0  0  0  0  0  0  0  0  0  0  0
   -1.2263    0.8754   -2.2970 C   0  0  0  0  0  0  0  0  0  0  0  0
   -1.1356    0.9923   -3.6746 N   0  0  0  0  0  0  0  0  0  0  0  0
    0.1276    0.9619   -4.2734 C   0  0  0  0  0  0  0  0  0  0  0  0
    1.0849    0.0552   -3.8231 C   0  0  0  0  0  0  0  0  0  0  0  0
    2.3785    0.1034   -4.3009 C   0  0  0  0  0  0  0  0  0  0  0  0
    2.7330    1.0604   -5.2406 C   0  0  0  0  0  0  0  0  0  0  0  0
    4.3909    1.2596   -5.8247 S   0  0  0  0  0  0  0  0  0  0  0  0
    5.3740    0.6158   -4.4363 C   0  0  0  0  0  0  0  0  0  0  0  0
    1.7590    1.9084   -5.7596 C   0  0  0  0  0  0  0  0  0  0  0  0
    0.4666    1.8593   -5.2852 C   0  0  0  0  0  0  0  0  0  0  0  0
   -2.2747    1.4028   -4.3916 C   0  0  0  0  0  0  0  0  0  0  0  0
   -3.0366    2.4775   -3.9436 C   0  0  0  0  0  0  0  0  0  0  0  0
   -4.2134    2.8198   -4.5795 C   0  0  0  0  0  0  0  0  0  0  0  0
   -4.6455    2.0867   -5.6764 C   0  0  0  0  0  0  0  0  0  0  0  0
   -6.1873    2.3686   -6.4893 S   0  0  0  0  0  0  0  0  0  0  0  0
   -6.6460    4.0448   -5.9610 C   0  0  0  0  0  0  0  0  0  0  0  0
   -3.8582    1.0428   -6.1592 C   0  0  0  0  0  0  0  0  0  0  0  0
   -2.6782    0.7087   -5.5309 C   0  0  0  0  0  0  0  0  0  0  0  0
   -0.2171    1.2617   -1.3852 C   0  0  0  0  0  0  0  0  0  0  0  0
    1.3363    1.9946   -1.5671 S   0  0  0  0  0  0  0  0  0  0  0  0
   -3.5123   -0.1154   -2.2960 C   0  0  0  0  0  0  0  0  0  0  0  0
   -3.3708   -1.5731   -3.2142 S   0  0  0  0  0  0  0  0  0  0  0  0
   -5.0080   -1.4242   -3.7910 C   0  0  0  0  0  0  0  0  0  0  0  0
   -5.6207   -0.2828   -3.2653 C   0  0  0  0  0  0  0  0  0  0  0  0
   -6.9765    0.1751   -3.6045 C   0  0  0  0  0  0  0  0  0  0  0  0
   -7.7652   -0.4783   -4.2698 O   0  0  0  0  0  0  0  0  0  0  0  0
   -7.3004    1.4963   -3.0670 C   0  0  0  0  0  0  0  0  0  0  0  0
   -8.4553    2.1783   -3.3629 C   0  0  0  0  0  0  0  0  0  0  0  0
   -9.5767    1.7820   -4.2514 C   0  0  0  0  0  0  0  0  0  0  0  0
  -10.5672    0.8806   -3.5084 C   0  0  0  0  0  0  0  0  0  0  0  0
   -8.5199    3.6844   -2.5097 S   0  0  0  0  0  0  0  0  0  0  0  0
   -6.9832    3.4085   -1.7576 C   0  0  0  0  0  0  0  0  0  0  0  0
   -6.4052    4.4331   -0.8496 C   0  0  0  0  0  0  0  0  0  0  0  0
   -5.4599    5.3693   -1.6086 C   0  0  0  0  0  0  0  0  0  0  0  0
   -6.4470    2.2129   -2.1647 C   0  0  0  0  0  0  0  0  0  0  0  0
   -5.1383    1.7090   -1.7493 C   0  0  0  0  0  0  0  0  0  0  0  0
   -4.3944    2.2972   -0.9832 O   0  0  0  0  0  0  0  0  0  0  0  0
   -4.7770    0.4371   -2.3892 C   0  0  0  0  0  0  0  0  0  0  0  0
   -5.6367   -2.3134   -4.6890 C   0  0  0  0  0  0  0  0  0  0  0  0
   -5.2454   -3.5419   -5.1197 C   0  0  0  0  0  0  0  0  0  0  0  0
   -6.2728   -4.4879   -6.1847 S   0  0  0  0  0  0  0  0  0  0  0  0
   -5.2273   -5.8808   -6.0219 C   0  0  0  0  0  0  0  0  0  0  0  0
   -5.5547   -7.0739   -6.6109 C   0  0  0  0  0  0  0  0  0  0  0  0
   -4.8714   -8.2935   -6.4701 C   0  0  0  0  0  0  0  0  0  0  0  0
   -4.3889   -9.3305   -6.3693 N   0  0  0  0  0  0  0  0  0  0  0  0
   -6.7163   -7.1573   -7.4084 C   0  0  0  0  0  0  0  0  0  0  0  0
   -7.6544   -7.2375   -8.0630 N   0  0  0  0  0  0  0  0  0  0  0  0
   -4.1403   -5.5961   -5.2522 N   0  0  0  0  0  0  0  0  0  0  0  0
   -3.0372   -6.5099   -5.0325 C   0  0  0  0  0  0  0  0  0  0  0  0
   -2.2650   -6.8136   -6.2936 C   0  0  0  0  0  0  0  0  0  0  0  0
   -2.1668   -5.8828   -7.3183 C   0  0  0  0  0  0  0  0  0  0  0  0
   -1.4520   -6.1801   -8.4657 C   0  0  0  0  0  0  0  0  0  0  0  0
   -0.8221   -7.4051   -8.5935 C   0  0  0  0  0  0  0  0  0  0  0  0
   -0.9029   -8.3305   -7.5664 C   0  0  0  0  0  0  0  0  0  0  0  0
   -1.6215   -8.0372   -6.4226 C   0  0  0  0  0  0  0  0  0  0  0  0
   -4.0678   -4.3090   -4.7486 C   0  0  0  0  0  0  0  0  0  0  0  0
   -3.1284   -3.9236   -4.0788 O   0  0  0  0  0  0  0  0  0  0  0  0
    6.7381    1.7072    3.1014 H   0  0  0  0  0  0  0  0  0  0  0  0
    2.8895   -1.7236    6.6445 H   0  0  0  0  0  0  0  0  0  0  0  0
    7.6724   -0.6446    7.9240 H   0  0  0  0  0  0  0  0  0  0  0  0
    6.0759   -2.2426   10.5040 H   0  0  0  0  0  0  0  0  0  0  0  0
    7.6867   -3.9721    9.2767 H   0  0  0  0  0  0  0  0  0  0  0  0
    6.5827   -5.1815   11.3312 H   0  0  0  0  0  0  0  0  0  0  0  0
    4.0720   -5.7711   10.6929 H   0  0  0  0  0  0  0  0  0  0  0  0
    3.6304   -4.9259    8.2450 H   0  0  0  0  0  0  0  0  0  0  0  0
    5.9519   -4.0346    7.2257 H   0  0  0  0  0  0  0  0  0  0  0  0
    6.1547   -5.6564    7.9265 H   0  0  0  0  0  0  0  0  0  0  0  0
    3.6134   -2.8210    9.8786 H   0  0  0  0  0  0  0  0  0  0  0  0
    4.3225    3.5595   -4.0167 H   0  0  0  0  0  0  0  0  0  0  0  0
    4.5192    5.1832   -3.4121 H   0  0  0  0  0  0  0  0  0  0  0  0
    5.0952    5.0778   -5.8205 H   0  0  0  0  0  0  0  0  0  0  0  0
    6.5354    5.4968   -4.8882 H   0  0  0  0  0  0  0  0  0  0  0  0
    6.3211    3.8540   -5.5041 H   0  0  0  0  0  0  0  0  0  0  0  0
    9.9905    3.7451   -1.2229 H   0  0  0  0  0  0  0  0  0  0  0  0
    9.3106    3.0722    0.2806 H   0  0  0  0  0  0  0  0  0  0  0  0
   10.8322    1.4534   -0.8367 H   0  0  0  0  0  0  0  0  0  0  0  0
    9.7980    1.4620   -2.2713 H   0  0  0  0  0  0  0  0  0  0  0  0
    9.1815    0.8394   -0.7311 H   0  0  0  0  0  0  0  0  0  0  0  0
    0.6321   -1.0504    1.4793 H   0  0  0  0  0  0  0  0  0  0  0  0
   -0.5089   -3.0194    2.3486 H   0  0  0  0  0  0  0  0  0  0  0  0
   -1.1556   -4.9394    3.4739 H   0  0  0  0  0  0  0  0  0  0  0  0
   -2.8290   -5.4736    3.7346 H   0  0  0  0  0  0  0  0  0  0  0  0
   -2.4612   -4.3925    2.3713 H   0  0  0  0  0  0  0  0  0  0  0  0
   -2.6755   -0.5486    5.0873 H   0  0  0  0  0  0  0  0  0  0  0  0
   -1.5387    1.4418    4.1881 H   0  0  0  0  0  0  0  0  0  0  0  0
    1.0842    1.4417    4.7370 H   0  0  0  0  0  0  0  0  0  0  0  0
    1.5501    3.3936    6.1189 H   0  0  0  0  0  0  0  0  0  0  0  0
    2.8391    5.1344    7.0211 H   0  0  0  0  0  0  0  0  0  0  0  0
    1.1283    5.1916    7.5607 H   0  0  0  0  0  0  0  0  0  0  0  0
    2.1492    6.6430    7.6577 H   0  0  0  0  0  0  0  0  0  0  0  0
    0.6336    5.9491    2.8115 H   0  0  0  0  0  0  0  0  0  0  0  0
    0.1271    3.9779    1.4313 H   0  0  0  0  0  0  0  0  0  0  0  0
    0.8127   -0.6826   -3.0831 H   0  0  0  0  0  0  0  0  0  0  0  0
    3.1030   -0.6033   -3.9286 H   0  0  0  0  0  0  0  0  0  0  0  0
    6.3795    1.0013   -4.5743 H   0  0  0  0  0  0  0  0  0  0  0  0
    4.9576    0.9823   -3.5028 H   0  0  0  0  0  0  0  0  0  0  0  0
    5.3948   -0.4702   -4.4560 H   0  0  0  0  0  0  0  0  0  0  0  0
    2.0354    2.6266   -6.5161 H   0  0  0  0  0  0  0  0  0  0  0  0
   -0.2783    2.5423   -5.6656 H   0  0  0  0  0  0  0  0  0  0  0  0
   -2.7131    3.0306   -3.0744 H   0  0  0  0  0  0  0  0  0  0  0  0
   -4.7885    3.6516   -4.2064 H   0  0  0  0  0  0  0  0  0  0  0  0
   -6.9257    4.0511   -4.9118 H   0  0  0  0  0  0  0  0  0  0  0  0
   -7.5028    4.3186   -6.5685 H   0  0  0  0  0  0  0  0  0  0  0  0
   -5.8216    4.7247   -6.1530 H   0  0  0  0  0  0  0  0  0  0  0  0
   -4.1937    0.4910   -7.0238 H   0  0  0  0  0  0  0  0  0  0  0  0
   -2.0701   -0.1037   -5.8996 H   0  0  0  0  0  0  0  0  0  0  0  0
   -9.1725    1.2321   -5.1037 H   0  0  0  0  0  0  0  0  0  0  0  0
  -10.0915    2.6760   -4.6093 H   0  0  0  0  0  0  0  0  0  0  0  0
  -10.9540    1.3825   -2.6237 H   0  0  0  0  0  0  0  0  0  0  0  0
  -11.3983    0.6312   -4.1617 H   0  0  0  0  0  0  0  0  0  0  0  0
  -10.0740   -0.0398   -3.2084 H   0  0  0  0  0  0  0  0  0  0  0  0
   -5.8397    3.9283   -0.0644 H   0  0  0  0  0  0  0  0  0  0  0  0
   -7.2114    5.0149   -0.3985 H   0  0  0  0  0  0  0  0  0  0  0  0
   -4.6075    4.8089   -1.9830 H   0  0  0  0  0  0  0  0  0  0  0  0
   -5.9740    5.8429   -2.4435 H   0  0  0  0  0  0  0  0  0  0  0  0
   -5.0948    6.1444   -0.9408 H   0  0  0  0  0  0  0  0  0  0  0  0
   -6.6038   -1.9635   -5.0366 H   0  0  0  0  0  0  0  0  0  0  0  0
   -3.4087   -7.4344   -4.5819 H   0  0  0  0  0  0  0  0  0  0  0  0
   -2.3833   -6.0040   -4.3110 H   0  0  0  0  0  0  0  0  0  0  0  0
   -2.6452   -4.9171   -7.2266 H   0  0  0  0  0  0  0  0  0  0  0  0
   -1.3894   -5.4511   -9.2598 H   0  0  0  0  0  0  0  0  0  0  0  0
   -0.2697   -7.6381   -9.4912 H   0  0  0  0  0  0  0  0  0  0  0  0
   -0.4130   -9.2876   -7.6589 H   0  0  0  0  0  0  0  0  0  0  0  0
   -1.6968   -8.7660   -5.6300 H   0  0  0  0  0  0  0  0  0  0  0  0
  1  2  2  0  0  0  0
  2  3  1  0  0  0  0
  3  4  2  0  0  0  0
  3  5  1  0  0  0  0
  5  6  2  0  0  0  0
  6  7  1  0  0  0  0
  7  8  2  0  0  0  0
  8  9  1  0  0  0  0
  9 10  2  0  0  0  0
 10 11  1  0  0  0  0
 11 12  2  0  0  0  0
 12 13  1  0  0  0  0
 13 14  3  0  0  0  0
 12 15  1  0  0  0  0
 15 16  3  0  0  0  0
  8 17  1  0  0  0  0
 17 18  1  0  0  0  0
 18 19  1  0  0  0  0
 19 20  2  0  0  0  0
 20 21  1  0  0  0  0
 21 22  1  0  0  0  0
 21 23  1  0  0  0  0
  1 24  1  0  0  0  0
 24 25  1  0  0  0  0
 25 26  1  0  0  0  0
 26 27  2  0  0  0  0
 27 28  1  0  0  0  0
 28 29  2  0  0  0  0
 28 30  1  0  0  0  0
 30 31  2  0  0  0  0
 31 32  1  0  0  0  0
 32 33  1  0  0  0  0
 31 34  1  0  0  0  0
 34 35  1  0  0  0  0
 35 36  1  0  0  0  0
 36 37  1  0  0  0  0
 35 38  2  0  0  0  0
 38 39  1  0  0  0  0
 39 40  2  0  0  0  0
 39 41  1  0  0  0  0
 26 42  1  0  0  0  0
 42 43  2  0  0  0  0
 43 44  1  0  0  0  0
 44 45  1  0  0  0  0
 45 46  2  0  0  0  0
 46 47  1  0  0  0  0
 47 48  2  0  0  0  0
 48 49  1  0  0  0  0
 49 50  1  0  0  0  0
 48 51  1  0  0  0  0
 51 52  2  0  0  0  0
 44 53  1  0  0  0  0
 53 54  2  0  0  0  0
 54 55  1  0  0  0  0
 55 56  2  0  0  0  0
 56 57  1  0  0  0  0
 57 58  1  0  0  0  0
 56 59  1  0  0  0  0
 59 60  2  0  0  0  0
 43 61  1  0  0  0  0
 61 62  1  0  0  0  0
 62 63  1  0  0  0  0
 63 64  2  0  0  0  0
 64 65  1  0  0  0  0
 65 66  1  0  0  0  0
 66 67  2  0  0  0  0
 67 68  1  0  0  0  0
 68 69  2  0  0  0  0
 69 70  1  0  0  0  0
 70 71  1  0  0  0  0
 69 72  1  0  0  0  0
 72 73  2  0  0  0  0
 65 74  1  0  0  0  0
 74 75  2  0  0  0  0
 75 76  1  0  0  0  0
 76 77  2  0  0  0  0
 77 78  1  0  0  0  0
 78 79  1  0  0  0  0
 77 80  1  0  0  0  0
 80 81  2  0  0  0  0
 64 82  1  0  0  0  0
 82 83  1  0  0  0  0
 63 84  1  0  0  0  0
 84 85  1  0  0  0  0
 85 86  1  0  0  0  0
 86 87  2  0  0  0  0
 87 88  1  0  0  0  0
 88 89  2  0  0  0  0
 88 90  1  0  0  0  0
 90 91  2  0  0  0  0
 91 92  1  0  0  0  0
 92 93  1  0  0  0  0
 91 94  1  0  0  0  0
 94 95  1  0  0  0  0
 95 96  1  0  0  0  0
 96 97  1  0  0  0  0
 95 98  2  0  0  0  0
 98 99  1  0  0  0  0
 99100  2  0  0  0  0
 99101  1  0  0  0  0
 86102  1  0  0  0  0
102103  2  0  0  0  0
103104  1  0  0  0  0
104105  1  0  0  0  0
105106  2  0  0  0  0
106107  1  0  0  0  0
107108  3  0  0  0  0
106109  1  0  0  0  0
109110  3  0  0  0  0
105111  1  0  0  0  0
111112  1  0  0  0  0
112113  1  0  0  0  0
113114  2  0  0  0  0
114115  1  0  0  0  0
115116  2  0  0  0  0
116117  1  0  0  0  0
117118  2  0  0  0  0
111119  1  0  0  0  0
119120  2  0  0  0  0
 11  2  1  0  0  0  0
 23 17  1  0  0  0  0
 41 24  2  0  0  0  0
 83 42  1  0  0  0  0
101 84  2  0  0  0  0
119103  1  0  0  0  0
 10  5  1  0  0  0  0
 22 18  1  0  0  0  0
 41 27  1  0  0  0  0
 52 45  1  0  0  0  0
 60 53  1  0  0  0  0
 82 61  2  0  0  0  0
101 87  1  0  0  0  0
118113  1  0  0  0  0
 23  7  1  0  0  0  0
 38 30  1  0  0  0  0
 73 66  1  0  0  0  0
 81 74  1  0  0  0  0
 98 90  1  0  0  0  0
  1121  1  0  0  0  0
  6122  1  0  0  0  0
  9123  1  0  0  0  0
 17124  1  0  0  0  0
 18125  1  0  0  0  0
 19126  1  0  0  0  0
 20127  1  0  0  0  0
 21128  1  0  0  0  0
 22129  1  0  0  0  0
 22130  1  0  0  0  0
 23131  1  0  0  0  0
 32132  1  0  0  0  0
 32133  1  0  0  0  0
 33134  1  0  0  0  0
 33135  1  0  0  0  0
 33136  1  0  0  0  0
 36137  1  0  0  0  0
 36138  1  0  0  0  0
 37139  1  0  0  0  0
 37140  1  0  0  0  0
 37141  1  0  0  0  0
 46142  1  0  0  0  0
 47143  1  0  0  0  0
 50144  1  0  0  0  0
 50145  1  0  0  0  0
 50146  1  0  0  0  0
 51147  1  0  0  0  0
 52148  1  0  0  0  0
 54149  1  0  0  0  0
 55150  1  0  0  0  0
 58151  1  0  0  0  0
 58152  1  0  0  0  0
 58153  1  0  0  0  0
 59154  1  0  0  0  0
 60155  1  0  0  0  0
 67156  1  0  0  0  0
 68157  1  0  0  0  0
 71158  1  0  0  0  0
 71159  1  0  0  0  0
 71160  1  0  0  0  0
 72161  1  0  0  0  0
 73162  1  0  0  0  0
 75163  1  0  0  0  0
 76164  1  0  0  0  0
 79165  1  0  0  0  0
 79166  1  0  0  0  0
 79167  1  0  0  0  0
 80168  1  0  0  0  0
 81169  1  0  0  0  0
 92170  1  0  0  0  0
 92171  1  0  0  0  0
 93172  1  0  0  0  0
 93173  1  0  0  0  0
 93174  1  0  0  0  0
 96175  1  0  0  0  0
 96176  1  0  0  0  0
 97177  1  0  0  0  0
 97178  1  0  0  0  0
 97179  1  0  0  0  0
102180  1  0  0  0  0
112181  1  0  0  0  0
112182  1  0  0  0  0
114183  1  0  0  0  0
115184  1  0  0  0  0
116185  1  0  0  0  0
117186  1  0  0  0  0
118187  1  0  0  0  0
M  END
