
  xtb     02092215163D
 energy: -385.710709277028 gnorm: 0.000711010171 xtb: 6.4.1 (unknown)
222247  0     0  0            999 V2000
   10.5844   -2.8472   -1.8896 C   0  0  0  0  0  0  0  0  0  0  0  0
   11.3400   -3.7799   -1.2436 C   0  0  0  0  0  0  0  0  0  0  0  0
   11.3077   -4.1486    0.1916 C   0  0  0  0  0  0  0  0  0  0  0  0
   10.6179   -3.6825    1.0751 O   0  0  0  0  0  0  0  0  0  0  0  0
   12.3155   -5.2102    0.3581 C   0  0  0  0  0  0  0  0  0  0  0  0
   12.6278   -5.8777    1.5411 C   0  0  0  0  0  0  0  0  0  0  0  0
   13.6047   -6.8335    1.4029 C   0  0  0  0  0  0  0  0  0  0  0  0
   14.2333   -7.0991    0.1784 C   0  0  0  0  0  0  0  0  0  0  0  0
   13.9397   -6.4439   -0.9933 C   0  0  0  0  0  0  0  0  0  0  0  0
   12.9388   -5.4728   -0.8780 C   0  0  0  0  0  0  0  0  0  0  0  0
   12.3466   -4.6059   -1.8930 C   0  0  0  0  0  0  0  0  0  0  0  0
   12.6697   -4.6182   -3.2260 C   0  0  0  0  0  0  0  0  0  0  0  0
   13.6561   -5.4487   -3.8005 C   0  0  0  0  0  0  0  0  0  0  0  0
   14.4398   -6.0873   -4.3455 N   0  0  0  0  0  0  0  0  0  0  0  0
   12.0796   -3.8406   -4.2458 C   0  0  0  0  0  0  0  0  0  0  0  0
   11.6632   -3.2710   -5.1533 N   0  0  0  0  0  0  0  0  0  0  0  0
   15.1003   -8.1836    0.7675 C   0  0  0  0  0  0  0  0  0  0  0  0
   14.6755   -9.6379    0.4720 C   0  0  0  0  0  0  0  0  0  0  0  0
   15.3837  -10.4448    1.5362 C   0  0  0  0  0  0  0  0  0  0  0  0
   14.7885  -10.1943    2.6954 C   0  0  0  0  0  0  0  0  0  0  0  0
   13.6678   -9.2140    2.4342 C   0  0  0  0  0  0  0  0  0  0  0  0
   13.2463   -9.6640    1.0293 C   0  0  0  0  0  0  0  0  0  0  0  0
   14.3988   -7.8882    2.1321 C   0  0  0  0  0  0  0  0  0  0  0  0
    9.5150   -2.0399   -1.4441 C   0  0  0  0  0  0  0  0  0  0  0  0
    8.8298   -1.8684   -0.2587 C   0  0  0  0  0  0  0  0  0  0  0  0
    7.7573   -0.9900   -0.5196 C   0  0  0  0  0  0  0  0  0  0  0  0
    6.6658   -0.5010    0.2374 C   0  0  0  0  0  0  0  0  0  0  0  0
    6.4279   -0.7444    1.6307 C   0  0  0  0  0  0  0  0  0  0  0  0
    7.1318   -1.5104    2.5279 C   0  0  0  0  0  0  0  0  0  0  0  0
    6.5403   -1.5145    3.7997 C   0  0  0  0  0  0  0  0  0  0  0  0
    7.0577   -2.2126    4.8278 F   0  0  0  0  0  0  0  0  0  0  0  0
    5.4055   -0.7625    3.9243 C   0  0  0  0  0  0  0  0  0  0  0  0
    4.5127   -0.6370    5.1103 C   0  0  0  0  0  0  0  0  0  0  0  0
    3.5300   -1.8101    5.1742 C   0  0  0  0  0  0  0  0  0  0  0  0
    5.0428   -0.0168    2.4122 S   0  0  0  0  0  0  0  0  0  0  0  0
    5.7472    0.2123   -0.5312 C   0  0  0  0  0  0  0  0  0  0  0  0
    5.8652    0.5412   -1.9058 C   0  0  0  0  0  0  0  0  0  0  0  0
    6.9984    0.1308   -2.6389 C   0  0  0  0  0  0  0  0  0  0  0  0
    7.2537    0.4079   -4.0254 C   0  0  0  0  0  0  0  0  0  0  0  0
    8.5262   -0.4507   -4.8613 S   0  0  0  0  0  0  0  0  0  0  0  0
    8.2122    0.3751   -6.3425 C   0  0  0  0  0  0  0  0  0  0  0  0
    9.0081    0.1206   -7.5759 C   0  0  0  0  0  0  0  0  0  0  0  0
    9.3865   -1.3497   -7.7268 C   0  0  0  0  0  0  0  0  0  0  0  0
    7.1909    1.2641   -6.1609 C   0  0  0  0  0  0  0  0  0  0  0  0
    6.6399    1.2985   -4.8699 C   0  0  0  0  0  0  0  0  0  0  0  0
    6.7343    2.0556   -7.1519 F   0  0  0  0  0  0  0  0  0  0  0  0
    7.8756   -0.6640   -1.8983 C   0  0  0  0  0  0  0  0  0  0  0  0
    8.9419   -1.2808   -2.4294 O   0  0  0  0  0  0  0  0  0  0  0  0
    4.6272    1.1452   -2.2490 C   0  0  0  0  0  0  0  0  0  0  0  0
    3.8484    1.1113   -1.1225 C   0  0  0  0  0  0  0  0  0  0  0  0
    4.5413    0.6018   -0.0688 O   0  0  0  0  0  0  0  0  0  0  0  0
    2.4591    1.3635   -0.9068 C   0  0  0  0  0  0  0  0  0  0  0  0
    1.6269    0.6270   -0.0686 C   0  0  0  0  0  0  0  0  0  0  0  0
    1.9323   -0.5985    0.4867 N   0  0  0  0  0  0  0  0  0  0  0  0
    1.2573   -1.0425    1.6353 C   0  0  0  0  0  0  0  0  0  0  0  0
    0.8110   -2.3601    1.7016 C   0  0  0  0  0  0  0  0  0  0  0  0
    0.1748   -2.8334    2.8298 C   0  0  0  0  0  0  0  0  0  0  0  0
   -0.0319   -1.9917    3.9156 C   0  0  0  0  0  0  0  0  0  0  0  0
   -0.8126   -2.5205    5.4059 S   0  0  0  0  0  0  0  0  0  0  0  0
   -0.7006   -4.3332    5.3201 C   0  0  0  0  0  0  0  0  0  0  0  0
    0.3908   -0.6660    3.8458 C   0  0  0  0  0  0  0  0  0  0  0  0
    1.0349   -0.1953    2.7203 C   0  0  0  0  0  0  0  0  0  0  0  0
    2.8402   -1.4716   -0.1366 C   0  0  0  0  0  0  0  0  0  0  0  0
    3.6704   -2.2880    0.6340 C   0  0  0  0  0  0  0  0  0  0  0  0
    4.6646   -3.0316    0.0405 C   0  0  0  0  0  0  0  0  0  0  0  0
    4.8512   -2.9921   -1.3400 C   0  0  0  0  0  0  0  0  0  0  0  0
    6.2435   -3.8685   -1.9775 S   0  0  0  0  0  0  0  0  0  0  0  0
    6.3134   -3.3643   -3.7196 C   0  0  0  0  0  0  0  0  0  0  0  0
    3.9550   -2.2759   -2.1211 C   0  0  0  0  0  0  0  0  0  0  0  0
    2.9562   -1.5313   -1.5238 C   0  0  0  0  0  0  0  0  0  0  0  0
    0.3466    1.2338   -0.0007 C   0  0  0  0  0  0  0  0  0  0  0  0
   -1.0834    0.9166    0.9090 S   0  0  0  0  0  0  0  0  0  0  0  0
   -1.9240    2.2208    0.0774 C   0  0  0  0  0  0  0  0  0  0  0  0
   -1.1429    2.8280   -0.9006 C   0  0  0  0  0  0  0  0  0  0  0  0
   -1.5526    3.7766   -1.8192 N   0  0  0  0  0  0  0  0  0  0  0  0
   -0.6362    4.7663   -2.2092 C   0  0  0  0  0  0  0  0  0  0  0  0
    0.1743    5.3753   -1.2556 C   0  0  0  0  0  0  0  0  0  0  0  0
    1.1009    6.3319   -1.6222 C   0  0  0  0  0  0  0  0  0  0  0  0
    1.2266    6.7004   -2.9545 C   0  0  0  0  0  0  0  0  0  0  0  0
    2.3707    7.9046   -3.5470 S   0  0  0  0  0  0  0  0  0  0  0  0
    3.3777    8.3048   -2.0903 C   0  0  0  0  0  0  0  0  0  0  0  0
    0.4047    6.1036   -3.9103 C   0  0  0  0  0  0  0  0  0  0  0  0
   -0.5133    5.1457   -3.5461 C   0  0  0  0  0  0  0  0  0  0  0  0
   -2.7960    3.6669   -2.4539 C   0  0  0  0  0  0  0  0  0  0  0  0
   -3.3830    2.4202   -2.6632 C   0  0  0  0  0  0  0  0  0  0  0  0
   -4.6648    2.3188   -3.1674 C   0  0  0  0  0  0  0  0  0  0  0  0
   -5.3824    3.4647   -3.4837 C   0  0  0  0  0  0  0  0  0  0  0  0
   -7.0573    3.4335   -4.0425 S   0  0  0  0  0  0  0  0  0  0  0  0
   -7.6892    1.8821   -3.3407 C   0  0  0  0  0  0  0  0  0  0  0  0
   -4.7690    4.7103   -3.3562 C   0  0  0  0  0  0  0  0  0  0  0  0
   -3.4938    4.8133   -2.8444 C   0  0  0  0  0  0  0  0  0  0  0  0
    0.1740    2.2983   -0.8721 C   0  0  0  0  0  0  0  0  0  0  0  0
    1.6268    2.6586   -1.7436 S   0  0  0  0  0  0  0  0  0  0  0  0
   -3.2548    2.4229    0.5408 C   0  0  0  0  0  0  0  0  0  0  0  0
   -4.3505    3.1321    0.1153 C   0  0  0  0  0  0  0  0  0  0  0  0
   -5.4296    2.7578    0.9534 C   0  0  0  0  0  0  0  0  0  0  0  0
   -6.8162    3.0126    0.9159 C   0  0  0  0  0  0  0  0  0  0  0  0
   -7.4491    3.9238    0.0031 C   0  0  0  0  0  0  0  0  0  0  0  0
   -6.9101    4.9598   -0.7142 C   0  0  0  0  0  0  0  0  0  0  0  0
   -7.8659    5.5954   -1.5260 C   0  0  0  0  0  0  0  0  0  0  0  0
   -7.5455    6.6366   -2.3153 F   0  0  0  0  0  0  0  0  0  0  0  0
   -9.1282    5.0833   -1.4580 C   0  0  0  0  0  0  0  0  0  0  0  0
  -10.3460    5.4855   -2.2127 C   0  0  0  0  0  0  0  0  0  0  0  0
  -11.4414    6.0153   -1.2870 C   0  0  0  0  0  0  0  0  0  0  0  0
   -9.1574    3.7887   -0.3137 S   0  0  0  0  0  0  0  0  0  0  0  0
   -7.5434    2.2393    1.8187 C   0  0  0  0  0  0  0  0  0  0  0  0
   -6.9821    1.4046    2.8213 C   0  0  0  0  0  0  0  0  0  0  0  0
   -5.5839    1.2427    2.9315 C   0  0  0  0  0  0  0  0  0  0  0  0
   -4.8940    0.5685    3.9971 C   0  0  0  0  0  0  0  0  0  0  0  0
   -5.6489   -0.5885    5.0570 S   0  0  0  0  0  0  0  0  0  0  0  0
   -4.2217   -0.7555    6.0207 C   0  0  0  0  0  0  0  0  0  0  0  0
   -4.1465   -1.6808    7.1839 C   0  0  0  0  0  0  0  0  0  0  0  0
   -4.3804   -3.1306    6.7603 C   0  0  0  0  0  0  0  0  0  0  0  0
   -3.2432    0.0548    5.5210 C   0  0  0  0  0  0  0  0  0  0  0  0
   -3.5955    0.7922    4.3808 C   0  0  0  0  0  0  0  0  0  0  0  0
   -2.0359    0.1815    6.0994 F   0  0  0  0  0  0  0  0  0  0  0  0
   -4.8761    1.8689    1.9072 C   0  0  0  0  0  0  0  0  0  0  0  0
   -3.5629    1.6910    1.6520 O   0  0  0  0  0  0  0  0  0  0  0  0
   -8.0901    0.8689    3.5155 C   0  0  0  0  0  0  0  0  0  0  0  0
   -9.2215    1.3398    2.8873 C   0  0  0  0  0  0  0  0  0  0  0  0
   -8.8898    2.1927    1.8750 O   0  0  0  0  0  0  0  0  0  0  0  0
  -10.5842    1.0592    3.1652 C   0  0  0  0  0  0  0  0  0  0  0  0
  -11.6552    1.2833    2.3610 C   0  0  0  0  0  0  0  0  0  0  0  0
  -13.0274    1.3491    2.9394 C   0  0  0  0  0  0  0  0  0  0  0  0
  -13.3717    0.9581    4.0311 O   0  0  0  0  0  0  0  0  0  0  0  0
  -13.8406    2.0440    1.9230 C   0  0  0  0  0  0  0  0  0  0  0  0
  -15.1612    2.4713    2.0460 C   0  0  0  0  0  0  0  0  0  0  0  0
  -15.6429    3.1291    0.9399 C   0  0  0  0  0  0  0  0  0  0  0  0
  -14.8704    3.3522   -0.2087 C   0  0  0  0  0  0  0  0  0  0  0  0
  -13.5737    2.9199   -0.3530 C   0  0  0  0  0  0  0  0  0  0  0  0
  -13.0659    2.2472    0.7606 C   0  0  0  0  0  0  0  0  0  0  0  0
  -11.7578    1.6303    0.9588 C   0  0  0  0  0  0  0  0  0  0  0  0
  -10.9126    1.2264   -0.0390 C   0  0  0  0  0  0  0  0  0  0  0  0
   -9.7906    0.3957    0.1649 C   0  0  0  0  0  0  0  0  0  0  0  0
   -8.9012   -0.3242    0.2574 N   0  0  0  0  0  0  0  0  0  0  0  0
  -11.0884    1.5268   -1.4041 C   0  0  0  0  0  0  0  0  0  0  0  0
  -11.1496    1.7526   -2.5289 N   0  0  0  0  0  0  0  0  0  0  0  0
  -15.9808    4.0940   -0.9082 C   0  0  0  0  0  0  0  0  0  0  0  0
  -15.8995    5.6404   -0.9551 C   0  0  0  0  0  0  0  0  0  0  0  0
  -15.0993    6.0696    0.2498 C   0  0  0  0  0  0  0  0  0  0  0  0
  -15.8403    5.8489    1.3275 C   0  0  0  0  0  0  0  0  0  0  0  0
  -17.1543    5.2650    0.8711 C   0  0  0  0  0  0  0  0  0  0  0  0
  -17.3181    5.9877   -0.4756 C   0  0  0  0  0  0  0  0  0  0  0  0
  -16.8463    3.8343    0.3650 C   0  0  0  0  0  0  0  0  0  0  0  0
   10.7776   -2.6919   -2.9439 H   0  0  0  0  0  0  0  0  0  0  0  0
   12.1209   -5.6359    2.4621 H   0  0  0  0  0  0  0  0  0  0  0  0
   14.4384   -6.6590   -1.9231 H   0  0  0  0  0  0  0  0  0  0  0  0
   16.1746   -8.0294    0.6887 H   0  0  0  0  0  0  0  0  0  0  0  0
   14.8181   -9.9528   -0.5580 H   0  0  0  0  0  0  0  0  0  0  0  0
   16.2506  -11.0515    1.3513 H   0  0  0  0  0  0  0  0  0  0  0  0
   15.0591  -10.5500    3.6722 H   0  0  0  0  0  0  0  0  0  0  0  0
   12.8922   -9.1440    3.1921 H   0  0  0  0  0  0  0  0  0  0  0  0
   12.8230  -10.6671    1.0286 H   0  0  0  0  0  0  0  0  0  0  0  0
   12.5620   -8.9803    0.5305 H   0  0  0  0  0  0  0  0  0  0  0  0
   15.0049   -7.5370    2.9651 H   0  0  0  0  0  0  0  0  0  0  0  0
    9.0920   -2.3557    0.6544 H   0  0  0  0  0  0  0  0  0  0  0  0
    8.0251   -2.0611    2.3115 H   0  0  0  0  0  0  0  0  0  0  0  0
    5.1215   -0.6274    6.0173 H   0  0  0  0  0  0  0  0  0  0  0  0
    3.9571    0.2998    5.0494 H   0  0  0  0  0  0  0  0  0  0  0  0
    4.0702   -2.7493    5.2695 H   0  0  0  0  0  0  0  0  0  0  0  0
    2.9221   -1.8437    4.2725 H   0  0  0  0  0  0  0  0  0  0  0  0
    2.8692   -1.6987    6.0297 H   0  0  0  0  0  0  0  0  0  0  0  0
    9.9221    0.7233   -7.5409 H   0  0  0  0  0  0  0  0  0  0  0  0
    8.4260    0.4578   -8.4376 H   0  0  0  0  0  0  0  0  0  0  0  0
    9.9976   -1.6755   -6.8881 H   0  0  0  0  0  0  0  0  0  0  0  0
    8.4940   -1.9704   -7.7662 H   0  0  0  0  0  0  0  0  0  0  0  0
    9.9520   -1.4975   -8.6431 H   0  0  0  0  0  0  0  0  0  0  0  0
    5.8552    1.9744   -4.5922 H   0  0  0  0  0  0  0  0  0  0  0  0
    4.3026    1.4905   -3.2075 H   0  0  0  0  0  0  0  0  0  0  0  0
    0.9663   -3.0176    0.8590 H   0  0  0  0  0  0  0  0  0  0  0  0
   -0.1630   -3.8569    2.8462 H   0  0  0  0  0  0  0  0  0  0  0  0
   -0.9768   -4.6908    6.3073 H   0  0  0  0  0  0  0  0  0  0  0  0
    0.3202   -4.6249    5.0933 H   0  0  0  0  0  0  0  0  0  0  0  0
   -1.3949   -4.7258    4.5823 H   0  0  0  0  0  0  0  0  0  0  0  0
    0.2228   -0.0184    4.6918 H   0  0  0  0  0  0  0  0  0  0  0  0
    1.3943    0.8220    2.6847 H   0  0  0  0  0  0  0  0  0  0  0  0
    3.5511   -2.3118    1.7057 H   0  0  0  0  0  0  0  0  0  0  0  0
    5.3308   -3.6296    0.6429 H   0  0  0  0  0  0  0  0  0  0  0  0
    5.4932   -3.8125   -4.2731 H   0  0  0  0  0  0  0  0  0  0  0  0
    7.2606   -3.7374   -4.0969 H   0  0  0  0  0  0  0  0  0  0  0  0
    6.2919   -2.2810   -3.7882 H   0  0  0  0  0  0  0  0  0  0  0  0
    4.0258   -2.2803   -3.1967 H   0  0  0  0  0  0  0  0  0  0  0  0
    2.2691   -0.9778   -2.1463 H   0  0  0  0  0  0  0  0  0  0  0  0
    0.0738    5.0987   -0.2162 H   0  0  0  0  0  0  0  0  0  0  0  0
    1.7108    6.7842   -0.8573 H   0  0  0  0  0  0  0  0  0  0  0  0
    2.7713    8.8042   -1.3401 H   0  0  0  0  0  0  0  0  0  0  0  0
    3.8310    7.4000   -1.6964 H   0  0  0  0  0  0  0  0  0  0  0  0
    4.1496    8.9800   -2.4463 H   0  0  0  0  0  0  0  0  0  0  0  0
    0.5068    6.3952   -4.9441 H   0  0  0  0  0  0  0  0  0  0  0  0
   -1.1345    4.6771   -4.2942 H   0  0  0  0  0  0  0  0  0  0  0  0
   -2.8376    1.5227   -2.4143 H   0  0  0  0  0  0  0  0  0  0  0  0
   -5.0983    1.3414   -3.3051 H   0  0  0  0  0  0  0  0  0  0  0  0
   -8.7727    1.9532   -3.3805 H   0  0  0  0  0  0  0  0  0  0  0  0
   -7.3579    1.0336   -3.9320 H   0  0  0  0  0  0  0  0  0  0  0  0
   -7.3615    1.7908   -2.3089 H   0  0  0  0  0  0  0  0  0  0  0  0
   -5.3184    5.5969   -3.6319 H   0  0  0  0  0  0  0  0  0  0  0  0
   -3.0431    5.7851   -2.7091 H   0  0  0  0  0  0  0  0  0  0  0  0
   -4.3956    3.8009   -0.7117 H   0  0  0  0  0  0  0  0  0  0  0  0
   -5.8898    5.2845   -0.6575 H   0  0  0  0  0  0  0  0  0  0  0  0
  -10.0647    6.2508   -2.9386 H   0  0  0  0  0  0  0  0  0  0  0  0
  -10.7248    4.6170   -2.7594 H   0  0  0  0  0  0  0  0  0  0  0  0
  -11.7013    5.2651   -0.5420 H   0  0  0  0  0  0  0  0  0  0  0  0
  -12.3303    6.2591   -1.8634 H   0  0  0  0  0  0  0  0  0  0  0  0
  -11.1028    6.9118   -0.7716 H   0  0  0  0  0  0  0  0  0  0  0  0
   -3.1549   -1.5807    7.6300 H   0  0  0  0  0  0  0  0  0  0  0  0
   -4.8941   -1.3975    7.9301 H   0  0  0  0  0  0  0  0  0  0  0  0
   -4.3040   -3.7894    7.6213 H   0  0  0  0  0  0  0  0  0  0  0  0
   -3.6366   -3.4277    6.0256 H   0  0  0  0  0  0  0  0  0  0  0  0
   -5.3691   -3.2418    6.3207 H   0  0  0  0  0  0  0  0  0  0  0  0
   -2.9227    1.4682    3.8899 H   0  0  0  0  0  0  0  0  0  0  0  0
   -8.0741    0.1862    4.3396 H   0  0  0  0  0  0  0  0  0  0  0  0
  -10.7964    0.6892    4.1612 H   0  0  0  0  0  0  0  0  0  0  0  0
  -15.7237    2.2823    2.9468 H   0  0  0  0  0  0  0  0  0  0  0  0
  -12.9872    3.0896   -1.2410 H   0  0  0  0  0  0  0  0  0  0  0  0
  -16.3183    3.6691   -1.8514 H   0  0  0  0  0  0  0  0  0  0  0  0
  -15.5818    6.0458   -1.9121 H   0  0  0  0  0  0  0  0  0  0  0  0
  -14.0877    6.4271    0.2014 H   0  0  0  0  0  0  0  0  0  0  0  0
  -15.5704    5.9841    2.3585 H   0  0  0  0  0  0  0  0  0  0  0  0
  -17.9789    5.3276    1.5763 H   0  0  0  0  0  0  0  0  0  0  0  0
  -18.1033    5.5663   -1.1016 H   0  0  0  0  0  0  0  0  0  0  0  0
  -17.4736    7.0595   -0.3619 H   0  0  0  0  0  0  0  0  0  0  0  0
  -17.7443    3.2297    0.2542 H   0  0  0  0  0  0  0  0  0  0  0  0
  1  2  2  0  0  0  0
  2  3  1  0  0  0  0
  3  4  2  0  0  0  0
  3  5  1  0  0  0  0
  5  6  2  0  0  0  0
  6  7  1  0  0  0  0
  7  8  2  0  0  0  0
  8  9  1  0  0  0  0
  9 10  2  0  0  0  0
 10 11  1  0  0  0  0
 11 12  2  0  0  0  0
 12 13  1  0  0  0  0
 13 14  3  0  0  0  0
 12 15  1  0  0  0  0
 15 16  3  0  0  0  0
  8 17  1  0  0  0  0
 17 18  1  0  0  0  0
 18 19  1  0  0  0  0
 19 20  2  0  0  0  0
 20 21  1  0  0  0  0
 21 22  1  0  0  0  0
 21 23  1  0  0  0  0
  1 24  1  0  0  0  0
 24 25  2  0  0  0  0
 25 26  1  0  0  0  0
 26 27  2  0  0  0  0
 27 28  1  0  0  0  0
 28 29  2  0  0  0  0
 29 30  1  0  0  0  0
 30 31  1  0  0  0  0
 30 32  2  0  0  0  0
 32 33  1  0  0  0  0
 33 34  1  0  0  0  0
 32 35  1  0  0  0  0
 27 36  1  0  0  0  0
 36 37  2  0  0  0  0
 37 38  1  0  0  0  0
 38 39  1  0  0  0  0
 39 40  1  0  0  0  0
 40 41  1  0  0  0  0
 41 42  1  0  0  0  0
 42 43  1  0  0  0  0
 41 44  2  0  0  0  0
 44 45  1  0  0  0  0
 44 46  1  0  0  0  0
 38 47  2  0  0  0  0
 47 48  1  0  0  0  0
 37 49  1  0  0  0  0
 49 50  2  0  0  0  0
 50 51  1  0  0  0  0
 50 52  1  0  0  0  0
 52 53  2  0  0  0  0
 53 54  1  0  0  0  0
 54 55  1  0  0  0  0
 55 56  2  0  0  0  0
 56 57  1  0  0  0  0
 57 58  2  0  0  0  0
 58 59  1  0  0  0  0
 59 60  1  0  0  0  0
 58 61  1  0  0  0  0
 61 62  2  0  0  0  0
 54 63  1  0  0  0  0
 63 64  2  0  0  0  0
 64 65  1  0  0  0  0
 65 66  2  0  0  0  0
 66 67  1  0  0  0  0
 67 68  1  0  0  0  0
 66 69  1  0  0  0  0
 69 70  2  0  0  0  0
 53 71  1  0  0  0  0
 71 72  1  0  0  0  0
 72 73  1  0  0  0  0
 73 74  2  0  0  0  0
 74 75  1  0  0  0  0
 75 76  1  0  0  0  0
 76 77  2  0  0  0  0
 77 78  1  0  0  0  0
 78 79  2  0  0  0  0
 79 80  1  0  0  0  0
 80 81  1  0  0  0  0
 79 82  1  0  0  0  0
 82 83  2  0  0  0  0
 75 84  1  0  0  0  0
 84 85  2  0  0  0  0
 85 86  1  0  0  0  0
 86 87  2  0  0  0  0
 87 88  1  0  0  0  0
 88 89  1  0  0  0  0
 87 90  1  0  0  0  0
 90 91  2  0  0  0  0
 74 92  1  0  0  0  0
 92 93  1  0  0  0  0
 73 94  1  0  0  0  0
 94 95  2  0  0  0  0
 95 96  1  0  0  0  0
 96 97  2  0  0  0  0
 97 98  1  0  0  0  0
 98 99  2  0  0  0  0
 99100  1  0  0  0  0
100101  1  0  0  0  0
100102  2  0  0  0  0
102103  1  0  0  0  0
103104  1  0  0  0  0
102105  1  0  0  0  0
 97106  1  0  0  0  0
106107  2  0  0  0  0
107108  1  0  0  0  0
108109  1  0  0  0  0
109110  1  0  0  0  0
110111  1  0  0  0  0
111112  1  0  0  0  0
112113  1  0  0  0  0
111114  2  0  0  0  0
114115  1  0  0  0  0
114116  1  0  0  0  0
108117  2  0  0  0  0
117118  1  0  0  0  0
107119  1  0  0  0  0
119120  2  0  0  0  0
120121  1  0  0  0  0
120122  1  0  0  0  0
122123  2  0  0  0  0
123124  1  0  0  0  0
124125  2  0  0  0  0
124126  1  0  0  0  0
126127  2  0  0  0  0
127128  1  0  0  0  0
128129  2  0  0  0  0
129130  1  0  0  0  0
130131  2  0  0  0  0
131132  1  0  0  0  0
132133  2  0  0  0  0
133134  1  0  0  0  0
134135  3  0  0  0  0
133136  1  0  0  0  0
136137  3  0  0  0  0
129138  1  0  0  0  0
138139  1  0  0  0  0
139140  1  0  0  0  0
140141  2  0  0  0  0
141142  1  0  0  0  0
142143  1  0  0  0  0
142144  1  0  0  0  0
 11  2  1  0  0  0  0
 23 17  1  0  0  0  0
 48 24  1  0  0  0  0
 93 52  1  0  0  0  0
118 94  1  0  0  0  0
132123  1  0  0  0  0
144138  1  0  0  0  0
 10  5  1  0  0  0  0
 22 18  1  0  0  0  0
 47 26  1  0  0  0  0
 62 55  1  0  0  0  0
 70 63  1  0  0  0  0
 92 71  2  0  0  0  0
117 96  1  0  0  0  0
131126  1  0  0  0  0
143139  1  0  0  0  0
 23  7  1  0  0  0  0
 35 28  1  0  0  0  0
 51 36  1  0  0  0  0
 83 76  1  0  0  0  0
 91 84  1  0  0  0  0
105 98  1  0  0  0  0
121106  1  0  0  0  0
144128  1  0  0  0  0
 45 39  2  0  0  0  0
115109  2  0  0  0  0
  1145  1  0  0  0  0
  6146  1  0  0  0  0
  9147  1  0  0  0  0
 17148  1  0  0  0  0
 18149  1  0  0  0  0
 19150  1  0  0  0  0
 20151  1  0  0  0  0
 21152  1  0  0  0  0
 22153  1  0  0  0  0
 22154  1  0  0  0  0
 23155  1  0  0  0  0
 25156  1  0  0  0  0
 29157  1  0  0  0  0
 33158  1  0  0  0  0
 33159  1  0  0  0  0
 34160  1  0  0  0  0
 34161  1  0  0  0  0
 34162  1  0  0  0  0
 42163  1  0  0  0  0
 42164  1  0  0  0  0
 43165  1  0  0  0  0
 43166  1  0  0  0  0
 43167  1  0  0  0  0
 45168  1  0  0  0  0
 49169  1  0  0  0  0
 56170  1  0  0  0  0
 57171  1  0  0  0  0
 60172  1  0  0  0  0
 60173  1  0  0  0  0
 60174  1  0  0  0  0
 61175  1  0  0  0  0
 62176  1  0  0  0  0
 64177  1  0  0  0  0
 65178  1  0  0  0  0
 68179  1  0  0  0  0
 68180  1  0  0  0  0
 68181  1  0  0  0  0
 69182  1  0  0  0  0
 70183  1  0  0  0  0
 77184  1  0  0  0  0
 78185  1  0  0  0  0
 81186  1  0  0  0  0
 81187  1  0  0  0  0
 81188  1  0  0  0  0
 82189  1  0  0  0  0
 83190  1  0  0  0  0
 85191  1  0  0  0  0
 86192  1  0  0  0  0
 89193  1  0  0  0  0
 89194  1  0  0  0  0
 89195  1  0  0  0  0
 90196  1  0  0  0  0
 91197  1  0  0  0  0
 95198  1  0  0  0  0
 99199  1  0  0  0  0
103200  1  0  0  0  0
103201  1  0  0  0  0
104202  1  0  0  0  0
104203  1  0  0  0  0
104204  1  0  0  0  0
112205  1  0  0  0  0
112206  1  0  0  0  0
113207  1  0  0  0  0
113208  1  0  0  0  0
113209  1  0  0  0  0
115210  1  0  0  0  0
119211  1  0  0  0  0
122212  1  0  0  0  0
127213  1  0  0  0  0
130214  1  0  0  0  0
138215  1  0  0  0  0
139216  1  0  0  0  0
140217  1  0  0  0  0
141218  1  0  0  0  0
142219  1  0  0  0  0
143220  1  0  0  0  0
143221  1  0  0  0  0
144222  1  0  0  0  0
M  END
