
  xtb     02072212043D
 energy: -325.896191118990 gnorm: 0.000490803936 xtb: 6.4.1 (unknown)
196217  0     0  0            999 V2000
    8.9242    4.7554    2.3483 C   0  0  0  0  0  0  0  0  0  0  0  0
    9.1272    5.5074    3.4698 C   0  0  0  0  0  0  0  0  0  0  0  0
    8.1022    6.1799    4.3037 C   0  0  0  0  0  0  0  0  0  0  0  0
    6.8962    6.0358    4.2876 O   0  0  0  0  0  0  0  0  0  0  0  0
    8.8407    7.1366    5.1490 C   0  0  0  0  0  0  0  0  0  0  0  0
    8.2901    8.0444    6.0525 C   0  0  0  0  0  0  0  0  0  0  0  0
    9.2185    8.8201    6.7031 C   0  0  0  0  0  0  0  0  0  0  0  0
   10.5963    8.7029    6.4736 C   0  0  0  0  0  0  0  0  0  0  0  0
   11.1531    7.8117    5.5882 C   0  0  0  0  0  0  0  0  0  0  0  0
   10.2240    7.0125    4.9139 C   0  0  0  0  0  0  0  0  0  0  0  0
   10.4315    5.9668    3.9180 C   0  0  0  0  0  0  0  0  0  0  0  0
   11.6451    5.4551    3.5407 C   0  0  0  0  0  0  0  0  0  0  0  0
   11.8359    4.3646    2.6644 C   0  0  0  0  0  0  0  0  0  0  0  0
   12.0848    3.4728    1.9850 N   0  0  0  0  0  0  0  0  0  0  0  0
   12.8893    5.9212    4.0147 C   0  0  0  0  0  0  0  0  0  0  0  0
   13.9353    6.2546    4.3508 N   0  0  0  0  0  0  0  0  0  0  0  0
   10.9350    9.7931    7.4592 C   0  0  0  0  0  0  0  0  0  0  0  0
   11.3030   11.1695    6.8659 C   0  0  0  0  0  0  0  0  0  0  0  0
   11.1099   12.1246    8.0215 C   0  0  0  0  0  0  0  0  0  0  0  0
    9.8057   12.2368    8.2387 C   0  0  0  0  0  0  0  0  0  0  0  0
    9.0952   11.3594    7.2332 C   0  0  0  0  0  0  0  0  0  0  0  0
   10.0513   11.4969    6.0413 C   0  0  0  0  0  0  0  0  0  0  0  0
    9.3993    9.9246    7.7151 C   0  0  0  0  0  0  0  0  0  0  0  0
    7.7261    4.2004    1.8439 C   0  0  0  0  0  0  0  0  0  0  0  0
    6.5298    3.9165    2.4529 C   0  0  0  0  0  0  0  0  0  0  0  0
    5.5772    3.3261    1.5988 C   0  0  0  0  0  0  0  0  0  0  0  0
    4.2762    2.8832    1.9437 C   0  0  0  0  0  0  0  0  0  0  0  0
    3.7083    3.1561    3.2409 C   0  0  0  0  0  0  0  0  0  0  0  0
    3.9082    4.2730    4.0122 C   0  0  0  0  0  0  0  0  0  0  0  0
    3.2816    4.2808    5.2716 C   0  0  0  0  0  0  0  0  0  0  0  0
    2.5540    3.1605    5.5558 C   0  0  0  0  0  0  0  0  0  0  0  0
    1.6661    2.7520    7.0047 S   0  0  0  0  0  0  0  0  0  0  0  0
    1.3860    4.3844    7.7811 C   0  0  0  0  0  0  0  0  0  0  0  0
    0.4397    5.2480    6.9711 C   0  0  0  0  0  0  0  0  0  0  0  0
    2.5700    1.9321    4.1379 Se  0  0  0  0  0  2  0  0  0  0  0  0
    3.5990    2.1787    0.9528 C   0  0  0  0  0  0  0  0  0  0  0  0
    4.1102    1.9537   -0.3471 C   0  0  0  0  0  0  0  0  0  0  0  0
    5.3876    2.4323   -0.7098 C   0  0  0  0  0  0  0  0  0  0  0  0
    6.0139    2.1740   -1.9878 C   0  0  0  0  0  0  0  0  0  0  0  0
    6.9311    2.9720   -2.6202 C   0  0  0  0  0  0  0  0  0  0  0  0
    7.5840    2.4157   -3.7335 C   0  0  0  0  0  0  0  0  0  0  0  0
    7.2259    1.1327   -4.0386 C   0  0  0  0  0  0  0  0  0  0  0  0
    8.0598    0.1887   -5.2483 S   0  0  0  0  0  0  0  0  0  0  0  0
    6.9048   -1.1914   -5.5700 C   0  0  0  0  0  0  0  0  0  0  0  0
    5.9662   -0.8755   -6.7165 C   0  0  0  0  0  0  0  0  0  0  0  0
    5.8917    0.5061   -2.8686 Se  0  0  0  0  0  2  0  0  0  0  0  0
    6.0863    3.1102    0.2912 C   0  0  0  0  0  0  0  0  0  0  0  0
    7.7182    3.6982    0.1585 S   0  0  0  0  0  0  0  0  0  0  0  0
    3.1911    1.2364   -1.1563 C   0  0  0  0  0  0  0  0  0  0  0  0
    2.0369    0.9082   -0.5211 C   0  0  0  0  0  0  0  0  0  0  0  0
    2.0144    1.4832    1.1374 S   0  0  0  0  0  0  0  0  0  0  0  0
    0.8809    0.1947   -1.0066 C   0  0  0  0  0  0  0  0  0  0  0  0
   -0.0163    0.5756   -1.9819 C   0  0  0  0  0  0  0  0  0  0  0  0
    0.0637    1.7436   -2.7332 N   0  0  0  0  0  0  0  0  0  0  0  0
   -1.0856    2.5291   -2.8623 C   0  0  0  0  0  0  0  0  0  0  0  0
   -1.3608    3.2148   -4.0419 C   0  0  0  0  0  0  0  0  0  0  0  0
   -2.5094    3.9717   -4.1670 C   0  0  0  0  0  0  0  0  0  0  0  0
   -3.4136    4.0463   -3.1167 C   0  0  0  0  0  0  0  0  0  0  0  0
   -4.9167    4.9726   -3.1604 S   0  0  0  0  0  0  0  0  0  0  0  0
   -4.9841    5.6208   -4.8543 C   0  0  0  0  0  0  0  0  0  0  0  0
   -3.1422    3.3622   -1.9337 C   0  0  0  0  0  0  0  0  0  0  0  0
   -1.9916    2.6186   -1.8036 C   0  0  0  0  0  0  0  0  0  0  0  0
    1.2166    2.0020   -3.4811 C   0  0  0  0  0  0  0  0  0  0  0  0
    1.8755    0.9591   -4.1331 C   0  0  0  0  0  0  0  0  0  0  0  0
    3.0121    1.2087   -4.8693 C   0  0  0  0  0  0  0  0  0  0  0  0
    3.5139    2.5049   -4.9769 C   0  0  0  0  0  0  0  0  0  0  0  0
    4.9434    2.7196   -5.9901 S   0  0  0  0  0  0  0  0  0  0  0  0
    5.4739    4.4172   -5.6514 C   0  0  0  0  0  0  0  0  0  0  0  0
    2.8616    3.5446   -4.3271 C   0  0  0  0  0  0  0  0  0  0  0  0
    1.7240    3.2935   -3.5857 C   0  0  0  0  0  0  0  0  0  0  0  0
   -1.0788   -0.3568   -2.0915 C   0  0  0  0  0  0  0  0  0  0  0  0
   -2.4955   -0.4392   -3.0748 S   0  0  0  0  0  0  0  0  0  0  0  0
   -2.9137   -1.9851   -2.3529 C   0  0  0  0  0  0  0  0  0  0  0  0
   -2.0355   -2.3703   -1.3481 C   0  0  0  0  0  0  0  0  0  0  0  0
   -2.1928   -3.4683   -0.5253 N   0  0  0  0  0  0  0  0  0  0  0  0
   -3.4641   -3.8829   -0.0921 C   0  0  0  0  0  0  0  0  0  0  0  0
   -3.7392   -5.2412    0.0701 C   0  0  0  0  0  0  0  0  0  0  0  0
   -4.9852   -5.6574    0.4825 C   0  0  0  0  0  0  0  0  0  0  0  0
   -5.9931   -4.7300    0.7323 C   0  0  0  0  0  0  0  0  0  0  0  0
   -7.5395   -5.3572    1.2944 S   0  0  0  0  0  0  0  0  0  0  0  0
   -8.6924   -3.9955    0.9645 C   0  0  0  0  0  0  0  0  0  0  0  0
   -5.7243   -3.3770    0.5732 C   0  0  0  0  0  0  0  0  0  0  0  0
   -4.4713   -2.9592    0.1704 C   0  0  0  0  0  0  0  0  0  0  0  0
   -1.0443   -4.1284   -0.0632 C   0  0  0  0  0  0  0  0  0  0  0  0
   -0.9620   -4.5833    1.2494 C   0  0  0  0  0  0  0  0  0  0  0  0
    0.1733   -5.2256    1.7020 C   0  0  0  0  0  0  0  0  0  0  0  0
    1.2532   -5.4164    0.8495 C   0  0  0  0  0  0  0  0  0  0  0  0
    2.7561   -6.2160    1.3126 S   0  0  0  0  0  0  0  0  0  0  0  0
    2.5501   -6.5482    3.0847 C   0  0  0  0  0  0  0  0  0  0  0  0
    1.1729   -4.9665   -0.4669 C   0  0  0  0  0  0  0  0  0  0  0  0
    0.0372   -4.3350   -0.9208 C   0  0  0  0  0  0  0  0  0  0  0  0
   -0.9787   -1.4321   -1.2255 C   0  0  0  0  0  0  0  0  0  0  0  0
    0.4294   -1.3133   -0.2291 S   0  0  0  0  0  0  0  0  0  0  0  0
   -4.0577   -2.7134   -2.7939 C   0  0  0  0  0  0  0  0  0  0  0  0
   -4.1639   -4.0800   -2.8853 C   0  0  0  0  0  0  0  0  0  0  0  0
   -5.4546   -4.5301   -3.1952 C   0  0  0  0  0  0  0  0  0  0  0  0
   -5.8508   -6.1982   -3.4594 S   0  0  0  0  0  0  0  0  0  0  0  0
   -4.2359   -6.8618   -4.0488 C   0  0  0  0  0  0  0  0  0  0  0  0
   -4.4873   -8.1802   -4.7544 C   0  0  0  0  0  0  0  0  0  0  0  0
   -6.3692   -3.4849   -3.3578 C   0  0  0  0  0  0  0  0  0  0  0  0
   -5.5599   -1.9387   -3.1776 S   0  0  0  0  0  0  0  0  0  0  0  0
   -7.7347   -3.4644   -3.6857 C   0  0  0  0  0  0  0  0  0  0  0  0
   -8.6694   -4.4132   -3.3581 C   0  0  0  0  0  0  0  0  0  0  0  0
   -8.4934   -5.4109   -2.2962 C   0  0  0  0  0  0  0  0  0  0  0  0
   -7.4726   -5.6463   -1.6703 O   0  0  0  0  0  0  0  0  0  0  0  0
   -9.8221   -5.9975   -2.0586 C   0  0  0  0  0  0  0  0  0  0  0  0
  -10.1542   -6.9485   -1.0970 C   0  0  0  0  0  0  0  0  0  0  0  0
  -11.4849   -7.2923   -1.0929 C   0  0  0  0  0  0  0  0  0  0  0  0
  -12.4169   -6.7291   -1.9745 C   0  0  0  0  0  0  0  0  0  0  0  0
  -12.1020   -5.7854   -2.9239 C   0  0  0  0  0  0  0  0  0  0  0  0
  -10.7525   -5.4208   -2.9467 C   0  0  0  0  0  0  0  0  0  0  0  0
  -10.0496   -4.4588   -3.7929 C   0  0  0  0  0  0  0  0  0  0  0  0
  -10.5814   -3.7820   -4.8599 C   0  0  0  0  0  0  0  0  0  0  0  0
   -9.8441   -2.9352   -5.7136 C   0  0  0  0  0  0  0  0  0  0  0  0
   -9.3055   -2.2487   -6.4606 N   0  0  0  0  0  0  0  0  0  0  0  0
  -11.9269   -3.8685   -5.2703 C   0  0  0  0  0  0  0  0  0  0  0  0
  -13.0116   -3.8848   -5.6474 N   0  0  0  0  0  0  0  0  0  0  0  0
  -13.5627   -7.5245   -1.3981 C   0  0  0  0  0  0  0  0  0  0  0  0
  -14.5173   -6.7708   -0.4481 C   0  0  0  0  0  0  0  0  0  0  0  0
  -15.2132   -7.8738    0.3163 C   0  0  0  0  0  0  0  0  0  0  0  0
  -14.3295   -8.4065    1.1505 C   0  0  0  0  0  0  0  0  0  0  0  0
  -13.0210   -7.6731    0.9636 C   0  0  0  0  0  0  0  0  0  0  0  0
  -13.5496   -6.2714    0.6326 C   0  0  0  0  0  0  0  0  0  0  0  0
  -12.5226   -8.1529   -0.4161 C   0  0  0  0  0  0  0  0  0  0  0  0
    9.7853    4.5770    1.7143 H   0  0  0  0  0  0  0  0  0  0  0  0
    7.2229    8.0990    6.2010 H   0  0  0  0  0  0  0  0  0  0  0  0
   12.2143    7.7354    5.4214 H   0  0  0  0  0  0  0  0  0  0  0  0
   11.5783    9.5005    8.2868 H   0  0  0  0  0  0  0  0  0  0  0  0
   12.2623   11.2038    6.3571 H   0  0  0  0  0  0  0  0  0  0  0  0
   11.9168   12.5622    8.5793 H   0  0  0  0  0  0  0  0  0  0  0  0
    9.3056   12.7869    9.0141 H   0  0  0  0  0  0  0  0  0  0  0  0
    8.0431   11.5685    7.0586 H   0  0  0  0  0  0  0  0  0  0  0  0
    9.8564   10.7951    5.2324 H   0  0  0  0  0  0  0  0  0  0  0  0
   10.0728   12.5111    5.6460 H   0  0  0  0  0  0  0  0  0  0  0  0
    9.0185    9.7215    8.7143 H   0  0  0  0  0  0  0  0  0  0  0  0
    6.3681    4.0743    3.5006 H   0  0  0  0  0  0  0  0  0  0  0  0
    4.4830    5.1185    3.6752 H   0  0  0  0  0  0  0  0  0  0  0  0
    3.3916    5.1104    5.9478 H   0  0  0  0  0  0  0  0  0  0  0  0
    2.3552    4.8580    7.9303 H   0  0  0  0  0  0  0  0  0  0  0  0
    0.9600    4.1392    8.7536 H   0  0  0  0  0  0  0  0  0  0  0  0
    0.8508    5.4531    5.9848 H   0  0  0  0  0  0  0  0  0  0  0  0
   -0.5169    4.7459    6.8477 H   0  0  0  0  0  0  0  0  0  0  0  0
    0.2742    6.1939    7.4830 H   0  0  0  0  0  0  0  0  0  0  0  0
    7.1217    3.9856   -2.3087 H   0  0  0  0  0  0  0  0  0  0  0  0
    8.3261    2.9498   -4.3010 H   0  0  0  0  0  0  0  0  0  0  0  0
    7.5362   -2.0496   -5.7998 H   0  0  0  0  0  0  0  0  0  0  0  0
    6.3650   -1.3842   -4.6382 H   0  0  0  0  0  0  0  0  0  0  0  0
    5.2464   -1.6819   -6.8428 H   0  0  0  0  0  0  0  0  0  0  0  0
    6.5272   -0.7597   -7.6406 H   0  0  0  0  0  0  0  0  0  0  0  0
    5.4329    0.0535   -6.5269 H   0  0  0  0  0  0  0  0  0  0  0  0
    3.3839    0.9681   -2.1800 H   0  0  0  0  0  0  0  0  0  0  0  0
   -0.6739    3.1475   -4.8724 H   0  0  0  0  0  0  0  0  0  0  0  0
   -2.6897    4.4875   -5.0963 H   0  0  0  0  0  0  0  0  0  0  0  0
   -4.9846    4.7995   -5.5649 H   0  0  0  0  0  0  0  0  0  0  0  0
   -5.9205    6.1661   -4.9205 H   0  0  0  0  0  0  0  0  0  0  0  0
   -4.1521    6.2970   -5.0294 H   0  0  0  0  0  0  0  0  0  0  0  0
   -3.8443    3.4279   -1.1169 H   0  0  0  0  0  0  0  0  0  0  0  0
   -1.7846    2.1039   -0.8770 H   0  0  0  0  0  0  0  0  0  0  0  0
    1.4887   -0.0463   -4.0569 H   0  0  0  0  0  0  0  0  0  0  0  0
    3.5127    0.4012   -5.3808 H   0  0  0  0  0  0  0  0  0  0  0  0
    6.4245    4.5317   -6.1630 H   0  0  0  0  0  0  0  0  0  0  0  0
    4.7526    5.1238   -6.0523 H   0  0  0  0  0  0  0  0  0  0  0  0
    5.6109    4.5473   -4.5819 H   0  0  0  0  0  0  0  0  0  0  0  0
    3.2292    4.5560   -4.3900 H   0  0  0  0  0  0  0  0  0  0  0  0
    1.2198    4.1038   -3.0805 H   0  0  0  0  0  0  0  0  0  0  0  0
   -2.9663   -5.9683   -0.1339 H   0  0  0  0  0  0  0  0  0  0  0  0
   -5.1996   -6.7079    0.5989 H   0  0  0  0  0  0  0  0  0  0  0  0
   -8.5487   -3.1909    1.6802 H   0  0  0  0  0  0  0  0  0  0  0  0
   -8.5505   -3.6473   -0.0545 H   0  0  0  0  0  0  0  0  0  0  0  0
   -9.6885   -4.4131    1.0776 H   0  0  0  0  0  0  0  0  0  0  0  0
   -6.4796   -2.6332    0.7714 H   0  0  0  0  0  0  0  0  0  0  0  0
   -4.2725   -1.9027    0.0638 H   0  0  0  0  0  0  0  0  0  0  0  0
   -1.7939   -4.4278    1.9198 H   0  0  0  0  0  0  0  0  0  0  0  0
    0.2039   -5.5635    2.7250 H   0  0  0  0  0  0  0  0  0  0  0  0
    1.7342   -7.2478    3.2422 H   0  0  0  0  0  0  0  0  0  0  0  0
    3.4850   -6.9959    3.4073 H   0  0  0  0  0  0  0  0  0  0  0  0
    2.3836   -5.6170    3.6181 H   0  0  0  0  0  0  0  0  0  0  0  0
    2.0112   -5.1246   -1.1277 H   0  0  0  0  0  0  0  0  0  0  0  0
   -0.0217   -3.9993   -1.9460 H   0  0  0  0  0  0  0  0  0  0  0  0
   -3.3263   -4.7316   -2.7218 H   0  0  0  0  0  0  0  0  0  0  0  0
   -3.7992   -6.1290   -4.7254 H   0  0  0  0  0  0  0  0  0  0  0  0
   -3.5900   -7.0039   -3.1825 H   0  0  0  0  0  0  0  0  0  0  0  0
   -4.9576   -8.8887   -4.0769 H   0  0  0  0  0  0  0  0  0  0  0  0
   -5.1430   -8.0343   -5.6092 H   0  0  0  0  0  0  0  0  0  0  0  0
   -3.5465   -8.6013   -5.1026 H   0  0  0  0  0  0  0  0  0  0  0  0
   -8.0703   -2.5649   -4.1881 H   0  0  0  0  0  0  0  0  0  0  0  0
   -9.4034   -7.3511   -0.4352 H   0  0  0  0  0  0  0  0  0  0  0  0
  -12.8309   -5.3566   -3.5915 H   0  0  0  0  0  0  0  0  0  0  0  0
  -14.0839   -8.1791   -2.0940 H   0  0  0  0  0  0  0  0  0  0  0  0
  -15.1528   -6.0338   -0.9315 H   0  0  0  0  0  0  0  0  0  0  0  0
  -16.2271   -8.1802    0.1372 H   0  0  0  0  0  0  0  0  0  0  0  0
  -14.4577   -9.2470    1.8072 H   0  0  0  0  0  0  0  0  0  0  0  0
  -12.2925   -7.7578    1.7656 H   0  0  0  0  0  0  0  0  0  0  0  0
  -14.0705   -5.8179    1.4744 H   0  0  0  0  0  0  0  0  0  0  0  0
  -12.7888   -5.5861    0.2628 H   0  0  0  0  0  0  0  0  0  0  0  0
  -12.3509   -9.2269   -0.4567 H   0  0  0  0  0  0  0  0  0  0  0  0
  1  2  2  0  0  0  0
  2  3  1  0  0  0  0
  3  4  2  0  0  0  0
  3  5  1  0  0  0  0
  5  6  2  0  0  0  0
  6  7  1  0  0  0  0
  7  8  2  0  0  0  0
  8  9  1  0  0  0  0
  9 10  2  0  0  0  0
 10 11  1  0  0  0  0
 11 12  2  0  0  0  0
 12 13  1  0  0  0  0
 13 14  3  0  0  0  0
 12 15  1  0  0  0  0
 15 16  3  0  0  0  0
  8 17  1  0  0  0  0
 17 18  1  0  0  0  0
 18 19  1  0  0  0  0
 19 20  2  0  0  0  0
 20 21  1  0  0  0  0
 21 22  1  0  0  0  0
 21 23  1  0  0  0  0
  1 24  1  0  0  0  0
 24 25  2  0  0  0  0
 25 26  1  0  0  0  0
 26 27  2  0  0  0  0
 27 28  1  0  0  0  0
 28 29  2  0  0  0  0
 29 30  1  0  0  0  0
 30 31  2  0  0  0  0
 31 32  1  0  0  0  0
 32 33  1  0  0  0  0
 33 34  1  0  0  0  0
 31 35  1  0  0  0  0
 27 36  1  0  0  0  0
 36 37  2  0  0  0  0
 37 38  1  0  0  0  0
 38 39  1  0  0  0  0
 39 40  2  0  0  0  0
 40 41  1  0  0  0  0
 41 42  2  0  0  0  0
 42 43  1  0  0  0  0
 43 44  1  0  0  0  0
 44 45  1  0  0  0  0
 42 46  1  0  0  0  0
 38 47  2  0  0  0  0
 47 48  1  0  0  0  0
 37 49  1  0  0  0  0
 49 50  2  0  0  0  0
 50 51  1  0  0  0  0
 50 52  1  0  0  0  0
 52 53  2  0  0  0  0
 53 54  1  0  0  0  0
 54 55  1  0  0  0  0
 55 56  2  0  0  0  0
 56 57  1  0  0  0  0
 57 58  2  0  0  0  0
 58 59  1  0  0  0  0
 59 60  1  0  0  0  0
 58 61  1  0  0  0  0
 61 62  2  0  0  0  0
 54 63  1  0  0  0  0
 63 64  2  0  0  0  0
 64 65  1  0  0  0  0
 65 66  2  0  0  0  0
 66 67  1  0  0  0  0
 67 68  1  0  0  0  0
 66 69  1  0  0  0  0
 69 70  2  0  0  0  0
 53 71  1  0  0  0  0
 71 72  1  0  0  0  0
 72 73  1  0  0  0  0
 73 74  2  0  0  0  0
 74 75  1  0  0  0  0
 75 76  1  0  0  0  0
 76 77  2  0  0  0  0
 77 78  1  0  0  0  0
 78 79  2  0  0  0  0
 79 80  1  0  0  0  0
 80 81  1  0  0  0  0
 79 82  1  0  0  0  0
 82 83  2  0  0  0  0
 75 84  1  0  0  0  0
 84 85  2  0  0  0  0
 85 86  1  0  0  0  0
 86 87  2  0  0  0  0
 87 88  1  0  0  0  0
 88 89  1  0  0  0  0
 87 90  1  0  0  0  0
 90 91  2  0  0  0  0
 74 92  1  0  0  0  0
 92 93  1  0  0  0  0
 73 94  1  0  0  0  0
 94 95  2  0  0  0  0
 95 96  1  0  0  0  0
 96 97  1  0  0  0  0
 97 98  1  0  0  0  0
 98 99  1  0  0  0  0
 96100  2  0  0  0  0
100101  1  0  0  0  0
100102  1  0  0  0  0
102103  2  0  0  0  0
103104  1  0  0  0  0
104105  2  0  0  0  0
104106  1  0  0  0  0
106107  2  0  0  0  0
107108  1  0  0  0  0
108109  2  0  0  0  0
109110  1  0  0  0  0
110111  2  0  0  0  0
111112  1  0  0  0  0
112113  2  0  0  0  0
113114  1  0  0  0  0
114115  3  0  0  0  0
113116  1  0  0  0  0
116117  3  0  0  0  0
109118  1  0  0  0  0
118119  1  0  0  0  0
119120  1  0  0  0  0
120121  2  0  0  0  0
121122  1  0  0  0  0
122123  1  0  0  0  0
122124  1  0  0  0  0
 11  2  1  0  0  0  0
 23 17  1  0  0  0  0
 48 24  1  0  0  0  0
 93 52  1  0  0  0  0
101 94  1  0  0  0  0
112103  1  0  0  0  0
124118  1  0  0  0  0
 10  5  1  0  0  0  0
 22 18  1  0  0  0  0
 47 26  1  0  0  0  0
 62 55  1  0  0  0  0
 70 63  1  0  0  0  0
 92 71  2  0  0  0  0
111106  1  0  0  0  0
123119  1  0  0  0  0
 23  7  1  0  0  0  0
 35 28  1  0  0  0  0
 51 36  1  0  0  0  0
 83 76  1  0  0  0  0
 91 84  1  0  0  0  0
124108  1  0  0  0  0
 46 39  1  0  0  0  0
  1125  1  0  0  0  0
  6126  1  0  0  0  0
  9127  1  0  0  0  0
 17128  1  0  0  0  0
 18129  1  0  0  0  0
 19130  1  0  0  0  0
 20131  1  0  0  0  0
 21132  1  0  0  0  0
 22133  1  0  0  0  0
 22134  1  0  0  0  0
 23135  1  0  0  0  0
 25136  1  0  0  0  0
 29137  1  0  0  0  0
 30138  1  0  0  0  0
 33139  1  0  0  0  0
 33140  1  0  0  0  0
 34141  1  0  0  0  0
 34142  1  0  0  0  0
 34143  1  0  0  0  0
 40144  1  0  0  0  0
 41145  1  0  0  0  0
 44146  1  0  0  0  0
 44147  1  0  0  0  0
 45148  1  0  0  0  0
 45149  1  0  0  0  0
 45150  1  0  0  0  0
 49151  1  0  0  0  0
 56152  1  0  0  0  0
 57153  1  0  0  0  0
 60154  1  0  0  0  0
 60155  1  0  0  0  0
 60156  1  0  0  0  0
 61157  1  0  0  0  0
 62158  1  0  0  0  0
 64159  1  0  0  0  0
 65160  1  0  0  0  0
 68161  1  0  0  0  0
 68162  1  0  0  0  0
 68163  1  0  0  0  0
 69164  1  0  0  0  0
 70165  1  0  0  0  0
 77166  1  0  0  0  0
 78167  1  0  0  0  0
 81168  1  0  0  0  0
 81169  1  0  0  0  0
 81170  1  0  0  0  0
 82171  1  0  0  0  0
 83172  1  0  0  0  0
 85173  1  0  0  0  0
 86174  1  0  0  0  0
 89175  1  0  0  0  0
 89176  1  0  0  0  0
 89177  1  0  0  0  0
 90178  1  0  0  0  0
 91179  1  0  0  0  0
 95180  1  0  0  0  0
 98181  1  0  0  0  0
 98182  1  0  0  0  0
 99183  1  0  0  0  0
 99184  1  0  0  0  0
 99185  1  0  0  0  0
102186  1  0  0  0  0
107187  1  0  0  0  0
110188  1  0  0  0  0
118189  1  0  0  0  0
119190  1  0  0  0  0
120191  1  0  0  0  0
121192  1  0  0  0  0
122193  1  0  0  0  0
123194  1  0  0  0  0
123195  1  0  0  0  0
124196  1  0  0  0  0
M  END
