
  xtb     02072221163D
 energy: -413.672309512163 gnorm: 0.000368641631 xtb: 6.4.1 (unknown)
258284  0     0  0            999 V2000
   -6.3239    6.8522   -2.2090 C   0  0  0  0  0  0  0  0  0  0  0  0
   -7.1881    7.5455   -1.3896 C   0  0  0  0  0  0  0  0  0  0  0  0
   -7.7601    7.0662   -0.1318 C   0  0  0  0  0  0  0  0  0  0  0  0
   -7.6171    5.9673    0.3837 O   0  0  0  0  0  0  0  0  0  0  0  0
   -8.6207    8.1503    0.3716 C   0  0  0  0  0  0  0  0  0  0  0  0
   -9.3229    8.1761    1.5736 C   0  0  0  0  0  0  0  0  0  0  0  0
  -10.0510    9.3254    1.7692 C   0  0  0  0  0  0  0  0  0  0  0  0
  -10.0803   10.3704    0.8378 C   0  0  0  0  0  0  0  0  0  0  0  0
   -9.3825   10.3611   -0.3477 C   0  0  0  0  0  0  0  0  0  0  0  0
   -8.6304    9.2035   -0.5651 C   0  0  0  0  0  0  0  0  0  0  0  0
   -7.7314    8.8528   -1.6661 C   0  0  0  0  0  0  0  0  0  0  0  0
   -7.4325    9.6649   -2.7357 C   0  0  0  0  0  0  0  0  0  0  0  0
   -6.4588    9.4010   -3.7177 C   0  0  0  0  0  0  0  0  0  0  0  0
   -5.6551    9.2841   -4.5326 N   0  0  0  0  0  0  0  0  0  0  0  0
   -8.0407   10.9111   -2.9849 C   0  0  0  0  0  0  0  0  0  0  0  0
   -8.5017   11.9264   -3.2618 N   0  0  0  0  0  0  0  0  0  0  0  0
  -11.0013   11.2101    1.6888 C   0  0  0  0  0  0  0  0  0  0  0  0
  -10.3518   12.3772    2.4619 C   0  0  0  0  0  0  0  0  0  0  0  0
  -11.3558   12.6964    3.5462 C   0  0  0  0  0  0  0  0  0  0  0  0
  -11.3246   11.7065    4.4292 C   0  0  0  0  0  0  0  0  0  0  0  0
  -10.2997   10.7011    3.9564 C   0  0  0  0  0  0  0  0  0  0  0  0
   -9.2896   11.6464    3.2934 C   0  0  0  0  0  0  0  0  0  0  0  0
  -10.9660   10.0445    2.7289 C   0  0  0  0  0  0  0  0  0  0  0  0
   -5.6219    5.6749   -1.9678 C   0  0  0  0  0  0  0  0  0  0  0  0
   -4.6527    5.1503   -2.8616 C   0  0  0  0  0  0  0  0  0  0  0  0
   -4.5034    5.5028   -4.1731 N   0  0  0  0  0  0  0  0  0  0  0  0
   -5.5826    5.8611   -4.9997 C   0  0  0  0  0  0  0  0  0  0  0  0
   -5.3820    6.7830   -6.0268 C   0  0  0  0  0  0  0  0  0  0  0  0
   -6.4268    7.1375   -6.8498 C   0  0  0  0  0  0  0  0  0  0  0  0
   -7.6930    6.5855   -6.6651 C   0  0  0  0  0  0  0  0  0  0  0  0
   -8.9538    7.1293   -7.7709 S   0  0  0  0  0  0  0  0  0  0  0  0
  -10.4513    6.2863   -7.1834 C   0  0  0  0  0  0  0  0  0  0  0  0
   -7.8903    5.6529   -5.6539 C   0  0  0  0  0  0  0  0  0  0  0  0
   -6.8411    5.2893   -4.8340 C   0  0  0  0  0  0  0  0  0  0  0  0
   -3.2437    5.3008   -4.7793 C   0  0  0  0  0  0  0  0  0  0  0  0
   -3.1245    4.5308   -5.9347 C   0  0  0  0  0  0  0  0  0  0  0  0
   -1.8804    4.2715   -6.4628 C   0  0  0  0  0  0  0  0  0  0  0  0
   -0.7341    4.7817   -5.8537 C   0  0  0  0  0  0  0  0  0  0  0  0
    0.8048    4.3412   -6.5875 S   0  0  0  0  0  0  0  0  0  0  0  0
    2.0327    4.8599   -5.3508 C   0  0  0  0  0  0  0  0  0  0  0  0
   -0.8547    5.5954   -4.7349 C   0  0  0  0  0  0  0  0  0  0  0  0
   -2.1038    5.8496   -4.2034 C   0  0  0  0  0  0  0  0  0  0  0  0
   -3.8385    4.2101   -2.2065 C   0  0  0  0  0  0  0  0  0  0  0  0
   -2.4632    3.2854   -2.6921 S   0  0  0  0  0  0  0  0  0  0  0  0
   -2.3697    2.5546   -1.0912 C   0  0  0  0  0  0  0  0  0  0  0  0
   -3.4194    2.9327   -0.2661 C   0  0  0  0  0  0  0  0  0  0  0  0
   -3.7085    2.4262    0.9852 N   0  0  0  0  0  0  0  0  0  0  0  0
   -3.3005    1.1617    1.4207 C   0  0  0  0  0  0  0  0  0  0  0  0
   -3.0934    0.0949    0.5481 C   0  0  0  0  0  0  0  0  0  0  0  0
   -2.6055   -1.1116    1.0126 C   0  0  0  0  0  0  0  0  0  0  0  0
   -2.3485   -1.2850    2.3652 C   0  0  0  0  0  0  0  0  0  0  0  0
   -1.5980   -2.7540    3.0153 S   0  0  0  0  0  0  0  0  0  0  0  0
   -0.5316   -3.2656    1.6324 C   0  0  0  0  0  0  0  0  0  0  0  0
   -2.6650   -0.2627    3.2572 C   0  0  0  0  0  0  0  0  0  0  0  0
   -3.1227    0.9494    2.7901 C   0  0  0  0  0  0  0  0  0  0  0  0
   -4.7077    3.0765    1.7570 C   0  0  0  0  0  0  0  0  0  0  0  0
   -5.8930    2.4085    2.0461 C   0  0  0  0  0  0  0  0  0  0  0  0
   -6.9100    3.0549    2.7175 C   0  0  0  0  0  0  0  0  0  0  0  0
   -6.7519    4.3771    3.1133 C   0  0  0  0  0  0  0  0  0  0  0  0
   -8.0434    5.2746    3.9167 S   0  0  0  0  0  0  0  0  0  0  0  0
   -9.5158    4.5953    3.0900 C   0  0  0  0  0  0  0  0  0  0  0  0
   -5.5463    5.0263    2.8829 C   0  0  0  0  0  0  0  0  0  0  0  0
   -4.5332    4.3826    2.2021 C   0  0  0  0  0  0  0  0  0  0  0  0
   -4.2210    3.9196   -0.9025 C   0  0  0  0  0  0  0  0  0  0  0  0
   -5.6183    4.8207   -0.4224 S   0  0  0  0  0  0  0  0  0  0  0  0
   -1.2622    1.6624   -0.9066 C   0  0  0  0  0  0  0  0  0  0  0  0
   -0.2789    1.6096    0.0663 C   0  0  0  0  0  0  0  0  0  0  0  0
   -0.1322    2.4817    1.1317 N   0  0  0  0  0  0  0  0  0  0  0  0
    0.6169    2.0580    2.2450 C   0  0  0  0  0  0  0  0  0  0  0  0
    1.6159    2.8611    2.7951 C   0  0  0  0  0  0  0  0  0  0  0  0
    2.4139    2.3740    3.8075 C   0  0  0  0  0  0  0  0  0  0  0  0
    2.2311    1.0820    4.2962 C   0  0  0  0  0  0  0  0  0  0  0  0
    3.3645    0.4866    5.5154 S   0  0  0  0  0  0  0  0  0  0  0  0
    3.2728   -1.3105    5.2623 C   0  0  0  0  0  0  0  0  0  0  0  0
    1.1890    0.3096    3.8056 C   0  0  0  0  0  0  0  0  0  0  0  0
    0.3982    0.7947    2.7834 C   0  0  0  0  0  0  0  0  0  0  0  0
   -0.5500    3.8139    1.0488 C   0  0  0  0  0  0  0  0  0  0  0  0
   -0.5405    4.5095   -0.1589 C   0  0  0  0  0  0  0  0  0  0  0  0
   -1.0497    5.7901   -0.2397 C   0  0  0  0  0  0  0  0  0  0  0  0
   -1.5499    6.4143    0.8942 C   0  0  0  0  0  0  0  0  0  0  0  0
   -2.3036    8.0147    0.8710 S   0  0  0  0  0  0  0  0  0  0  0  0
   -2.9186    8.1350   -0.8341 C   0  0  0  0  0  0  0  0  0  0  0  0
   -1.4620    5.7639    2.1232 C   0  0  0  0  0  0  0  0  0  0  0  0
   -0.9807    4.4744    2.1994 C   0  0  0  0  0  0  0  0  0  0  0  0
    0.6377    0.5610   -0.2180 C   0  0  0  0  0  0  0  0  0  0  0  0
    1.9824   -0.1232    0.6185 S   0  0  0  0  0  0  0  0  0  0  0  0
    2.2067   -1.3336   -0.6469 C   0  0  0  0  0  0  0  0  0  0  0  0
    1.2965   -1.1829   -1.6798 C   0  0  0  0  0  0  0  0  0  0  0  0
    1.1841   -1.9597   -2.8196 N   0  0  0  0  0  0  0  0  0  0  0  0
    1.4627   -3.3313   -2.8003 C   0  0  0  0  0  0  0  0  0  0  0  0
    2.0853   -3.9368   -3.8930 C   0  0  0  0  0  0  0  0  0  0  0  0
    2.4176   -5.2708   -3.8481 C   0  0  0  0  0  0  0  0  0  0  0  0
    2.1503   -6.0348   -2.7120 C   0  0  0  0  0  0  0  0  0  0  0  0
    2.6748   -7.7167   -2.7590 S   0  0  0  0  0  0  0  0  0  0  0  0
    2.1574   -8.3773   -1.1537 C   0  0  0  0  0  0  0  0  0  0  0  0
    1.5068   -5.4433   -1.6331 C   0  0  0  0  0  0  0  0  0  0  0  0
    1.1572   -4.1078   -1.6860 C   0  0  0  0  0  0  0  0  0  0  0  0
    0.7349   -1.3436   -3.9980 C   0  0  0  0  0  0  0  0  0  0  0  0
   -0.1604   -1.9949   -4.8408 C   0  0  0  0  0  0  0  0  0  0  0  0
   -0.6426   -1.3715   -5.9750 C   0  0  0  0  0  0  0  0  0  0  0  0
   -0.2413   -0.0786   -6.2832 C   0  0  0  0  0  0  0  0  0  0  0  0
   -0.8199    0.8356   -7.6767 S   0  0  0  0  0  0  0  0  0  0  0  0
   -1.8472   -0.3539   -8.5871 C   0  0  0  0  0  0  0  0  0  0  0  0
    0.6720    0.5704   -5.4554 C   0  0  0  0  0  0  0  0  0  0  0  0
    1.1602   -0.0558   -4.3311 C   0  0  0  0  0  0  0  0  0  0  0  0
    0.4092   -0.1067   -1.4071 C   0  0  0  0  0  0  0  0  0  0  0  0
   -0.9763    0.5182   -2.2210 S   0  0  0  0  0  0  0  0  0  0  0  0
    3.1519   -2.3535   -0.3136 C   0  0  0  0  0  0  0  0  0  0  0  0
    4.2006   -3.1816   -1.4435 S   0  0  0  0  0  0  0  0  0  0  0  0
    4.8427   -4.1317   -0.1597 C   0  0  0  0  0  0  0  0  0  0  0  0
    5.7889   -5.2000   -0.0062 C   0  0  0  0  0  0  0  0  0  0  0  0
    5.8264   -5.5239    1.3694 C   0  0  0  0  0  0  0  0  0  0  0  0
    4.8324   -4.6874    2.1538 C   0  0  0  0  0  0  0  0  0  0  0  0
    3.6332   -5.4823    2.6463 C   0  0  0  0  0  0  0  0  0  0  0  0
    2.7308   -4.8707    3.5102 C   0  0  0  0  0  0  0  0  0  0  0  0
    1.5740   -5.5188    3.8957 C   0  0  0  0  0  0  0  0  0  0  0  0
    1.2835   -6.7955    3.4273 C   0  0  0  0  0  0  0  0  0  0  0  0
   -0.0012   -7.4717    3.8113 C   0  0  0  0  0  0  0  0  0  0  0  0
   -1.1740   -6.9087    3.0057 C   0  0  0  0  0  0  0  0  0  0  0  0
    2.1913   -7.4040    2.5723 C   0  0  0  0  0  0  0  0  0  0  0  0
    3.3528   -6.7584    2.1813 C   0  0  0  0  0  0  0  0  0  0  0  0
    5.5281   -3.9501    3.2784 C   0  0  0  0  0  0  0  0  0  0  0  0
    5.7152   -4.5674    4.5089 C   0  0  0  0  0  0  0  0  0  0  0  0
    6.3814   -3.9129    5.5280 C   0  0  0  0  0  0  0  0  0  0  0  0
    6.8798   -2.6285    5.3474 C   0  0  0  0  0  0  0  0  0  0  0  0
    7.5789   -1.9086    6.4649 C   0  0  0  0  0  0  0  0  0  0  0  0
    6.5843   -1.1215    7.3212 C   0  0  0  0  0  0  0  0  0  0  0  0
    6.6861   -2.0146    4.1170 C   0  0  0  0  0  0  0  0  0  0  0  0
    6.0248   -2.6670    3.0927 C   0  0  0  0  0  0  0  0  0  0  0  0
    4.3034   -3.7924    1.0641 C   0  0  0  0  0  0  0  0  0  0  0  0
    3.3486   -2.7841    0.9822 C   0  0  0  0  0  0  0  0  0  0  0  0
    6.7057   -6.4782    1.8312 C   0  0  0  0  0  0  0  0  0  0  0  0
    7.4941   -7.1606    0.9197 C   0  0  0  0  0  0  0  0  0  0  0  0
    7.4164   -6.8950   -0.4529 C   0  0  0  0  0  0  0  0  0  0  0  0
    6.5803   -5.8735   -0.9148 C   0  0  0  0  0  0  0  0  0  0  0  0
    8.2265   -7.6187   -1.4039 C   0  0  0  0  0  0  0  0  0  0  0  0
    8.6670   -8.8933   -1.3447 C   0  0  0  0  0  0  0  0  0  0  0  0
    9.7791   -9.3312   -2.2410 C   0  0  0  0  0  0  0  0  0  0  0  0
   10.1892   -8.7458   -3.2158 O   0  0  0  0  0  0  0  0  0  0  0  0
   10.2914  -10.5785   -1.6464 C   0  0  0  0  0  0  0  0  0  0  0  0
   11.4192  -11.2975   -2.0375 C   0  0  0  0  0  0  0  0  0  0  0  0
   11.6651  -12.4130   -1.2744 C   0  0  0  0  0  0  0  0  0  0  0  0
   10.8607  -12.7817   -0.1864 C   0  0  0  0  0  0  0  0  0  0  0  0
    9.7459  -12.0842    0.2111 C   0  0  0  0  0  0  0  0  0  0  0  0
    9.4657  -10.9563   -0.5658 C   0  0  0  0  0  0  0  0  0  0  0  0
    8.3581  -10.0109   -0.4686 C   0  0  0  0  0  0  0  0  0  0  0  0
    7.1608  -10.2596    0.1446 C   0  0  0  0  0  0  0  0  0  0  0  0
    6.0214   -9.4337    0.0602 C   0  0  0  0  0  0  0  0  0  0  0  0
    5.0273   -8.8616    0.0105 N   0  0  0  0  0  0  0  0  0  0  0  0
    6.8797  -11.4308    0.8797 C   0  0  0  0  0  0  0  0  0  0  0  0
    6.5931  -12.3566    1.4948 N   0  0  0  0  0  0  0  0  0  0  0  0
   11.6968  -13.9980    0.1217 C   0  0  0  0  0  0  0  0  0  0  0  0
   11.1375  -15.3778   -0.3045 C   0  0  0  0  0  0  0  0  0  0  0  0
   10.2212  -15.1241   -1.4761 C   0  0  0  0  0  0  0  0  0  0  0  0
   10.9749  -14.7792   -2.5116 C   0  0  0  0  0  0  0  0  0  0  0  0
   12.4143  -14.7936   -2.0590 C   0  0  0  0  0  0  0  0  0  0  0  0
   12.3654  -15.9410   -1.0376 C   0  0  0  0  0  0  0  0  0  0  0  0
   12.5868  -13.5927   -1.0955 C   0  0  0  0  0  0  0  0  0  0  0  0
   -6.1006    7.3113   -3.1631 H   0  0  0  0  0  0  0  0  0  0  0  0
   -9.2596    7.3578    2.2724 H   0  0  0  0  0  0  0  0  0  0  0  0
   -9.4109   11.1767   -1.0507 H   0  0  0  0  0  0  0  0  0  0  0  0
  -11.9550   11.4769    1.2370 H   0  0  0  0  0  0  0  0  0  0  0  0
  -10.0211   13.2058    1.8417 H   0  0  0  0  0  0  0  0  0  0  0  0
  -12.0035   13.5534    3.5307 H   0  0  0  0  0  0  0  0  0  0  0  0
  -11.9411   11.5716    5.2987 H   0  0  0  0  0  0  0  0  0  0  0  0
   -9.9201   10.0017    4.6965 H   0  0  0  0  0  0  0  0  0  0  0  0
   -8.8071   12.3041    4.0145 H   0  0  0  0  0  0  0  0  0  0  0  0
   -8.5316   11.1394    2.6994 H   0  0  0  0  0  0  0  0  0  0  0  0
  -11.8972    9.5355    2.9718 H   0  0  0  0  0  0  0  0  0  0  0  0
   -4.4093    7.2275   -6.1642 H   0  0  0  0  0  0  0  0  0  0  0  0
   -6.2779    7.8603   -7.6360 H   0  0  0  0  0  0  0  0  0  0  0  0
  -10.6567    6.5681   -6.1548 H   0  0  0  0  0  0  0  0  0  0  0  0
  -10.3406    5.2106   -7.2855 H   0  0  0  0  0  0  0  0  0  0  0  0
  -11.2524    6.6352   -7.8274 H   0  0  0  0  0  0  0  0  0  0  0  0
   -8.8528    5.1933   -5.4976 H   0  0  0  0  0  0  0  0  0  0  0  0
   -7.0016    4.5577   -4.0559 H   0  0  0  0  0  0  0  0  0  0  0  0
   -4.0101    4.1200   -6.3956 H   0  0  0  0  0  0  0  0  0  0  0  0
   -1.7734    3.6489   -7.3371 H   0  0  0  0  0  0  0  0  0  0  0  0
    2.0857    5.9435   -5.3005 H   0  0  0  0  0  0  0  0  0  0  0  0
    1.7826    4.4304   -4.3852 H   0  0  0  0  0  0  0  0  0  0  0  0
    2.9823    4.4644   -5.6978 H   0  0  0  0  0  0  0  0  0  0  0  0
    0.0122    6.0343   -4.2677 H   0  0  0  0  0  0  0  0  0  0  0  0
   -2.2062    6.4769   -3.3306 H   0  0  0  0  0  0  0  0  0  0  0  0
   -3.3335    0.1964   -0.4983 H   0  0  0  0  0  0  0  0  0  0  0  0
   -2.4346   -1.9126    0.3100 H   0  0  0  0  0  0  0  0  0  0  0  0
    0.2149   -3.9369    2.0485 H   0  0  0  0  0  0  0  0  0  0  0  0
   -0.0511   -2.3852    1.2146 H   0  0  0  0  0  0  0  0  0  0  0  0
   -1.1169   -3.7887    0.8810 H   0  0  0  0  0  0  0  0  0  0  0  0
   -2.5057   -0.4157    4.3133 H   0  0  0  0  0  0  0  0  0  0  0  0
   -3.3277    1.7523    3.4817 H   0  0  0  0  0  0  0  0  0  0  0  0
   -6.0208    1.3849    1.7241 H   0  0  0  0  0  0  0  0  0  0  0  0
   -7.8286    2.5259    2.9163 H   0  0  0  0  0  0  0  0  0  0  0  0
   -9.3258    4.5779    2.0208 H   0  0  0  0  0  0  0  0  0  0  0  0
   -9.7466    3.6040    3.4687 H   0  0  0  0  0  0  0  0  0  0  0  0
  -10.3355    5.2690    3.3209 H   0  0  0  0  0  0  0  0  0  0  0  0
   -5.4194    6.0459    3.2114 H   0  0  0  0  0  0  0  0  0  0  0  0
   -3.6110    4.8967    1.9871 H   0  0  0  0  0  0  0  0  0  0  0  0
    1.7831    3.8535    2.4034 H   0  0  0  0  0  0  0  0  0  0  0  0
    3.2089    2.9809    4.2125 H   0  0  0  0  0  0  0  0  0  0  0  0
    3.3426   -1.5133    4.1977 H   0  0  0  0  0  0  0  0  0  0  0  0
    2.3551   -1.7091    5.6857 H   0  0  0  0  0  0  0  0  0  0  0  0
    4.1299   -1.7377    5.7724 H   0  0  0  0  0  0  0  0  0  0  0  0
    0.9852   -0.6738    4.1974 H   0  0  0  0  0  0  0  0  0  0  0  0
   -0.3956    0.1867    2.3849 H   0  0  0  0  0  0  0  0  0  0  0  0
   -0.1254    4.0495   -1.0426 H   0  0  0  0  0  0  0  0  0  0  0  0
   -1.0400    6.2965   -1.1914 H   0  0  0  0  0  0  0  0  0  0  0  0
   -3.4079    7.2037   -1.1044 H   0  0  0  0  0  0  0  0  0  0  0  0
   -2.1078    8.3725   -1.5172 H   0  0  0  0  0  0  0  0  0  0  0  0
   -3.6418    8.9447   -0.8371 H   0  0  0  0  0  0  0  0  0  0  0  0
   -1.8027    6.2725    3.0125 H   0  0  0  0  0  0  0  0  0  0  0  0
   -0.9584    3.9602    3.1484 H   0  0  0  0  0  0  0  0  0  0  0  0
    2.3204   -3.3463   -4.7656 H   0  0  0  0  0  0  0  0  0  0  0  0
    2.9098   -5.7382   -4.6870 H   0  0  0  0  0  0  0  0  0  0  0  0
    1.0746   -8.3411   -1.0690 H   0  0  0  0  0  0  0  0  0  0  0  0
    2.6443   -7.8247   -0.3577 H   0  0  0  0  0  0  0  0  0  0  0  0
    2.4990   -9.4073   -1.1396 H   0  0  0  0  0  0  0  0  0  0  0  0
    1.2769   -6.0042   -0.7413 H   0  0  0  0  0  0  0  0  0  0  0  0
    0.6589   -3.6574   -0.8410 H   0  0  0  0  0  0  0  0  0  0  0  0
   -0.4886   -2.9949   -4.5980 H   0  0  0  0  0  0  0  0  0  0  0  0
   -1.3427   -1.9026   -6.5994 H   0  0  0  0  0  0  0  0  0  0  0  0
   -2.1684    0.1650   -9.4849 H   0  0  0  0  0  0  0  0  0  0  0  0
   -1.2555   -1.2238   -8.8566 H   0  0  0  0  0  0  0  0  0  0  0  0
   -2.7132   -0.6323   -7.9934 H   0  0  0  0  0  0  0  0  0  0  0  0
    0.9912    1.5685   -5.7127 H   0  0  0  0  0  0  0  0  0  0  0  0
    1.8771    0.4485   -3.6996 H   0  0  0  0  0  0  0  0  0  0  0  0
    2.9437   -3.8823    3.8908 H   0  0  0  0  0  0  0  0  0  0  0  0
    0.8843   -5.0284    4.5686 H   0  0  0  0  0  0  0  0  0  0  0  0
   -0.1945   -7.3178    4.8752 H   0  0  0  0  0  0  0  0  0  0  0  0
    0.0798   -8.5452    3.6309 H   0  0  0  0  0  0  0  0  0  0  0  0
   -1.3078   -5.8497    3.2143 H   0  0  0  0  0  0  0  0  0  0  0  0
   -0.9940   -7.0317    1.9394 H   0  0  0  0  0  0  0  0  0  0  0  0
   -2.0940   -7.4282    3.2631 H   0  0  0  0  0  0  0  0  0  0  0  0
    1.9931   -8.4007    2.2033 H   0  0  0  0  0  0  0  0  0  0  0  0
    4.0423   -7.2582    1.5164 H   0  0  0  0  0  0  0  0  0  0  0  0
    5.3282   -5.5632    4.6726 H   0  0  0  0  0  0  0  0  0  0  0  0
    6.5202   -4.4094    6.4782 H   0  0  0  0  0  0  0  0  0  0  0  0
    8.1019   -2.6305    7.0959 H   0  0  0  0  0  0  0  0  0  0  0  0
    8.3172   -1.2189    6.0511 H   0  0  0  0  0  0  0  0  0  0  0  0
    7.1034   -0.6094    8.1277 H   0  0  0  0  0  0  0  0  0  0  0  0
    5.8461   -1.7907    7.7591 H   0  0  0  0  0  0  0  0  0  0  0  0
    6.0644   -0.3781    6.7206 H   0  0  0  0  0  0  0  0  0  0  0  0
    7.0603   -1.0138    3.9563 H   0  0  0  0  0  0  0  0  0  0  0  0
    5.8935   -2.1720    2.1415 H   0  0  0  0  0  0  0  0  0  0  0  0
    2.7883   -2.3911    1.8112 H   0  0  0  0  0  0  0  0  0  0  0  0
    6.7751   -6.7010    2.8852 H   0  0  0  0  0  0  0  0  0  0  0  0
    8.2032   -7.8939    1.2756 H   0  0  0  0  0  0  0  0  0  0  0  0
    6.5288   -5.6429   -1.9681 H   0  0  0  0  0  0  0  0  0  0  0  0
    8.5733   -7.0525   -2.2632 H   0  0  0  0  0  0  0  0  0  0  0  0
   12.0194  -10.9749   -2.8738 H   0  0  0  0  0  0  0  0  0  0  0  0
    9.1410  -12.3697    1.0562 H   0  0  0  0  0  0  0  0  0  0  0  0
   12.1597  -14.0223    1.1062 H   0  0  0  0  0  0  0  0  0  0  0  0
   10.7243  -15.9680    0.5089 H   0  0  0  0  0  0  0  0  0  0  0  0
    9.1494  -15.1641   -1.4169 H   0  0  0  0  0  0  0  0  0  0  0  0
   10.6584  -14.4736   -3.4916 H   0  0  0  0  0  0  0  0  0  0  0  0
   13.1638  -14.8530   -2.8438 H   0  0  0  0  0  0  0  0  0  0  0  0
   12.1726  -16.9078   -1.4998 H   0  0  0  0  0  0  0  0  0  0  0  0
   13.2544  -16.0032   -0.4114 H   0  0  0  0  0  0  0  0  0  0  0  0
   13.6330  -13.3584   -0.9085 H   0  0  0  0  0  0  0  0  0  0  0  0
  1  2  2  0  0  0  0
  2  3  1  0  0  0  0
  3  4  2  0  0  0  0
  3  5  1  0  0  0  0
  5  6  2  0  0  0  0
  6  7  1  0  0  0  0
  7  8  2  0  0  0  0
  8  9  1  0  0  0  0
  9 10  2  0  0  0  0
 10 11  1  0  0  0  0
 11 12  2  0  0  0  0
 12 13  1  0  0  0  0
 13 14  3  0  0  0  0
 12 15  1  0  0  0  0
 15 16  3  0  0  0  0
  8 17  1  0  0  0  0
 17 18  1  0  0  0  0
 18 19  1  0  0  0  0
 19 20  2  0  0  0  0
 20 21  1  0  0  0  0
 21 22  1  0  0  0  0
 21 23  1  0  0  0  0
  1 24  1  0  0  0  0
 24 25  2  0  0  0  0
 25 26  1  0  0  0  0
 26 27  1  0  0  0  0
 27 28  2  0  0  0  0
 28 29  1  0  0  0  0
 29 30  2  0  0  0  0
 30 31  1  0  0  0  0
 31 32  1  0  0  0  0
 30 33  1  0  0  0  0
 33 34  2  0  0  0  0
 26 35  1  0  0  0  0
 35 36  2  0  0  0  0
 36 37  1  0  0  0  0
 37 38  2  0  0  0  0
 38 39  1  0  0  0  0
 39 40  1  0  0  0  0
 38 41  1  0  0  0  0
 41 42  2  0  0  0  0
 25 43  1  0  0  0  0
 43 44  1  0  0  0  0
 44 45  1  0  0  0  0
 45 46  2  0  0  0  0
 46 47  1  0  0  0  0
 47 48  1  0  0  0  0
 48 49  2  0  0  0  0
 49 50  1  0  0  0  0
 50 51  2  0  0  0  0
 51 52  1  0  0  0  0
 52 53  1  0  0  0  0
 51 54  1  0  0  0  0
 54 55  2  0  0  0  0
 47 56  1  0  0  0  0
 56 57  2  0  0  0  0
 57 58  1  0  0  0  0
 58 59  2  0  0  0  0
 59 60  1  0  0  0  0
 60 61  1  0  0  0  0
 59 62  1  0  0  0  0
 62 63  2  0  0  0  0
 46 64  1  0  0  0  0
 64 65  1  0  0  0  0
 45 66  1  0  0  0  0
 66 67  2  0  0  0  0
 67 68  1  0  0  0  0
 68 69  1  0  0  0  0
 69 70  2  0  0  0  0
 70 71  1  0  0  0  0
 71 72  2  0  0  0  0
 72 73  1  0  0  0  0
 73 74  1  0  0  0  0
 72 75  1  0  0  0  0
 75 76  2  0  0  0  0
 68 77  1  0  0  0  0
 77 78  2  0  0  0  0
 78 79  1  0  0  0  0
 79 80  2  0  0  0  0
 80 81  1  0  0  0  0
 81 82  1  0  0  0  0
 80 83  1  0  0  0  0
 83 84  2  0  0  0  0
 67 85  1  0  0  0  0
 85 86  1  0  0  0  0
 86 87  1  0  0  0  0
 87 88  2  0  0  0  0
 88 89  1  0  0  0  0
 89 90  1  0  0  0  0
 90 91  2  0  0  0  0
 91 92  1  0  0  0  0
 92 93  2  0  0  0  0
 93 94  1  0  0  0  0
 94 95  1  0  0  0  0
 93 96  1  0  0  0  0
 96 97  2  0  0  0  0
 89 98  1  0  0  0  0
 98 99  2  0  0  0  0
 99100  1  0  0  0  0
100101  2  0  0  0  0
101102  1  0  0  0  0
102103  1  0  0  0  0
101104  1  0  0  0  0
104105  2  0  0  0  0
 88106  1  0  0  0  0
106107  1  0  0  0  0
 87108  1  0  0  0  0
108109  1  0  0  0  0
109110  1  0  0  0  0
110111  1  0  0  0  0
111112  2  0  0  0  0
112113  1  0  0  0  0
113114  1  0  0  0  0
114115  2  0  0  0  0
115116  1  0  0  0  0
116117  2  0  0  0  0
117118  1  0  0  0  0
118119  1  0  0  0  0
117120  1  0  0  0  0
120121  2  0  0  0  0
113122  1  0  0  0  0
122123  2  0  0  0  0
123124  1  0  0  0  0
124125  2  0  0  0  0
125126  1  0  0  0  0
126127  1  0  0  0  0
125128  1  0  0  0  0
128129  2  0  0  0  0
113130  1  0  0  0  0
130131  1  0  0  0  0
112132  1  0  0  0  0
132133  2  0  0  0  0
133134  1  0  0  0  0
134135  2  0  0  0  0
134136  1  0  0  0  0
136137  2  0  0  0  0
137138  1  0  0  0  0
138139  2  0  0  0  0
138140  1  0  0  0  0
140141  2  0  0  0  0
141142  1  0  0  0  0
142143  2  0  0  0  0
143144  1  0  0  0  0
144145  2  0  0  0  0
145146  1  0  0  0  0
146147  2  0  0  0  0
147148  1  0  0  0  0
148149  3  0  0  0  0
147150  1  0  0  0  0
150151  3  0  0  0  0
143152  1  0  0  0  0
152153  1  0  0  0  0
153154  1  0  0  0  0
154155  2  0  0  0  0
155156  1  0  0  0  0
156157  1  0  0  0  0
156158  1  0  0  0  0
 11  2  1  0  0  0  0
 23 17  1  0  0  0  0
 65 24  1  0  0  0  0
107 66  1  0  0  0  0
131108  2  0  0  0  0
146137  1  0  0  0  0
158152  1  0  0  0  0
 10  5  1  0  0  0  0
 22 18  1  0  0  0  0
 34 27  1  0  0  0  0
 42 35  1  0  0  0  0
 64 43  2  0  0  0  0
 76 69  1  0  0  0  0
 84 77  1  0  0  0  0
106 85  2  0  0  0  0
130110  2  0  0  0  0
145140  1  0  0  0  0
157153  1  0  0  0  0
 23  7  1  0  0  0  0
 55 48  1  0  0  0  0
 63 56  1  0  0  0  0
 97 90  1  0  0  0  0
105 98  1  0  0  0  0
135111  1  0  0  0  0
158142  1  0  0  0  0
121114  1  0  0  0  0
129122  1  0  0  0  0
  1159  1  0  0  0  0
  6160  1  0  0  0  0
  9161  1  0  0  0  0
 17162  1  0  0  0  0
 18163  1  0  0  0  0
 19164  1  0  0  0  0
 20165  1  0  0  0  0
 21166  1  0  0  0  0
 22167  1  0  0  0  0
 22168  1  0  0  0  0
 23169  1  0  0  0  0
 28170  1  0  0  0  0
 29171  1  0  0  0  0
 32172  1  0  0  0  0
 32173  1  0  0  0  0
 32174  1  0  0  0  0
 33175  1  0  0  0  0
 34176  1  0  0  0  0
 36177  1  0  0  0  0
 37178  1  0  0  0  0
 40179  1  0  0  0  0
 40180  1  0  0  0  0
 40181  1  0  0  0  0
 41182  1  0  0  0  0
 42183  1  0  0  0  0
 49184  1  0  0  0  0
 50185  1  0  0  0  0
 53186  1  0  0  0  0
 53187  1  0  0  0  0
 53188  1  0  0  0  0
 54189  1  0  0  0  0
 55190  1  0  0  0  0
 57191  1  0  0  0  0
 58192  1  0  0  0  0
 61193  1  0  0  0  0
 61194  1  0  0  0  0
 61195  1  0  0  0  0
 62196  1  0  0  0  0
 63197  1  0  0  0  0
 70198  1  0  0  0  0
 71199  1  0  0  0  0
 74200  1  0  0  0  0
 74201  1  0  0  0  0
 74202  1  0  0  0  0
 75203  1  0  0  0  0
 76204  1  0  0  0  0
 78205  1  0  0  0  0
 79206  1  0  0  0  0
 82207  1  0  0  0  0
 82208  1  0  0  0  0
 82209  1  0  0  0  0
 83210  1  0  0  0  0
 84211  1  0  0  0  0
 91212  1  0  0  0  0
 92213  1  0  0  0  0
 95214  1  0  0  0  0
 95215  1  0  0  0  0
 95216  1  0  0  0  0
 96217  1  0  0  0  0
 97218  1  0  0  0  0
 99219  1  0  0  0  0
100220  1  0  0  0  0
103221  1  0  0  0  0
103222  1  0  0  0  0
103223  1  0  0  0  0
104224  1  0  0  0  0
105225  1  0  0  0  0
115226  1  0  0  0  0
116227  1  0  0  0  0
118228  1  0  0  0  0
118229  1  0  0  0  0
119230  1  0  0  0  0
119231  1  0  0  0  0
119232  1  0  0  0  0
120233  1  0  0  0  0
121234  1  0  0  0  0
123235  1  0  0  0  0
124236  1  0  0  0  0
126237  1  0  0  0  0
126238  1  0  0  0  0
127239  1  0  0  0  0
127240  1  0  0  0  0
127241  1  0  0  0  0
128242  1  0  0  0  0
129243  1  0  0  0  0
131244  1  0  0  0  0
132245  1  0  0  0  0
133246  1  0  0  0  0
135247  1  0  0  0  0
136248  1  0  0  0  0
141249  1  0  0  0  0
144250  1  0  0  0  0
152251  1  0  0  0  0
153252  1  0  0  0  0
154253  1  0  0  0  0
155254  1  0  0  0  0
156255  1  0  0  0  0
157256  1  0  0  0  0
157257  1  0  0  0  0
158258  1  0  0  0  0
M  END
