171

C          6.85670       -3.25240       -3.80670
C          7.69610       -3.80180       -2.90010
C          7.49200       -3.90030       -1.42320
O          6.47100       -3.73400       -0.79020
C          8.81740       -4.20860       -0.86270
C          9.14070       -4.31090        0.48960
C         10.47220       -4.53750        0.73150
C         11.42130       -4.65310       -0.29550
C         11.11570       -4.57480       -1.63170
C          9.76050       -4.34810       -1.90090
C          9.07360       -4.20170       -3.17480
C          9.60000       -4.46990       -4.40830
C          8.88550       -4.41910       -5.62570
N          8.37520       -4.42390       -6.65390
C         10.93010       -4.88670       -4.63190
N         11.99810       -5.22140       -4.88640
C         12.56410       -4.82820        0.67260
C         13.45750       -3.59100        0.90690
C         14.15960       -3.89510        2.21070
C         13.26290       -3.79790        3.18390
C         11.94040       -3.42500        2.55430
C         12.43600       -2.55410        1.39270
C         11.50590       -4.70930        1.81590
C          5.51370       -2.79000       -3.55790
C          4.59370       -3.46690       -2.71560
N          4.82270       -4.75750       -2.39280
C          4.02710       -5.32710       -1.54850
C          2.96000       -4.60350       -0.93190
O          2.27810       -5.21800        0.02310
C          1.23290       -4.47780        0.64780
C          0.56390       -5.37090        1.67590
N          2.63160       -3.40040       -1.33590
C          3.41250       -2.82060       -2.27350
C          3.03400       -1.56970       -2.82590
C          3.84610       -1.03920       -3.81480
C          5.07310       -1.61440       -4.14480
F          5.89240       -0.93810       -4.97130
F          3.52270        0.13310       -4.38670
C          1.87750       -0.82990       -2.35130
C          1.64420       -0.37460       -1.06510
N          2.48700       -0.54940        0.01820
C          3.87750       -0.58140       -0.14990
C          4.49570        0.21780       -1.11000
C          5.85400        0.12710       -1.33940
C          6.62710       -0.74050       -0.58180
S          8.35560       -0.99460       -0.84780
C          8.65880       -0.25370       -2.47830
C          6.03250       -1.46840        0.44580
C          4.67120       -1.40460        0.64730
C          1.92210       -0.59580        1.29960
C          0.69520       -1.22480        1.50120
C          0.09310       -1.22420        2.74390
C          0.70830       -0.58720        3.81120
S          0.00080       -0.49170        5.42560
C         -1.75490       -0.84420        5.12050
C          1.95330        0.01060        3.62540
C          2.55390        0.00970        2.38670
C          0.44590        0.38430       -1.01370
S         -0.41960        1.17750        0.25940
C         -1.62660        1.73180       -0.88650
C         -1.42070        1.22170       -2.17590
N         -2.32770        1.25800       -3.20750
C         -1.85010        1.30740       -4.52390
C         -2.46040        0.56390       -5.52970
C         -1.97730        0.60230       -6.82250
C         -0.86940        1.38340       -7.12910
S         -0.15730        1.50880       -8.73420
C         -1.13380        0.35860       -9.74380
C         -0.26290        2.13780       -6.12410
C         -0.74740        2.10390       -4.83750
C         -3.70330        1.26490       -2.95050
C         -4.22240        0.58100       -1.85190
C         -5.55630        0.67980       -1.51760
C         -6.41210        1.45240       -2.29530
S         -8.11300        1.70250       -1.93320
C         -8.41910        0.63400       -0.50090
C         -5.91300        2.07870       -3.43800
C         -4.57910        1.98510       -3.76480
C         -0.20410        0.49910       -2.23260
S          0.66020       -0.30640       -3.49490
C         -2.65360        2.58790       -0.42010
C         -3.30630        3.55910       -1.21080
C         -4.44870        4.30420       -0.72980
N         -4.88300        5.17820       -1.63550
S         -3.93420        5.11330       -2.92890
N         -2.94520        3.94750       -2.43570
C         -5.02460        4.08600        0.54320
C         -4.26230        3.24880        1.38990
N         -4.46670        3.04670        2.68920
S         -3.34600        2.04960        3.25450
N         -2.52150        1.82210        1.89050
C         -3.09010        2.54110        0.92280
C         -6.20620        4.75460        0.93110
C         -7.10400        4.30320        1.86270
C         -7.27170        2.89160        2.25290
O         -6.69260        1.91390        1.80840
C         -8.42420        2.85890        3.17240
C         -8.94400        1.74290        3.82480
C        -10.03310        2.01360        4.61780
C        -10.57410        3.29920        4.74490
C        -10.07640        4.40760        4.10140
C         -8.96430        4.15440        3.29340
C         -8.16200        5.06830        2.48200
C         -8.33530        6.42660        2.39710
C         -7.48740        7.31000        1.69660
N         -6.84040        8.10750        1.18230
C         -9.37830        7.13870        3.02280
N        -10.20910        7.77550        3.49560
C        -11.65500        2.83850        5.69130
C        -13.06980        2.67320        5.09740
C        -13.77620        1.77890        6.09040
C        -13.26340        0.56080        5.97240
C        -12.20170        0.61130        4.89740
C        -12.81680        1.66580        3.96830
C        -11.05060        1.40460        5.55130
H          7.23220       -3.03830       -4.80090
H          8.38210       -4.20970        1.24950
H         11.85400       -4.66640       -2.41090
H         13.13210       -5.75160        0.57890
H         14.08710       -3.31900        0.06420
H         15.18870       -4.19440        2.28230
H         13.39370       -3.99980        4.23090
H         11.18650       -3.00090        3.21190
H         12.91350       -1.63950        1.74030
H         11.66570       -2.30790        0.66410
H         11.36190       -5.55730        2.48260
H          4.18030       -6.37230       -1.32490
H          1.66420       -3.58830        1.12000
H          0.52390       -4.14950       -0.12070
H          1.29170       -5.70270        2.41100
H          0.13390       -6.24490        1.19430
H         -0.22250       -4.81780        2.18070
H          3.90700        0.91720       -1.68500
H          6.29620        0.74630       -2.10380
H          7.94750       -0.64390       -3.20010
H          8.60330        0.82910       -2.41710
H          9.66630       -0.55160       -2.75300
H          6.64480       -2.09570        1.07210
H          4.21440       -2.00450        1.41940
H          0.20580       -1.71450        0.67360
H         -0.85660       -1.71950        2.86220
H         -2.09500       -0.25740        4.27210
H         -2.27980       -0.53880        6.02020
H         -1.90420       -1.90730        4.95370
H          2.43270        0.49500        4.46190
H          3.50620        0.49870        2.24760
H         -3.31460       -0.05360       -5.29370
H         -2.46970        0.01240       -7.57830
H         -0.68970        0.39190      -10.73380
H         -2.16730        0.68860       -9.79370
H         -1.05640       -0.64630       -9.33950
H          0.58910        2.75140       -6.37130
H         -0.29140        2.70490       -4.06610
H         -3.56950       -0.02390       -1.24030
H         -5.91330        0.16440       -0.64180
H         -9.46420        0.78060       -0.24550
H         -8.24630       -0.40290       -0.77450
H         -7.78760        0.93730        0.33050
H         -6.58470        2.65860       -4.05220
H         -4.19620        2.50020       -4.63300
H         -6.40140        5.68020        0.40430
H         -8.49510        0.76920        3.70250
H        -10.50540        5.38970        4.20860
H        -11.65820        3.30890        6.67270
H        -13.56580        3.60400        4.83710
H        -14.51190        2.12520        6.79230
H        -13.48500       -0.31340        6.55630
H        -11.90860       -0.33720        4.45490
H        -13.74200        1.32110        3.50930
H        -12.13930        2.02650        3.19660
H        -10.65060        0.92000        6.44030
