
  xtb     02122215523D
 energy: -352.447828221673 gnorm: 0.000952327368 xtb: 6.4.1 (unknown)
204226  0     0  0            999 V2000
   -5.8718   -8.0462   -2.6407 C   0  0  0  0  0  0  0  0  0  0  0  0
   -6.2873   -8.9244   -1.6847 C   0  0  0  0  0  0  0  0  0  0  0  0
   -5.9031   -9.0020   -0.2514 C   0  0  0  0  0  0  0  0  0  0  0  0
   -5.3591   -8.1637    0.4372 O   0  0  0  0  0  0  0  0  0  0  0  0
   -6.3167  -10.3426    0.1998 C   0  0  0  0  0  0  0  0  0  0  0  0
   -6.0713  -10.9107    1.4484 C   0  0  0  0  0  0  0  0  0  0  0  0
   -6.5532  -12.1896    1.5854 C   0  0  0  0  0  0  0  0  0  0  0  0
   -7.2217  -12.8616    0.5520 C   0  0  0  0  0  0  0  0  0  0  0  0
   -7.4762  -12.3114   -0.6811 C   0  0  0  0  0  0  0  0  0  0  0  0
   -7.0054  -11.0041   -0.8361 C   0  0  0  0  0  0  0  0  0  0  0  0
   -7.0939  -10.1029   -1.9787 C   0  0  0  0  0  0  0  0  0  0  0  0
   -7.8735  -10.3004   -3.0863 C   0  0  0  0  0  0  0  0  0  0  0  0
   -8.6673  -11.4470   -3.3039 C   0  0  0  0  0  0  0  0  0  0  0  0
   -9.3366  -12.3479   -3.5451 N   0  0  0  0  0  0  0  0  0  0  0  0
   -8.0520   -9.3782   -4.1410 C   0  0  0  0  0  0  0  0  0  0  0  0
   -8.2775   -8.6784   -5.0230 N   0  0  0  0  0  0  0  0  0  0  0  0
   -7.4161  -14.1068    1.3798 C   0  0  0  0  0  0  0  0  0  0  0  0
   -8.8225  -14.3616    1.9755 C   0  0  0  0  0  0  0  0  0  0  0  0
   -9.4736  -13.0090    2.1266 C   0  0  0  0  0  0  0  0  0  0  0  0
   -8.8502  -12.3671    3.1056 C   0  0  0  0  0  0  0  0  0  0  0  0
   -7.7668  -13.2743    3.6349 C   0  0  0  0  0  0  0  0  0  0  0  0
   -8.4387  -14.6425    3.4371 C   0  0  0  0  0  0  0  0  0  0  0  0
   -6.6802  -13.3551    2.5336 C   0  0  0  0  0  0  0  0  0  0  0  0
   -5.0649   -6.8859   -2.5496 C   0  0  0  0  0  0  0  0  0  0  0  0
   -4.6015   -6.1665   -1.4779 C   0  0  0  0  0  0  0  0  0  0  0  0
   -3.8051   -5.0624   -1.8418 C   0  0  0  0  0  0  0  0  0  0  0  0
   -3.1544   -4.1526   -0.9909 C   0  0  0  0  0  0  0  0  0  0  0  0
   -3.3346   -4.1512    0.4669 C   0  0  0  0  0  0  0  0  0  0  0  0
   -2.2289   -4.1107    1.3114 C   0  0  0  0  0  0  0  0  0  0  0  0
   -2.4154   -4.0227    2.6756 C   0  0  0  0  0  0  0  0  0  0  0  0
   -1.3263   -3.9913    3.4665 F   0  0  0  0  0  0  0  0  0  0  0  0
   -3.6715   -3.9559    3.2692 C   0  0  0  0  0  0  0  0  0  0  0  0
   -3.8377   -3.8668    4.7569 C   0  0  0  0  0  0  0  0  0  0  0  0
   -3.6605   -5.2431    5.4018 C   0  0  0  0  0  0  0  0  0  0  0  0
   -4.7485   -4.0112    2.3921 C   0  0  0  0  0  0  0  0  0  0  0  0
   -5.9976   -3.9347    2.8995 F   0  0  0  0  0  0  0  0  0  0  0  0
   -4.6093   -4.1113    1.0217 C   0  0  0  0  0  0  0  0  0  0  0  0
   -2.3511   -3.2054   -1.5976 C   0  0  0  0  0  0  0  0  0  0  0  0
   -2.1781   -3.0821   -3.0024 C   0  0  0  0  0  0  0  0  0  0  0  0
   -2.8669   -3.9640   -3.8515 C   0  0  0  0  0  0  0  0  0  0  0  0
   -2.7978   -3.8750   -5.3177 C   0  0  0  0  0  0  0  0  0  0  0  0
   -1.5805   -3.9310   -5.9864 C   0  0  0  0  0  0  0  0  0  0  0  0
   -1.5704   -3.8998   -7.3669 C   0  0  0  0  0  0  0  0  0  0  0  0
   -2.7178   -3.7929   -8.1429 C   0  0  0  0  0  0  0  0  0  0  0  0
   -2.6826   -3.8067   -9.6422 C   0  0  0  0  0  0  0  0  0  0  0  0
   -2.8544   -5.2345  -10.1664 C   0  0  0  0  0  0  0  0  0  0  0  0
   -3.9120   -3.7263   -7.4331 C   0  0  0  0  0  0  0  0  0  0  0  0
   -3.9734   -3.7701   -6.0554 C   0  0  0  0  0  0  0  0  0  0  0  0
   -5.0629   -3.6085   -8.1221 F   0  0  0  0  0  0  0  0  0  0  0  0
   -0.3786   -3.9839   -8.0003 F   0  0  0  0  0  0  0  0  0  0  0  0
   -3.6552   -4.9357   -3.2492 C   0  0  0  0  0  0  0  0  0  0  0  0
   -4.5401   -6.1789   -4.0804 S   0  0  0  0  0  0  0  0  0  0  0  0
   -1.3512   -1.9774   -3.3408 C   0  0  0  0  0  0  0  0  0  0  0  0
   -0.9178   -1.2716   -2.2544 C   0  0  0  0  0  0  0  0  0  0  0  0
   -1.4967   -1.9590   -0.7444 S   0  0  0  0  0  0  0  0  0  0  0  0
   -0.1310   -0.0910   -2.0976 C   0  0  0  0  0  0  0  0  0  0  0  0
    0.8964    0.4861   -2.8351 C   0  0  0  0  0  0  0  0  0  0  0  0
    1.4231    0.0306   -4.0256 N   0  0  0  0  0  0  0  0  0  0  0  0
    2.0033    0.9999   -4.8718 C   0  0  0  0  0  0  0  0  0  0  0  0
    1.3115    2.1781   -5.1394 C   0  0  0  0  0  0  0  0  0  0  0  0
    1.8951    3.1872   -5.8790 C   0  0  0  0  0  0  0  0  0  0  0  0
    3.1830    3.0254   -6.3726 C   0  0  0  0  0  0  0  0  0  0  0  0
    4.0335    4.2661   -7.2861 S   0  0  0  0  0  0  0  0  0  0  0  0
    3.1274    5.7830   -6.8688 C   0  0  0  0  0  0  0  0  0  0  0  0
    3.8567    1.8243   -6.1530 C   0  0  0  0  0  0  0  0  0  0  0  0
    3.2788    0.8231   -5.4057 C   0  0  0  0  0  0  0  0  0  0  0  0
    1.5932   -1.3290   -4.3027 C   0  0  0  0  0  0  0  0  0  0  0  0
    1.6376   -1.7624   -5.6262 C   0  0  0  0  0  0  0  0  0  0  0  0
    1.8324   -3.0948   -5.9305 C   0  0  0  0  0  0  0  0  0  0  0  0
    1.9547   -4.0308   -4.9108 C   0  0  0  0  0  0  0  0  0  0  0  0
    2.1445   -5.7663   -5.1739 S   0  0  0  0  0  0  0  0  0  0  0  0
    2.3652   -5.9140   -6.9690 C   0  0  0  0  0  0  0  0  0  0  0  0
    1.9099   -3.6029   -3.5852 C   0  0  0  0  0  0  0  0  0  0  0  0
    1.7440   -2.2701   -3.2831 C   0  0  0  0  0  0  0  0  0  0  0  0
    1.4068    1.6340   -2.1639 C   0  0  0  0  0  0  0  0  0  0  0  0
    2.6503    2.7876   -2.5179 S   0  0  0  0  0  0  0  0  0  0  0  0
    2.3913    3.5627   -0.9658 C   0  0  0  0  0  0  0  0  0  0  0  0
    1.3327    3.0095   -0.2537 C   0  0  0  0  0  0  0  0  0  0  0  0
    0.7837    3.5479    0.8893 N   0  0  0  0  0  0  0  0  0  0  0  0
    0.6760    4.9468    1.0363 C   0  0  0  0  0  0  0  0  0  0  0  0
    0.4783    5.7732   -0.0699 C   0  0  0  0  0  0  0  0  0  0  0  0
    0.4053    7.1376    0.0897 C   0  0  0  0  0  0  0  0  0  0  0  0
    0.5181    7.7126    1.3541 C   0  0  0  0  0  0  0  0  0  0  0  0
    0.3737    9.4632    1.4396 S   0  0  0  0  0  0  0  0  0  0  0  0
    1.0047    9.8561    3.0940 C   0  0  0  0  0  0  0  0  0  0  0  0
    0.6857    6.8900    2.4598 C   0  0  0  0  0  0  0  0  0  0  0  0
    0.7651    5.5200    2.2998 C   0  0  0  0  0  0  0  0  0  0  0  0
    0.0359    2.6805    1.7080 C   0  0  0  0  0  0  0  0  0  0  0  0
    0.5971    1.4654    2.1054 C   0  0  0  0  0  0  0  0  0  0  0  0
   -0.1621    0.5367    2.7817 C   0  0  0  0  0  0  0  0  0  0  0  0
   -1.4969    0.8037    3.0749 C   0  0  0  0  0  0  0  0  0  0  0  0
   -2.4202   -0.4888    3.8427 S   0  0  0  0  0  0  0  0  0  0  0  0
   -4.1369   -0.0702    3.4193 C   0  0  0  0  0  0  0  0  0  0  0  0
   -2.0334    2.0454    2.7545 C   0  0  0  0  0  0  0  0  0  0  0  0
   -1.2723    2.9774    2.0766 C   0  0  0  0  0  0  0  0  0  0  0  0
    0.8051    1.8946   -0.9434 C   0  0  0  0  0  0  0  0  0  0  0  0
   -0.4434    0.7656   -0.5913 S   0  0  0  0  0  0  0  0  0  0  0  0
    3.1848    4.6802   -0.5837 C   0  0  0  0  0  0  0  0  0  0  0  0
    3.5244    5.7994   -1.3275 C   0  0  0  0  0  0  0  0  0  0  0  0
    4.2323    6.6922   -0.4802 C   0  0  0  0  0  0  0  0  0  0  0  0
    4.4392    6.0345    0.7913 C   0  0  0  0  0  0  0  0  0  0  0  0
    5.0948    6.3188    1.7708 O   0  0  0  0  0  0  0  0  0  0  0  0
    3.7194    4.8274    0.6723 N   0  0  0  0  0  0  0  0  0  0  0  0
    3.7918    3.8121    1.6865 C   0  0  0  0  0  0  0  0  0  0  0  0
    4.4881    7.8536   -1.1952 C   0  0  0  0  0  0  0  0  0  0  0  0
    3.9794    7.6764   -2.4643 N   0  0  0  0  0  0  0  0  0  0  0  0
    4.0149    8.6533   -3.5184 C   0  0  0  0  0  0  0  0  0  0  0  0
    3.3354    6.4386   -2.6080 C   0  0  0  0  0  0  0  0  0  0  0  0
    2.7773    6.0816   -3.6287 O   0  0  0  0  0  0  0  0  0  0  0  0
    5.2470    8.9930   -0.8263 C   0  0  0  0  0  0  0  0  0  0  0  0
    5.4323    9.4231    0.4510 C   0  0  0  0  0  0  0  0  0  0  0  0
    4.6122    9.0216    1.6298 C   0  0  0  0  0  0  0  0  0  0  0  0
    3.5026    8.5375    1.6192 O   0  0  0  0  0  0  0  0  0  0  0  0
    5.3516    9.5082    2.8060 C   0  0  0  0  0  0  0  0  0  0  0  0
    5.0717    9.2413    4.1435 C   0  0  0  0  0  0  0  0  0  0  0  0
    5.9530    9.8164    5.0265 C   0  0  0  0  0  0  0  0  0  0  0  0
    7.0294   10.6132    4.6113 C   0  0  0  0  0  0  0  0  0  0  0  0
    7.3103   10.8960    3.2964 C   0  0  0  0  0  0  0  0  0  0  0  0
    6.4300   10.3118    2.3802 C   0  0  0  0  0  0  0  0  0  0  0  0
    6.4347   10.3608    0.9209 C   0  0  0  0  0  0  0  0  0  0  0  0
    7.2468   11.1509    0.1479 C   0  0  0  0  0  0  0  0  0  0  0  0
    7.2176   11.2058   -1.2606 C   0  0  0  0  0  0  0  0  0  0  0  0
    7.2457   11.3004   -2.4053 N   0  0  0  0  0  0  0  0  0  0  0  0
    8.1983   12.0585    0.6583 C   0  0  0  0  0  0  0  0  0  0  0  0
    8.9896   12.8161    1.0019 N   0  0  0  0  0  0  0  0  0  0  0  0
    7.5147   10.8322    6.0223 C   0  0  0  0  0  0  0  0  0  0  0  0
    8.7464   10.0177    6.4907 C   0  0  0  0  0  0  0  0  0  0  0  0
    8.7645    8.7550    5.6650 C   0  0  0  0  0  0  0  0  0  0  0  0
    7.7462    8.0004    6.0556 C   0  0  0  0  0  0  0  0  0  0  0  0
    7.0220    8.7388    7.1546 C   0  0  0  0  0  0  0  0  0  0  0  0
    8.2031    9.4648    7.8179 C   0  0  0  0  0  0  0  0  0  0  0  0
    6.3166    9.9441    6.4843 C   0  0  0  0  0  0  0  0  0  0  0  0
   -6.1575   -8.2786   -3.6606 H   0  0  0  0  0  0  0  0  0  0  0  0
   -5.5429  -10.3614    2.2119 H   0  0  0  0  0  0  0  0  0  0  0  0
   -7.9861  -12.8426   -1.4673 H   0  0  0  0  0  0  0  0  0  0  0  0
   -6.9587  -15.0137    0.9896 H   0  0  0  0  0  0  0  0  0  0  0  0
   -9.4028  -15.1183    1.4547 H   0  0  0  0  0  0  0  0  0  0  0  0
  -10.2576  -12.6477    1.4873 H   0  0  0  0  0  0  0  0  0  0  0  0
   -9.0092  -11.3614    3.4480 H   0  0  0  0  0  0  0  0  0  0  0  0
   -7.3874  -13.0413    4.6263 H   0  0  0  0  0  0  0  0  0  0  0  0
   -9.3059  -14.7825    4.0804 H   0  0  0  0  0  0  0  0  0  0  0  0
   -7.7552  -15.4825    3.5526 H   0  0  0  0  0  0  0  0  0  0  0  0
   -5.7464  -13.7746    2.9032 H   0  0  0  0  0  0  0  0  0  0  0  0
   -4.8079   -6.4385   -0.4596 H   0  0  0  0  0  0  0  0  0  0  0  0
   -1.2262   -4.1642    0.9193 H   0  0  0  0  0  0  0  0  0  0  0  0
   -3.0899   -3.1787    5.1567 H   0  0  0  0  0  0  0  0  0  0  0  0
   -4.8313   -3.4820    4.9914 H   0  0  0  0  0  0  0  0  0  0  0  0
   -2.6644   -5.6300    5.2016 H   0  0  0  0  0  0  0  0  0  0  0  0
   -4.3926   -5.9438    5.0064 H   0  0  0  0  0  0  0  0  0  0  0  0
   -3.7942   -5.1696    6.4779 H   0  0  0  0  0  0  0  0  0  0  0  0
   -5.4893   -4.1287    0.3987 H   0  0  0  0  0  0  0  0  0  0  0  0
   -0.6545   -4.0246   -5.4420 H   0  0  0  0  0  0  0  0  0  0  0  0
   -3.4900   -3.1820  -10.0276 H   0  0  0  0  0  0  0  0  0  0  0  0
   -1.7301   -3.4027   -9.9888 H   0  0  0  0  0  0  0  0  0  0  0  0
   -3.8065   -5.6459   -9.8394 H   0  0  0  0  0  0  0  0  0  0  0  0
   -2.8296   -5.2378  -11.2529 H   0  0  0  0  0  0  0  0  0  0  0  0
   -2.0550   -5.8741   -9.7985 H   0  0  0  0  0  0  0  0  0  0  0  0
   -4.9336   -3.7118   -5.5683 H   0  0  0  0  0  0  0  0  0  0  0  0
   -1.1275   -1.6999   -4.3546 H   0  0  0  0  0  0  0  0  0  0  0  0
    0.3119    2.3077   -4.7497 H   0  0  0  0  0  0  0  0  0  0  0  0
    1.3431    4.0954   -6.0536 H   0  0  0  0  0  0  0  0  0  0  0  0
    2.9806    5.8283   -5.7931 H   0  0  0  0  0  0  0  0  0  0  0  0
    3.7602    6.6011   -7.1998 H   0  0  0  0  0  0  0  0  0  0  0  0
    2.1818    5.8148   -7.4028 H   0  0  0  0  0  0  0  0  0  0  0  0
    4.8508    1.7004   -6.5538 H   0  0  0  0  0  0  0  0  0  0  0  0
    3.8193   -0.0907   -5.2094 H   0  0  0  0  0  0  0  0  0  0  0  0
    1.5230   -1.0464   -6.4262 H   0  0  0  0  0  0  0  0  0  0  0  0
    1.8678   -3.3898   -6.9655 H   0  0  0  0  0  0  0  0  0  0  0  0
    1.4684   -5.5902   -7.4872 H   0  0  0  0  0  0  0  0  0  0  0  0
    3.2312   -5.3374   -7.2803 H   0  0  0  0  0  0  0  0  0  0  0  0
    2.5373   -6.9697   -7.1542 H   0  0  0  0  0  0  0  0  0  0  0  0
    2.0195   -4.3301   -2.7953 H   0  0  0  0  0  0  0  0  0  0  0  0
    1.7516   -1.9534   -2.2518 H   0  0  0  0  0  0  0  0  0  0  0  0
    0.3783    5.3446   -1.0558 H   0  0  0  0  0  0  0  0  0  0  0  0
    0.2536    7.7759   -0.7669 H   0  0  0  0  0  0  0  0  0  0  0  0
    0.3005    9.5340    3.8560 H   0  0  0  0  0  0  0  0  0  0  0  0
    1.9736    9.3808    3.2084 H   0  0  0  0  0  0  0  0  0  0  0  0
    1.1103   10.9362    3.1245 H   0  0  0  0  0  0  0  0  0  0  0  0
    0.7600    7.3024    3.4524 H   0  0  0  0  0  0  0  0  0  0  0  0
    0.8893    4.8863    3.1668 H   0  0  0  0  0  0  0  0  0  0  0  0
    1.6230    1.2441    1.8499 H   0  0  0  0  0  0  0  0  0  0  0  0
    0.2592   -0.4145    3.0665 H   0  0  0  0  0  0  0  0  0  0  0  0
   -4.1953    0.1661    2.3612 H   0  0  0  0  0  0  0  0  0  0  0  0
   -4.4902    0.7562    4.0292 H   0  0  0  0  0  0  0  0  0  0  0  0
   -4.7220   -0.9588    3.6335 H   0  0  0  0  0  0  0  0  0  0  0  0
   -3.0520    2.2895    3.0102 H   0  0  0  0  0  0  0  0  0  0  0  0
   -1.7004    3.9300    1.8015 H   0  0  0  0  0  0  0  0  0  0  0  0
    2.8563    3.7289    2.2406 H   0  0  0  0  0  0  0  0  0  0  0  0
    4.0326    2.8465    1.2388 H   0  0  0  0  0  0  0  0  0  0  0  0
    4.5834    4.1081    2.3755 H   0  0  0  0  0  0  0  0  0  0  0  0
    3.5658    9.5930   -3.1922 H   0  0  0  0  0  0  0  0  0  0  0  0
    5.0392    8.8407   -3.8482 H   0  0  0  0  0  0  0  0  0  0  0  0
    3.4405    8.2469   -4.3507 H   0  0  0  0  0  0  0  0  0  0  0  0
    5.7581    9.4971   -1.6359 H   0  0  0  0  0  0  0  0  0  0  0  0
    4.2425    8.6100    4.4220 H   0  0  0  0  0  0  0  0  0  0  0  0
    8.1448   11.5059    2.9928 H   0  0  0  0  0  0  0  0  0  0  0  0
    7.5460   11.8652    6.3626 H   0  0  0  0  0  0  0  0  0  0  0  0
    9.6739   10.5827    6.5254 H   0  0  0  0  0  0  0  0  0  0  0  0
    9.4590    8.5714    4.8664 H   0  0  0  0  0  0  0  0  0  0  0  0
    7.4182    7.0636    5.6451 H   0  0  0  0  0  0  0  0  0  0  0  0
    6.3801    8.1388    7.7945 H   0  0  0  0  0  0  0  0  0  0  0  0
    7.8978   10.2405    8.5190 H   0  0  0  0  0  0  0  0  0  0  0  0
    8.8973    8.7816    8.3047 H   0  0  0  0  0  0  0  0  0  0  0  0
    5.5650   10.3967    7.1284 H   0  0  0  0  0  0  0  0  0  0  0  0
  1  2  2  0  0  0  0
  2  3  1  0  0  0  0
  3  4  2  0  0  0  0
  3  5  1  0  0  0  0
  5  6  2  0  0  0  0
  6  7  1  0  0  0  0
  7  8  2  0  0  0  0
  8  9  1  0  0  0  0
  9 10  2  0  0  0  0
 10 11  1  0  0  0  0
 11 12  2  0  0  0  0
 12 13  1  0  0  0  0
 13 14  3  0  0  0  0
 12 15  1  0  0  0  0
 15 16  3  0  0  0  0
  8 17  1  0  0  0  0
 17 18  1  0  0  0  0
 18 19  1  0  0  0  0
 19 20  2  0  0  0  0
 20 21  1  0  0  0  0
 21 22  1  0  0  0  0
 21 23  1  0  0  0  0
  1 24  1  0  0  0  0
 24 25  2  0  0  0  0
 25 26  1  0  0  0  0
 26 27  2  0  0  0  0
 27 28  1  0  0  0  0
 28 29  2  0  0  0  0
 29 30  1  0  0  0  0
 30 31  1  0  0  0  0
 30 32  2  0  0  0  0
 32 33  1  0  0  0  0
 33 34  1  0  0  0  0
 32 35  1  0  0  0  0
 35 36  1  0  0  0  0
 35 37  2  0  0  0  0
 27 38  1  0  0  0  0
 38 39  2  0  0  0  0
 39 40  1  0  0  0  0
 40 41  1  0  0  0  0
 41 42  2  0  0  0  0
 42 43  1  0  0  0  0
 43 44  2  0  0  0  0
 44 45  1  0  0  0  0
 45 46  1  0  0  0  0
 44 47  1  0  0  0  0
 47 48  2  0  0  0  0
 47 49  1  0  0  0  0
 43 50  1  0  0  0  0
 40 51  2  0  0  0  0
 51 52  1  0  0  0  0
 39 53  1  0  0  0  0
 53 54  2  0  0  0  0
 54 55  1  0  0  0  0
 54 56  1  0  0  0  0
 56 57  2  0  0  0  0
 57 58  1  0  0  0  0
 58 59  1  0  0  0  0
 59 60  2  0  0  0  0
 60 61  1  0  0  0  0
 61 62  2  0  0  0  0
 62 63  1  0  0  0  0
 63 64  1  0  0  0  0
 62 65  1  0  0  0  0
 65 66  2  0  0  0  0
 58 67  1  0  0  0  0
 67 68  2  0  0  0  0
 68 69  1  0  0  0  0
 69 70  2  0  0  0  0
 70 71  1  0  0  0  0
 71 72  1  0  0  0  0
 70 73  1  0  0  0  0
 73 74  2  0  0  0  0
 57 75  1  0  0  0  0
 75 76  1  0  0  0  0
 76 77  1  0  0  0  0
 77 78  2  0  0  0  0
 78 79  1  0  0  0  0
 79 80  1  0  0  0  0
 80 81  2  0  0  0  0
 81 82  1  0  0  0  0
 82 83  2  0  0  0  0
 83 84  1  0  0  0  0
 84 85  1  0  0  0  0
 83 86  1  0  0  0  0
 86 87  2  0  0  0  0
 79 88  1  0  0  0  0
 88 89  2  0  0  0  0
 89 90  1  0  0  0  0
 90 91  2  0  0  0  0
 91 92  1  0  0  0  0
 92 93  1  0  0  0  0
 91 94  1  0  0  0  0
 94 95  2  0  0  0  0
 78 96  1  0  0  0  0
 96 97  1  0  0  0  0
 77 98  1  0  0  0  0
 98 99  2  0  0  0  0
 99100  1  0  0  0  0
100101  1  0  0  0  0
101102  2  0  0  0  0
101103  1  0  0  0  0
103104  1  0  0  0  0
100105  2  0  0  0  0
105106  1  0  0  0  0
106107  1  0  0  0  0
106108  1  0  0  0  0
108109  2  0  0  0  0
105110  1  0  0  0  0
110111  2  0  0  0  0
111112  1  0  0  0  0
112113  2  0  0  0  0
112114  1  0  0  0  0
114115  2  0  0  0  0
115116  1  0  0  0  0
116117  2  0  0  0  0
117118  1  0  0  0  0
118119  2  0  0  0  0
119120  1  0  0  0  0
120121  2  0  0  0  0
121122  1  0  0  0  0
122123  3  0  0  0  0
121124  1  0  0  0  0
124125  3  0  0  0  0
117126  1  0  0  0  0
126127  1  0  0  0  0
127128  1  0  0  0  0
128129  2  0  0  0  0
129130  1  0  0  0  0
130131  1  0  0  0  0
130132  1  0  0  0  0
 11  2  1  0  0  0  0
 23 17  1  0  0  0  0
 52 24  1  0  0  0  0
 97 56  1  0  0  0  0
103 98  1  0  0  0  0
120111  1  0  0  0  0
132126  1  0  0  0  0
 10  5  1  0  0  0  0
 22 18  1  0  0  0  0
 51 26  1  0  0  0  0
 66 59  1  0  0  0  0
 74 67  1  0  0  0  0
 96 75  2  0  0  0  0
108 99  1  0  0  0  0
119114  1  0  0  0  0
131127  1  0  0  0  0
 23  7  1  0  0  0  0
 37 28  1  0  0  0  0
 55 38  1  0  0  0  0
 87 80  1  0  0  0  0
 95 88  1  0  0  0  0
132116  1  0  0  0  0
 48 41  1  0  0  0  0
  1133  1  0  0  0  0
  6134  1  0  0  0  0
  9135  1  0  0  0  0
 17136  1  0  0  0  0
 18137  1  0  0  0  0
 19138  1  0  0  0  0
 20139  1  0  0  0  0
 21140  1  0  0  0  0
 22141  1  0  0  0  0
 22142  1  0  0  0  0
 23143  1  0  0  0  0
 25144  1  0  0  0  0
 29145  1  0  0  0  0
 33146  1  0  0  0  0
 33147  1  0  0  0  0
 34148  1  0  0  0  0
 34149  1  0  0  0  0
 34150  1  0  0  0  0
 37151  1  0  0  0  0
 42152  1  0  0  0  0
 45153  1  0  0  0  0
 45154  1  0  0  0  0
 46155  1  0  0  0  0
 46156  1  0  0  0  0
 46157  1  0  0  0  0
 48158  1  0  0  0  0
 53159  1  0  0  0  0
 60160  1  0  0  0  0
 61161  1  0  0  0  0
 64162  1  0  0  0  0
 64163  1  0  0  0  0
 64164  1  0  0  0  0
 65165  1  0  0  0  0
 66166  1  0  0  0  0
 68167  1  0  0  0  0
 69168  1  0  0  0  0
 72169  1  0  0  0  0
 72170  1  0  0  0  0
 72171  1  0  0  0  0
 73172  1  0  0  0  0
 74173  1  0  0  0  0
 81174  1  0  0  0  0
 82175  1  0  0  0  0
 85176  1  0  0  0  0
 85177  1  0  0  0  0
 85178  1  0  0  0  0
 86179  1  0  0  0  0
 87180  1  0  0  0  0
 89181  1  0  0  0  0
 90182  1  0  0  0  0
 93183  1  0  0  0  0
 93184  1  0  0  0  0
 93185  1  0  0  0  0
 94186  1  0  0  0  0
 95187  1  0  0  0  0
104188  1  0  0  0  0
104189  1  0  0  0  0
104190  1  0  0  0  0
107191  1  0  0  0  0
107192  1  0  0  0  0
107193  1  0  0  0  0
110194  1  0  0  0  0
115195  1  0  0  0  0
118196  1  0  0  0  0
126197  1  0  0  0  0
127198  1  0  0  0  0
128199  1  0  0  0  0
129200  1  0  0  0  0
130201  1  0  0  0  0
131202  1  0  0  0  0
131203  1  0  0  0  0
132204  1  0  0  0  0
M  END
