
  xtb     02142214053D
 energy: -367.411890061215 gnorm: 0.000738795365 xtb: 6.4.1 (unknown)
218238  0     0  0            999 V2000
   -5.9082    3.4902   -0.9557 C   0  0  0  0  0  0  0  0  0  0  0  0
   -6.4189    4.7046   -1.3486 C   0  0  0  0  0  0  0  0  0  0  0  0
   -5.8276    5.6365   -2.3099 C   0  0  0  0  0  0  0  0  0  0  0  0
   -4.7058    5.6023   -2.7913 O   0  0  0  0  0  0  0  0  0  0  0  0
   -6.8503    6.6610   -2.5784 C   0  0  0  0  0  0  0  0  0  0  0  0
   -6.7548    7.7321   -3.4637 C   0  0  0  0  0  0  0  0  0  0  0  0
   -7.8853    8.5119   -3.5184 C   0  0  0  0  0  0  0  0  0  0  0  0
   -9.0264    8.2455   -2.7506 C   0  0  0  0  0  0  0  0  0  0  0  0
   -9.1315    7.1941   -1.8703 C   0  0  0  0  0  0  0  0  0  0  0  0
   -7.9915    6.3895   -1.7971 C   0  0  0  0  0  0  0  0  0  0  0  0
   -7.7170    5.2149   -0.9712 C   0  0  0  0  0  0  0  0  0  0  0  0
   -8.5439    4.7251    0.0105 C   0  0  0  0  0  0  0  0  0  0  0  0
   -8.2021    3.7287    0.9429 C   0  0  0  0  0  0  0  0  0  0  0  0
   -7.9983    2.9648    1.7785 N   0  0  0  0  0  0  0  0  0  0  0  0
   -9.8481    5.1899    0.2714 C   0  0  0  0  0  0  0  0  0  0  0  0
  -10.9254    5.4866    0.5386 N   0  0  0  0  0  0  0  0  0  0  0  0
   -9.7774    9.4280   -3.3100 C   0  0  0  0  0  0  0  0  0  0  0  0
   -9.8783   10.6730   -2.4038 C   0  0  0  0  0  0  0  0  0  0  0  0
  -10.2213   11.7904   -3.3621 C   0  0  0  0  0  0  0  0  0  0  0  0
   -9.1412   12.0433   -4.0902 C   0  0  0  0  0  0  0  0  0  0  0  0
   -8.0496   11.1013   -3.6358 C   0  0  0  0  0  0  0  0  0  0  0  0
   -8.3995   10.9910   -2.1462 C   0  0  0  0  0  0  0  0  0  0  0  0
   -8.5046    9.7252   -4.1664 C   0  0  0  0  0  0  0  0  0  0  0  0
   -4.7365    2.8300   -1.3304 C   0  0  0  0  0  0  0  0  0  0  0  0
   -4.3976    1.5301   -0.8846 C   0  0  0  0  0  0  0  0  0  0  0  0
   -5.1759    0.7031   -0.1080 N   0  0  0  0  0  0  0  0  0  0  0  0
   -6.5647    0.5966   -0.2796 C   0  0  0  0  0  0  0  0  0  0  0  0
   -7.3904    0.3657    0.8171 C   0  0  0  0  0  0  0  0  0  0  0  0
   -8.7627    0.3291    0.6651 C   0  0  0  0  0  0  0  0  0  0  0  0
   -9.3308    0.5480   -0.5820 C   0  0  0  0  0  0  0  0  0  0  0  0
  -11.0721    0.6280   -0.8549 S   0  0  0  0  0  0  0  0  0  0  0  0
  -11.7219    1.0364    0.7911 C   0  0  0  0  0  0  0  0  0  0  0  0
   -8.5041    0.7177   -1.6923 C   0  0  0  0  0  0  0  0  0  0  0  0
   -7.1361    0.7297   -1.5472 C   0  0  0  0  0  0  0  0  0  0  0  0
   -4.5203   -0.1284    0.8159 C   0  0  0  0  0  0  0  0  0  0  0  0
   -3.4817    0.3850    1.5950 C   0  0  0  0  0  0  0  0  0  0  0  0
   -2.7933   -0.4325    2.4612 C   0  0  0  0  0  0  0  0  0  0  0  0
   -3.1324   -1.7790    2.5772 C   0  0  0  0  0  0  0  0  0  0  0  0
   -2.1542   -2.7451    3.6853 S   0  0  0  0  0  0  0  0  0  0  0  0
   -2.8608   -4.4110    3.5758 C   0  0  0  0  0  0  0  0  0  0  0  0
   -4.1890   -2.2853    1.8331 C   0  0  0  0  0  0  0  0  0  0  0  0
   -4.8755   -1.4653    0.9585 C   0  0  0  0  0  0  0  0  0  0  0  0
   -3.1080    1.1740   -1.3136 C   0  0  0  0  0  0  0  0  0  0  0  0
   -2.1321   -0.2419   -1.1111 S   0  0  0  0  0  0  0  0  0  0  0  0
   -0.8387    0.5103   -2.0223 C   0  0  0  0  0  0  0  0  0  0  0  0
   -1.1627    1.7596   -2.4978 C   0  0  0  0  0  0  0  0  0  0  0  0
   -0.3436    2.5419   -3.2915 N   0  0  0  0  0  0  0  0  0  0  0  0
    0.4630    1.9691   -4.2858 C   0  0  0  0  0  0  0  0  0  0  0  0
    1.6492    2.5967   -4.6575 C   0  0  0  0  0  0  0  0  0  0  0  0
    2.4207    2.0981   -5.6887 C   0  0  0  0  0  0  0  0  0  0  0  0
    2.0323    0.9412   -6.3502 C   0  0  0  0  0  0  0  0  0  0  0  0
    2.9338    0.2231   -7.6888 S   0  0  0  0  0  0  0  0  0  0  0  0
    4.0529    1.5538   -8.2149 C   0  0  0  0  0  0  0  0  0  0  0  0
    0.8634    0.2921   -5.9620 C   0  0  0  0  0  0  0  0  0  0  0  0
    0.0800    0.8067   -4.9532 C   0  0  0  0  0  0  0  0  0  0  0  0
   -0.5269    3.9332   -3.2603 C   0  0  0  0  0  0  0  0  0  0  0  0
   -0.6846    4.5810   -2.0367 C   0  0  0  0  0  0  0  0  0  0  0  0
   -0.9637    5.9319   -1.9921 C   0  0  0  0  0  0  0  0  0  0  0  0
   -1.0844    6.6521   -3.1714 C   0  0  0  0  0  0  0  0  0  0  0  0
   -1.5240    8.3697   -3.1657 S   0  0  0  0  0  0  0  0  0  0  0  0
   -2.9211    8.3330   -1.9996 C   0  0  0  0  0  0  0  0  0  0  0  0
   -0.8668    6.0247   -4.3913 C   0  0  0  0  0  0  0  0  0  0  0  0
   -0.5936    4.6750   -4.4385 C   0  0  0  0  0  0  0  0  0  0  0  0
   -2.4737    2.1347   -2.0882 C   0  0  0  0  0  0  0  0  0  0  0  0
   -3.4585    3.5322   -2.3293 S   0  0  0  0  0  0  0  0  0  0  0  0
    0.4523   -0.1698   -1.9210 C   0  0  0  0  0  0  0  0  0  0  0  0
    0.7663   -1.3445   -2.5669 C   0  0  0  0  0  0  0  0  0  0  0  0
   -0.0381   -1.8202   -3.5308 F   0  0  0  0  0  0  0  0  0  0  0  0
    1.8560   -2.1385   -2.1778 C   0  0  0  0  0  0  0  0  0  0  0  0
    2.0373   -3.3112   -2.8098 F   0  0  0  0  0  0  0  0  0  0  0  0
    2.6354   -1.8176   -1.0833 C   0  0  0  0  0  0  0  0  0  0  0  0
    2.3900   -0.5643   -0.4598 C   0  0  0  0  0  0  0  0  0  0  0  0
    3.1880   -0.1695    0.5435 N   0  0  0  0  0  0  0  0  0  0  0  0
    2.9287    0.9472    1.1745 C   0  0  0  0  0  0  0  0  0  0  0  0
    3.8822    1.3556    2.2545 C   0  0  0  0  0  0  0  0  0  0  0  0
    5.2003    0.5957    2.1731 C   0  0  0  0  0  0  0  0  0  0  0  0
    1.7856    1.7255    0.8157 C   0  0  0  0  0  0  0  0  0  0  0  0
    1.0339    1.3839   -0.2002 N   0  0  0  0  0  0  0  0  0  0  0  0
    1.3140    0.2531   -0.8755 C   0  0  0  0  0  0  0  0  0  0  0  0
    1.3385    2.9302    1.5839 C   0  0  0  0  0  0  0  0  0  0  0  0
    0.4230    2.4949    2.7312 C   0  0  0  0  0  0  0  0  0  0  0  0
    3.5222   -2.7673   -0.4526 C   0  0  0  0  0  0  0  0  0  0  0  0
    4.4260   -3.6431   -1.0254 C   0  0  0  0  0  0  0  0  0  0  0  0
    4.8515   -3.5620   -2.3347 N   0  0  0  0  0  0  0  0  0  0  0  0
    5.0360   -2.2995   -2.9167 C   0  0  0  0  0  0  0  0  0  0  0  0
    4.7983   -2.1028   -4.2757 C   0  0  0  0  0  0  0  0  0  0  0  0
    5.0063   -0.8647   -4.8457 C   0  0  0  0  0  0  0  0  0  0  0  0
    5.4428    0.2015   -4.0670 C   0  0  0  0  0  0  0  0  0  0  0  0
    5.7453    1.7500   -4.8674 S   0  0  0  0  0  0  0  0  0  0  0  0
    5.4801    2.9541   -3.5328 C   0  0  0  0  0  0  0  0  0  0  0  0
    5.6742    0.0138   -2.7117 C   0  0  0  0  0  0  0  0  0  0  0  0
    5.4744   -1.2259   -2.1429 C   0  0  0  0  0  0  0  0  0  0  0  0
    5.1976   -4.7352   -3.0178 C   0  0  0  0  0  0  0  0  0  0  0  0
    4.4463   -5.8919   -2.8330 C   0  0  0  0  0  0  0  0  0  0  0  0
    4.7909   -7.0674   -3.4713 C   0  0  0  0  0  0  0  0  0  0  0  0
    5.8936   -7.1017   -4.3128 C   0  0  0  0  0  0  0  0  0  0  0  0
    6.4324   -8.5387   -5.1836 S   0  0  0  0  0  0  0  0  0  0  0  0
    5.3588   -9.8594   -4.5520 C   0  0  0  0  0  0  0  0  0  0  0  0
    6.6391   -5.9404   -4.5121 C   0  0  0  0  0  0  0  0  0  0  0  0
    6.3004   -4.7710   -3.8711 C   0  0  0  0  0  0  0  0  0  0  0  0
    4.9286   -4.5455   -0.0548 C   0  0  0  0  0  0  0  0  0  0  0  0
    5.9748   -5.9078   -0.1182 S   0  0  0  0  0  0  0  0  0  0  0  0
    5.8006   -6.1646    1.6253 C   0  0  0  0  0  0  0  0  0  0  0  0
    4.8944   -5.2510    2.2005 C   0  0  0  0  0  0  0  0  0  0  0  0
    4.3981   -5.2555    3.4822 N   0  0  0  0  0  0  0  0  0  0  0  0
    3.7651   -4.0671    3.9429 C   0  0  0  0  0  0  0  0  0  0  0  0
    2.4073   -4.0781    4.2450 C   0  0  0  0  0  0  0  0  0  0  0  0
    1.7652   -2.9233    4.6471 C   0  0  0  0  0  0  0  0  0  0  0  0
    2.4884   -1.7444    4.7753 C   0  0  0  0  0  0  0  0  0  0  0  0
    1.7735   -0.1972    5.2225 S   0  0  0  0  0  0  0  0  0  0  0  0
    0.1157   -0.6253    5.8195 C   0  0  0  0  0  0  0  0  0  0  0  0
    3.8565   -1.7411    4.5152 C   0  0  0  0  0  0  0  0  0  0  0  0
    4.4900   -2.8875    4.0884 C   0  0  0  0  0  0  0  0  0  0  0  0
    4.1776   -6.4087    4.2454 C   0  0  0  0  0  0  0  0  0  0  0  0
    4.1155   -6.2930    5.6352 C   0  0  0  0  0  0  0  0  0  0  0  0
    3.9098   -7.3990    6.4325 C   0  0  0  0  0  0  0  0  0  0  0  0
    3.7670   -8.6561    5.8564 C   0  0  0  0  0  0  0  0  0  0  0  0
    3.5660  -10.1485    6.7675 S   0  0  0  0  0  0  0  0  0  0  0  0
    3.4818   -9.6032    8.4973 C   0  0  0  0  0  0  0  0  0  0  0  0
    3.7888   -8.7723    4.4674 C   0  0  0  0  0  0  0  0  0  0  0  0
    3.9820   -7.6659    3.6709 C   0  0  0  0  0  0  0  0  0  0  0  0
    4.4437   -4.3258    1.2280 C   0  0  0  0  0  0  0  0  0  0  0  0
    3.3760   -2.9634    1.2770 S   0  0  0  0  0  0  0  0  0  0  0  0
    6.5319   -7.2429    2.1392 C   0  0  0  0  0  0  0  0  0  0  0  0
    6.8639   -7.5685    3.4313 C   0  0  0  0  0  0  0  0  0  0  0  0
    7.1335   -8.9917    3.7722 C   0  0  0  0  0  0  0  0  0  0  0  0
    7.2572   -9.9144    2.9995 O   0  0  0  0  0  0  0  0  0  0  0  0
    7.1485   -9.0201    5.2450 C   0  0  0  0  0  0  0  0  0  0  0  0
    7.2490   -9.9488    6.2264 C   0  0  0  0  0  0  0  0  0  0  0  0
    7.1984   -9.2016    7.7819 S   0  0  0  0  0  0  0  0  0  0  0  0
    7.0450   -7.6203    7.1004 C   0  0  0  0  0  0  0  0  0  0  0  0
    7.0240   -7.6820    5.7440 C   0  0  0  0  0  0  0  0  0  0  0  0
    6.9319   -6.7681    4.6217 C   0  0  0  0  0  0  0  0  0  0  0  0
    7.1034   -5.4028    4.6949 C   0  0  0  0  0  0  0  0  0  0  0  0
    7.1134   -4.7312    5.9285 C   0  0  0  0  0  0  0  0  0  0  0  0
    7.0726   -4.1689    6.9297 N   0  0  0  0  0  0  0  0  0  0  0  0
    7.3419   -4.5946    3.5751 C   0  0  0  0  0  0  0  0  0  0  0  0
    7.5692   -3.9090    2.6804 N   0  0  0  0  0  0  0  0  0  0  0  0
   -6.5222    2.9295   -0.2626 H   0  0  0  0  0  0  0  0  0  0  0  0
   -5.8590    7.8970   -4.0421 H   0  0  0  0  0  0  0  0  0  0  0  0
  -10.0187    6.9994   -1.2907 H   0  0  0  0  0  0  0  0  0  0  0  0
  -10.7092    9.1984   -3.8232 H   0  0  0  0  0  0  0  0  0  0  0  0
  -10.5239   10.5544   -1.5379 H   0  0  0  0  0  0  0  0  0  0  0  0
  -11.1984   12.2283   -3.4477 H   0  0  0  0  0  0  0  0  0  0  0  0
   -9.0358   12.7349   -4.9053 H   0  0  0  0  0  0  0  0  0  0  0  0
   -7.0296   11.3744   -3.8929 H   0  0  0  0  0  0  0  0  0  0  0  0
   -8.2672   11.9356   -1.6210 H   0  0  0  0  0  0  0  0  0  0  0  0
   -7.8615   10.2038   -1.6209 H   0  0  0  0  0  0  0  0  0  0  0  0
   -8.5876    9.6935   -5.2512 H   0  0  0  0  0  0  0  0  0  0  0  0
   -6.9574    0.2410    1.7972 H   0  0  0  0  0  0  0  0  0  0  0  0
   -9.3774    0.1612    1.5336 H   0  0  0  0  0  0  0  0  0  0  0  0
  -11.7142    0.1586    1.4307 H   0  0  0  0  0  0  0  0  0  0  0  0
  -12.7439    1.3654    0.6313 H   0  0  0  0  0  0  0  0  0  0  0  0
  -11.1350    1.8430    1.2201 H   0  0  0  0  0  0  0  0  0  0  0  0
   -8.9512    0.8458   -2.6660 H   0  0  0  0  0  0  0  0  0  0  0  0
   -6.5008    0.8706   -2.4088 H   0  0  0  0  0  0  0  0  0  0  0  0
   -3.2181    1.4287    1.5099 H   0  0  0  0  0  0  0  0  0  0  0  0
   -1.9842   -0.0372    3.0565 H   0  0  0  0  0  0  0  0  0  0  0  0
   -2.2712   -5.0255    4.2493 H   0  0  0  0  0  0  0  0  0  0  0  0
   -3.8962   -4.3957    3.9032 H   0  0  0  0  0  0  0  0  0  0  0  0
   -2.7693   -4.7845    2.5601 H   0  0  0  0  0  0  0  0  0  0  0  0
   -4.4817   -3.3199    1.9099 H   0  0  0  0  0  0  0  0  0  0  0  0
   -5.6841   -1.8691    0.3680 H   0  0  0  0  0  0  0  0  0  0  0  0
    1.9550    3.4980   -4.1461 H   0  0  0  0  0  0  0  0  0  0  0  0
    3.3245    2.6151   -5.9645 H   0  0  0  0  0  0  0  0  0  0  0  0
    4.4990    1.2098   -9.1428 H   0  0  0  0  0  0  0  0  0  0  0  0
    4.8273    1.7140   -7.4701 H   0  0  0  0  0  0  0  0  0  0  0  0
    3.4794    2.4586   -8.3917 H   0  0  0  0  0  0  0  0  0  0  0  0
    0.5623   -0.6073   -6.4764 H   0  0  0  0  0  0  0  0  0  0  0  0
   -0.8474    0.3180   -4.6980 H   0  0  0  0  0  0  0  0  0  0  0  0
   -0.5954    4.0097   -1.1240 H   0  0  0  0  0  0  0  0  0  0  0  0
   -1.0948    6.4202   -1.0386 H   0  0  0  0  0  0  0  0  0  0  0  0
   -3.5018    7.4369   -2.1954 H   0  0  0  0  0  0  0  0  0  0  0  0
   -2.5629    8.3509   -0.9744 H   0  0  0  0  0  0  0  0  0  0  0  0
   -3.5122    9.2217   -2.1968 H   0  0  0  0  0  0  0  0  0  0  0  0
   -0.9458    6.5984   -5.3017 H   0  0  0  0  0  0  0  0  0  0  0  0
   -0.4632    4.1813   -5.3899 H   0  0  0  0  0  0  0  0  0  0  0  0
    3.4027    1.1669    3.2202 H   0  0  0  0  0  0  0  0  0  0  0  0
    4.0678    2.4303    2.1881 H   0  0  0  0  0  0  0  0  0  0  0  0
    5.8541    0.8879    2.9908 H   0  0  0  0  0  0  0  0  0  0  0  0
    5.7013    0.8122    1.2329 H   0  0  0  0  0  0  0  0  0  0  0  0
    5.0215   -0.4736    2.2224 H   0  0  0  0  0  0  0  0  0  0  0  0
    0.7816    3.5792    0.9070 H   0  0  0  0  0  0  0  0  0  0  0  0
    2.1907    3.4806    1.9813 H   0  0  0  0  0  0  0  0  0  0  0  0
    0.0713    3.3653    3.2792 H   0  0  0  0  0  0  0  0  0  0  0  0
    0.9514    1.8406    3.4205 H   0  0  0  0  0  0  0  0  0  0  0  0
   -0.4366    1.9606    2.3331 H   0  0  0  0  0  0  0  0  0  0  0  0
    4.4466   -2.9240   -4.8811 H   0  0  0  0  0  0  0  0  0  0  0  0
    4.8246   -0.7193   -5.8986 H   0  0  0  0  0  0  0  0  0  0  0  0
    4.5735    2.6933   -2.9947 H   0  0  0  0  0  0  0  0  0  0  0  0
    5.3645    3.9192   -4.0164 H   0  0  0  0  0  0  0  0  0  0  0  0
    6.3397    2.9807   -2.8693 H   0  0  0  0  0  0  0  0  0  0  0  0
    6.0327    0.8209   -2.0926 H   0  0  0  0  0  0  0  0  0  0  0  0
    5.6780   -1.3619   -1.0916 H   0  0  0  0  0  0  0  0  0  0  0  0
    3.5737   -5.8639   -2.1978 H   0  0  0  0  0  0  0  0  0  0  0  0
    4.1843   -7.9433   -3.3088 H   0  0  0  0  0  0  0  0  0  0  0  0
    5.7177  -10.7735   -5.0145 H   0  0  0  0  0  0  0  0  0  0  0  0
    5.4563   -9.9284   -3.4727 H   0  0  0  0  0  0  0  0  0  0  0  0
    4.3292   -9.6785   -4.8470 H   0  0  0  0  0  0  0  0  0  0  0  0
    7.4944   -5.9736   -5.1694 H   0  0  0  0  0  0  0  0  0  0  0  0
    6.8922   -3.8806   -4.0199 H   0  0  0  0  0  0  0  0  0  0  0  0
    1.8468   -4.9957    4.1408 H   0  0  0  0  0  0  0  0  0  0  0  0
    0.7042   -2.9517    4.8359 H   0  0  0  0  0  0  0  0  0  0  0  0
   -0.3103    0.3005    6.1937 H   0  0  0  0  0  0  0  0  0  0  0  0
    0.1973   -1.3480    6.6255 H   0  0  0  0  0  0  0  0  0  0  0  0
   -0.4920   -1.0119    5.0067 H   0  0  0  0  0  0  0  0  0  0  0  0
    4.4173   -0.8303    4.6494 H   0  0  0  0  0  0  0  0  0  0  0  0
    5.5438   -2.8679    3.8619 H   0  0  0  0  0  0  0  0  0  0  0  0
    4.2504   -5.3256    6.0962 H   0  0  0  0  0  0  0  0  0  0  0  0
    3.8796   -7.2679    7.5016 H   0  0  0  0  0  0  0  0  0  0  0  0
    4.4194   -9.1405    8.7910 H   0  0  0  0  0  0  0  0  0  0  0  0
    2.6435   -8.9263    8.6317 H   0  0  0  0  0  0  0  0  0  0  0  0
    3.3223  -10.5068    9.0773 H   0  0  0  0  0  0  0  0  0  0  0  0
    3.6546   -9.7446    4.0193 H   0  0  0  0  0  0  0  0  0  0  0  0
    3.9671   -7.7752    2.5981 H   0  0  0  0  0  0  0  0  0  0  0  0
    6.8350   -7.9811    1.4017 H   0  0  0  0  0  0  0  0  0  0  0  0
    7.3483  -11.0124    6.1474 H   0  0  0  0  0  0  0  0  0  0  0  0
    6.9723   -6.7683    7.7463 H   0  0  0  0  0  0  0  0  0  0  0  0
  1  2  2  0  0  0  0
  2  3  1  0  0  0  0
  3  4  2  0  0  0  0
  3  5  1  0  0  0  0
  5  6  2  0  0  0  0
  6  7  1  0  0  0  0
  7  8  2  0  0  0  0
  8  9  1  0  0  0  0
  9 10  2  0  0  0  0
 10 11  1  0  0  0  0
 11 12  2  0  0  0  0
 12 13  1  0  0  0  0
 13 14  3  0  0  0  0
 12 15  1  0  0  0  0
 15 16  3  0  0  0  0
  8 17  1  0  0  0  0
 17 18  1  0  0  0  0
 18 19  1  0  0  0  0
 19 20  2  0  0  0  0
 20 21  1  0  0  0  0
 21 22  1  0  0  0  0
 21 23  1  0  0  0  0
  1 24  1  0  0  0  0
 24 25  2  0  0  0  0
 25 26  1  0  0  0  0
 26 27  1  0  0  0  0
 27 28  2  0  0  0  0
 28 29  1  0  0  0  0
 29 30  2  0  0  0  0
 30 31  1  0  0  0  0
 31 32  1  0  0  0  0
 30 33  1  0  0  0  0
 33 34  2  0  0  0  0
 26 35  1  0  0  0  0
 35 36  2  0  0  0  0
 36 37  1  0  0  0  0
 37 38  2  0  0  0  0
 38 39  1  0  0  0  0
 39 40  1  0  0  0  0
 38 41  1  0  0  0  0
 41 42  2  0  0  0  0
 25 43  1  0  0  0  0
 43 44  1  0  0  0  0
 44 45  1  0  0  0  0
 45 46  2  0  0  0  0
 46 47  1  0  0  0  0
 47 48  1  0  0  0  0
 48 49  2  0  0  0  0
 49 50  1  0  0  0  0
 50 51  2  0  0  0  0
 51 52  1  0  0  0  0
 52 53  1  0  0  0  0
 51 54  1  0  0  0  0
 54 55  2  0  0  0  0
 47 56  1  0  0  0  0
 56 57  2  0  0  0  0
 57 58  1  0  0  0  0
 58 59  2  0  0  0  0
 59 60  1  0  0  0  0
 60 61  1  0  0  0  0
 59 62  1  0  0  0  0
 62 63  2  0  0  0  0
 46 64  1  0  0  0  0
 64 65  1  0  0  0  0
 45 66  1  0  0  0  0
 66 67  2  0  0  0  0
 67 68  1  0  0  0  0
 67 69  1  0  0  0  0
 69 70  1  0  0  0  0
 69 71  2  0  0  0  0
 71 72  1  0  0  0  0
 72 73  2  0  0  0  0
 73 74  1  0  0  0  0
 74 75  1  0  0  0  0
 75 76  1  0  0  0  0
 74 77  2  0  0  0  0
 77 78  1  0  0  0  0
 78 79  2  0  0  0  0
 77 80  1  0  0  0  0
 80 81  1  0  0  0  0
 71 82  1  0  0  0  0
 82 83  2  0  0  0  0
 83 84  1  0  0  0  0
 84 85  1  0  0  0  0
 85 86  2  0  0  0  0
 86 87  1  0  0  0  0
 87 88  2  0  0  0  0
 88 89  1  0  0  0  0
 89 90  1  0  0  0  0
 88 91  1  0  0  0  0
 91 92  2  0  0  0  0
 84 93  1  0  0  0  0
 93 94  2  0  0  0  0
 94 95  1  0  0  0  0
 95 96  2  0  0  0  0
 96 97  1  0  0  0  0
 97 98  1  0  0  0  0
 96 99  1  0  0  0  0
 99100  2  0  0  0  0
 83101  1  0  0  0  0
101102  1  0  0  0  0
102103  1  0  0  0  0
103104  2  0  0  0  0
104105  1  0  0  0  0
105106  1  0  0  0  0
106107  2  0  0  0  0
107108  1  0  0  0  0
108109  2  0  0  0  0
109110  1  0  0  0  0
110111  1  0  0  0  0
109112  1  0  0  0  0
112113  2  0  0  0  0
105114  1  0  0  0  0
114115  2  0  0  0  0
115116  1  0  0  0  0
116117  2  0  0  0  0
117118  1  0  0  0  0
118119  1  0  0  0  0
117120  1  0  0  0  0
120121  2  0  0  0  0
104122  1  0  0  0  0
122123  1  0  0  0  0
103124  1  0  0  0  0
124125  2  0  0  0  0
125126  1  0  0  0  0
126127  2  0  0  0  0
126128  1  0  0  0  0
128129  2  0  0  0  0
129130  1  0  0  0  0
130131  1  0  0  0  0
131132  2  0  0  0  0
132133  1  0  0  0  0
133134  2  0  0  0  0
134135  1  0  0  0  0
135136  3  0  0  0  0
134137  1  0  0  0  0
137138  3  0  0  0  0
 11  2  1  0  0  0  0
 23 17  1  0  0  0  0
 65 24  1  0  0  0  0
 79 66  1  0  0  0  0
123 82  1  0  0  0  0
133125  1  0  0  0  0
 10  5  1  0  0  0  0
 22 18  1  0  0  0  0
 34 27  1  0  0  0  0
 42 35  1  0  0  0  0
 64 43  2  0  0  0  0
 79 72  1  0  0  0  0
 92 85  1  0  0  0  0
100 93  1  0  0  0  0
122101  2  0  0  0  0
132128  1  0  0  0  0
 23  7  1  0  0  0  0
 55 48  1  0  0  0  0
 63 56  1  0  0  0  0
113106  1  0  0  0  0
121114  1  0  0  0  0
  1139  1  0  0  0  0
  6140  1  0  0  0  0
  9141  1  0  0  0  0
 17142  1  0  0  0  0
 18143  1  0  0  0  0
 19144  1  0  0  0  0
 20145  1  0  0  0  0
 21146  1  0  0  0  0
 22147  1  0  0  0  0
 22148  1  0  0  0  0
 23149  1  0  0  0  0
 28150  1  0  0  0  0
 29151  1  0  0  0  0
 32152  1  0  0  0  0
 32153  1  0  0  0  0
 32154  1  0  0  0  0
 33155  1  0  0  0  0
 34156  1  0  0  0  0
 36157  1  0  0  0  0
 37158  1  0  0  0  0
 40159  1  0  0  0  0
 40160  1  0  0  0  0
 40161  1  0  0  0  0
 41162  1  0  0  0  0
 42163  1  0  0  0  0
 49164  1  0  0  0  0
 50165  1  0  0  0  0
 53166  1  0  0  0  0
 53167  1  0  0  0  0
 53168  1  0  0  0  0
 54169  1  0  0  0  0
 55170  1  0  0  0  0
 57171  1  0  0  0  0
 58172  1  0  0  0  0
 61173  1  0  0  0  0
 61174  1  0  0  0  0
 61175  1  0  0  0  0
 62176  1  0  0  0  0
 63177  1  0  0  0  0
 75178  1  0  0  0  0
 75179  1  0  0  0  0
 76180  1  0  0  0  0
 76181  1  0  0  0  0
 76182  1  0  0  0  0
 80183  1  0  0  0  0
 80184  1  0  0  0  0
 81185  1  0  0  0  0
 81186  1  0  0  0  0
 81187  1  0  0  0  0
 86188  1  0  0  0  0
 87189  1  0  0  0  0
 90190  1  0  0  0  0
 90191  1  0  0  0  0
 90192  1  0  0  0  0
 91193  1  0  0  0  0
 92194  1  0  0  0  0
 94195  1  0  0  0  0
 95196  1  0  0  0  0
 98197  1  0  0  0  0
 98198  1  0  0  0  0
 98199  1  0  0  0  0
 99200  1  0  0  0  0
100201  1  0  0  0  0
107202  1  0  0  0  0
108203  1  0  0  0  0
111204  1  0  0  0  0
111205  1  0  0  0  0
111206  1  0  0  0  0
112207  1  0  0  0  0
113208  1  0  0  0  0
115209  1  0  0  0  0
116210  1  0  0  0  0
119211  1  0  0  0  0
119212  1  0  0  0  0
119213  1  0  0  0  0
120214  1  0  0  0  0
121215  1  0  0  0  0
124216  1  0  0  0  0
129217  1  0  0  0  0
131218  1  0  0  0  0
M  END
