
  xtb     02052213283D
 energy: -434.891785478101 gnorm: 0.000523112281 xtb: 6.4.1 (unknown)
260282  0     0  0            999 V2000
   -0.1852   -8.9346    0.0151 C   0  0  0  0  0  0  0  0  0  0  0  0
    0.3424   -9.4593    1.1559 C   0  0  0  0  0  0  0  0  0  0  0  0
    0.4242   -8.7630    2.4538 C   0  0  0  0  0  0  0  0  0  0  0  0
   -0.3377   -7.9299    2.9029 O   0  0  0  0  0  0  0  0  0  0  0  0
    1.6484   -9.2781    3.0937 C   0  0  0  0  0  0  0  0  0  0  0  0
    2.2705   -8.7823    4.2378 C   0  0  0  0  0  0  0  0  0  0  0  0
    3.4452   -9.4212    4.5563 C   0  0  0  0  0  0  0  0  0  0  0  0
    3.9546  -10.4918    3.8096 C   0  0  0  0  0  0  0  0  0  0  0  0
    3.3422  -11.0038    2.6907 C   0  0  0  0  0  0  0  0  0  0  0  0
    2.1613  -10.3483    2.3300 C   0  0  0  0  0  0  0  0  0  0  0  0
    1.3071  -10.5425    1.1646 C   0  0  0  0  0  0  0  0  0  0  0  0
    1.4433  -11.5108    0.2060 C   0  0  0  0  0  0  0  0  0  0  0  0
    0.5696  -11.6790   -0.8892 C   0  0  0  0  0  0  0  0  0  0  0  0
   -0.1006  -11.8884   -1.7981 N   0  0  0  0  0  0  0  0  0  0  0  0
    2.4931  -12.4456    0.1573 C   0  0  0  0  0  0  0  0  0  0  0  0
    3.3503  -13.1983    0.0180 N   0  0  0  0  0  0  0  0  0  0  0  0
    5.1786  -10.6211    4.6809 C   0  0  0  0  0  0  0  0  0  0  0  0
    6.4888  -10.0431    4.1042 C   0  0  0  0  0  0  0  0  0  0  0  0
    7.3720   -9.8689    5.3180 C   0  0  0  0  0  0  0  0  0  0  0  0
    6.8900   -8.8549    6.0253 C   0  0  0  0  0  0  0  0  0  0  0  0
    5.6724   -8.3268    5.3011 C   0  0  0  0  0  0  0  0  0  0  0  0
    6.0994   -8.5817    3.8497 C   0  0  0  0  0  0  0  0  0  0  0  0
    4.6104   -9.4270    5.5135 C   0  0  0  0  0  0  0  0  0  0  0  0
   -0.7589   -7.6548   -0.1721 C   0  0  0  0  0  0  0  0  0  0  0  0
   -0.4183   -6.8689   -1.2818 C   0  0  0  0  0  0  0  0  0  0  0  0
    0.5439   -7.2677   -2.2045 N   0  0  0  0  0  0  0  0  0  0  0  0
    0.3130   -7.1215   -3.5725 C   0  0  0  0  0  0  0  0  0  0  0  0
    1.3751   -6.9922   -4.4696 C   0  0  0  0  0  0  0  0  0  0  0  0
    1.1362   -6.9433   -5.8241 C   0  0  0  0  0  0  0  0  0  0  0  0
   -0.1658   -7.0045   -6.3187 C   0  0  0  0  0  0  0  0  0  0  0  0
   -0.3392   -7.0185   -8.0765 S   0  0  0  0  0  0  0  0  0  0  0  0
   -2.1146   -7.2801   -8.3401 C   0  0  0  0  0  0  0  0  0  0  0  0
   -1.2285   -7.0635   -5.4281 C   0  0  0  0  0  0  0  0  0  0  0  0
   -0.9886   -7.1255   -4.0696 C   0  0  0  0  0  0  0  0  0  0  0  0
    1.7276   -7.8386   -1.7026 C   0  0  0  0  0  0  0  0  0  0  0  0
    2.3235   -8.9444   -2.3044 C   0  0  0  0  0  0  0  0  0  0  0  0
    3.4332   -9.5447   -1.7391 C   0  0  0  0  0  0  0  0  0  0  0  0
    3.9706   -9.0507   -0.5576 C   0  0  0  0  0  0  0  0  0  0  0  0
    5.3538   -9.7501    0.2857 S   0  0  0  0  0  0  0  0  0  0  0  0
    5.8901  -11.1201   -0.7747 C   0  0  0  0  0  0  0  0  0  0  0  0
    3.3934   -7.9283    0.0338 C   0  0  0  0  0  0  0  0  0  0  0  0
    2.2946   -7.3253   -0.5333 C   0  0  0  0  0  0  0  0  0  0  0  0
   -0.9810   -5.5874   -1.1840 C   0  0  0  0  0  0  0  0  0  0  0  0
   -0.7489   -4.1048   -2.0540 S   0  0  0  0  0  0  0  0  0  0  0  0
   -1.6044   -3.2219   -0.7928 C   0  0  0  0  0  0  0  0  0  0  0  0
   -2.1395   -4.0613    0.1666 C   0  0  0  0  0  0  0  0  0  0  0  0
   -2.9216   -3.6009    1.2131 N   0  0  0  0  0  0  0  0  0  0  0  0
   -2.7551   -4.1915    2.4758 C   0  0  0  0  0  0  0  0  0  0  0  0
   -3.8496   -4.5290    3.2702 C   0  0  0  0  0  0  0  0  0  0  0  0
   -3.6561   -5.1649    4.4767 C   0  0  0  0  0  0  0  0  0  0  0  0
   -2.3712   -5.4844    4.9068 C   0  0  0  0  0  0  0  0  0  0  0  0
   -2.2068   -6.3418    6.4408 S   0  0  0  0  0  0  0  0  0  0  0  0
   -0.6044   -7.1720    6.2304 C   0  0  0  0  0  0  0  0  0  0  0  0
   -1.2777   -5.1182    4.1357 C   0  0  0  0  0  0  0  0  0  0  0  0
   -1.4707   -4.4751    2.9308 C   0  0  0  0  0  0  0  0  0  0  0  0
   -3.9887   -2.7318    0.9582 C   0  0  0  0  0  0  0  0  0  0  0  0
   -4.6978   -2.8048   -0.2418 C   0  0  0  0  0  0  0  0  0  0  0  0
   -5.7862   -1.9910   -0.4551 C   0  0  0  0  0  0  0  0  0  0  0  0
   -6.1967   -1.0794    0.5146 C   0  0  0  0  0  0  0  0  0  0  0  0
   -7.6115   -0.1058    0.1112 S   0  0  0  0  0  0  0  0  0  0  0  0
   -7.9125    0.8797    1.6033 C   0  0  0  0  0  0  0  0  0  0  0  0
   -5.4865   -0.9922    1.7042 C   0  0  0  0  0  0  0  0  0  0  0  0
   -4.3915   -1.8084    1.9192 C   0  0  0  0  0  0  0  0  0  0  0  0
   -1.7584   -5.4114   -0.0413 C   0  0  0  0  0  0  0  0  0  0  0  0
   -1.7591   -6.8006    0.9784 S   0  0  0  0  0  0  0  0  0  0  0  0
   -1.3367   -1.8328   -0.4888 C   0  0  0  0  0  0  0  0  0  0  0  0
   -1.8787   -0.6255   -0.8671 C   0  0  0  0  0  0  0  0  0  0  0  0
   -2.8602   -0.5085   -1.8377 N   0  0  0  0  0  0  0  0  0  0  0  0
   -2.7228   -1.3185   -2.9797 C   0  0  0  0  0  0  0  0  0  0  0  0
   -1.4744   -1.4508   -3.5808 C   0  0  0  0  0  0  0  0  0  0  0  0
   -1.3045   -2.2448   -4.6978 C   0  0  0  0  0  0  0  0  0  0  0  0
   -2.3910   -2.9161   -5.2390 C   0  0  0  0  0  0  0  0  0  0  0  0
   -2.2877   -3.9461   -6.6653 S   0  0  0  0  0  0  0  0  0  0  0  0
   -0.6178   -3.6388   -7.3005 C   0  0  0  0  0  0  0  0  0  0  0  0
   -3.6450   -2.7827   -4.6455 C   0  0  0  0  0  0  0  0  0  0  0  0
   -3.8115   -1.9922   -3.5301 C   0  0  0  0  0  0  0  0  0  0  0  0
   -3.8369    0.4857   -1.7571 C   0  0  0  0  0  0  0  0  0  0  0  0
   -4.4682    0.9606   -2.9040 C   0  0  0  0  0  0  0  0  0  0  0  0
   -5.3790    1.9947   -2.8376 C   0  0  0  0  0  0  0  0  0  0  0  0
   -5.6695    2.5880   -1.6184 C   0  0  0  0  0  0  0  0  0  0  0  0
   -6.7778    3.9501   -1.4404 S   0  0  0  0  0  0  0  0  0  0  0  0
   -7.7656    3.8457   -2.9609 C   0  0  0  0  0  0  0  0  0  0  0  0
   -5.0653    2.1012   -0.4656 C   0  0  0  0  0  0  0  0  0  0  0  0
   -4.1786    1.0499   -0.5274 C   0  0  0  0  0  0  0  0  0  0  0  0
   -1.2861    0.4507   -0.1466 C   0  0  0  0  0  0  0  0  0  0  0  0
   -1.4715    2.1808   -0.1600 S   0  0  0  0  0  0  0  0  0  0  0  0
   -0.2858    2.3221    1.1288 C   0  0  0  0  0  0  0  0  0  0  0  0
    0.3435    1.1110    1.4253 C   0  0  0  0  0  0  0  0  0  0  0  0
    1.4951    0.9431    2.1597 N   0  0  0  0  0  0  0  0  0  0  0  0
    1.7376   -0.3156    2.7421 C   0  0  0  0  0  0  0  0  0  0  0  0
    2.9486   -0.9679    2.5293 C   0  0  0  0  0  0  0  0  0  0  0  0
    3.1626   -2.2324    3.0396 C   0  0  0  0  0  0  0  0  0  0  0  0
    2.1656   -2.8644    3.7721 C   0  0  0  0  0  0  0  0  0  0  0  0
    2.3420   -4.5001    4.4187 S   0  0  0  0  0  0  0  0  0  0  0  0
    3.6309   -5.2342    3.3686 C   0  0  0  0  0  0  0  0  0  0  0  0
    0.9714   -2.1958    4.0303 C   0  0  0  0  0  0  0  0  0  0  0  0
    0.7573   -0.9345    3.5171 C   0  0  0  0  0  0  0  0  0  0  0  0
    2.5053    1.9163    2.2030 C   0  0  0  0  0  0  0  0  0  0  0  0
    2.7332    2.7803    1.1317 C   0  0  0  0  0  0  0  0  0  0  0  0
    3.7161    3.7426    1.2108 C   0  0  0  0  0  0  0  0  0  0  0  0
    4.5057    3.8542    2.3514 C   0  0  0  0  0  0  0  0  0  0  0  0
    5.7520    5.1071    2.3693 S   0  0  0  0  0  0  0  0  0  0  0  0
    7.0390    4.3556    3.4082 C   0  0  0  0  0  0  0  0  0  0  0  0
    4.2882    2.9940    3.4205 C   0  0  0  0  0  0  0  0  0  0  0  0
    3.2994    2.0347    3.3433 C   0  0  0  0  0  0  0  0  0  0  0  0
   -0.2924    0.0534    0.7313 C   0  0  0  0  0  0  0  0  0  0  0  0
   -0.0591   -1.6523    0.7132 S   0  0  0  0  0  0  0  0  0  0  0  0
   -0.0663    3.5937    1.7210 C   0  0  0  0  0  0  0  0  0  0  0  0
   -0.4344    4.7783    1.0215 C   0  0  0  0  0  0  0  0  0  0  0  0
   -1.2199    4.6663   -0.0549 N   0  0  0  0  0  0  0  0  0  0  0  0
   -1.5754    5.7430   -0.7178 C   0  0  0  0  0  0  0  0  0  0  0  0
   -2.5860    5.6098   -1.7661 C   0  0  0  0  0  0  0  0  0  0  0  0
   -3.5891    6.5585   -1.9145 C   0  0  0  0  0  0  0  0  0  0  0  0
   -4.4754    6.4680   -2.9715 C   0  0  0  0  0  0  0  0  0  0  0  0
   -4.3649    5.4518   -3.9092 C   0  0  0  0  0  0  0  0  0  0  0  0
   -5.1419    5.3379   -5.0228 O   0  0  0  0  0  0  0  0  0  0  0  0
   -5.7485    6.5040   -5.5538 C   0  0  0  0  0  0  0  0  0  0  0  0
   -7.1909    6.7052   -5.0965 C   0  0  0  0  0  0  0  0  0  0  0  0
   -3.3771    4.4532   -3.7356 C   0  0  0  0  0  0  0  0  0  0  0  0
   -2.5178    4.5370   -2.6558 C   0  0  0  0  0  0  0  0  0  0  0  0
   -3.3465    3.4884   -4.6941 O   0  0  0  0  0  0  0  0  0  0  0  0
   -2.2656    2.5797   -4.7270 C   0  0  0  0  0  0  0  0  0  0  0  0
   -0.9795    3.2141   -5.2501 C   0  0  0  0  0  0  0  0  0  0  0  0
   -0.9709    7.0038   -0.3880 C   0  0  0  0  0  0  0  0  0  0  0  0
   -1.0660    8.1816   -1.2449 C   0  0  0  0  0  0  0  0  0  0  0  0
   -1.0279    9.4504   -0.6840 C   0  0  0  0  0  0  0  0  0  0  0  0
   -1.1212   10.5748   -1.4859 C   0  0  0  0  0  0  0  0  0  0  0  0
   -1.2543   10.4576   -2.8618 C   0  0  0  0  0  0  0  0  0  0  0  0
   -1.3667   11.4890   -3.7291 O   0  0  0  0  0  0  0  0  0  0  0  0
   -1.2954   12.8129   -3.2360 C   0  0  0  0  0  0  0  0  0  0  0  0
   -1.3913   13.7518   -4.4281 C   0  0  0  0  0  0  0  0  0  0  0  0
   -1.2751    9.1652   -3.4455 C   0  0  0  0  0  0  0  0  0  0  0  0
   -1.4286    9.1437   -4.7966 O   0  0  0  0  0  0  0  0  0  0  0  0
   -1.5162    7.9060   -5.4720 C   0  0  0  0  0  0  0  0  0  0  0  0
   -0.1517    7.2727   -5.7316 C   0  0  0  0  0  0  0  0  0  0  0  0
   -1.1609    8.0550   -2.6361 C   0  0  0  0  0  0  0  0  0  0  0  0
   -0.2634    7.1285    0.7146 N   0  0  0  0  0  0  0  0  0  0  0  0
   -0.0333    6.0557    1.4816 C   0  0  0  0  0  0  0  0  0  0  0  0
    0.6882    6.1953    2.7069 C   0  0  0  0  0  0  0  0  0  0  0  0
    0.8169    5.0378    3.4721 C   0  0  0  0  0  0  0  0  0  0  0  0
    0.4391    3.7857    3.0062 C   0  0  0  0  0  0  0  0  0  0  0  0
    0.5115    2.7471    3.8627 F   0  0  0  0  0  0  0  0  0  0  0  0
    1.2683    5.1099    4.7374 F   0  0  0  0  0  0  0  0  0  0  0  0
    1.2051    7.4813    3.0454 C   0  0  0  0  0  0  0  0  0  0  0  0
    2.2667    7.8002    3.8215 C   0  0  0  0  0  0  0  0  0  0  0  0
    3.3830    6.7253    4.6329 S   0  0  0  0  0  0  0  0  0  0  0  0
    4.3906    8.0685    5.1030 C   0  0  0  0  0  0  0  0  0  0  0  0
    5.5861    7.8742    5.7495 C   0  0  0  0  0  0  0  0  0  0  0  0
    6.5054    8.8845    6.0809 C   0  0  0  0  0  0  0  0  0  0  0  0
    7.3165    9.6485    6.3594 N   0  0  0  0  0  0  0  0  0  0  0  0
    5.9865    6.5673    6.0757 C   0  0  0  0  0  0  0  0  0  0  0  0
    6.3173    5.4985    6.3358 N   0  0  0  0  0  0  0  0  0  0  0  0
    3.8565    9.2603    4.7275 N   0  0  0  0  0  0  0  0  0  0  0  0
    4.4090   10.5185    5.1074 C   0  0  0  0  0  0  0  0  0  0  0  0
    4.3978   10.8926    6.4436 C   0  0  0  0  0  0  0  0  0  0  0  0
    4.9213   12.1195    6.8058 C   0  0  0  0  0  0  0  0  0  0  0  0
    5.4383   12.9663    5.8400 C   0  0  0  0  0  0  0  0  0  0  0  0
    5.4267   12.5928    4.5071 C   0  0  0  0  0  0  0  0  0  0  0  0
    4.9104   11.3655    4.1325 C   0  0  0  0  0  0  0  0  0  0  0  0
    2.6811    9.1988    3.9879 C   0  0  0  0  0  0  0  0  0  0  0  0
    2.1047   10.1710    3.5625 O   0  0  0  0  0  0  0  0  0  0  0  0
    0.0137   -9.4651   -0.9090 H   0  0  0  0  0  0  0  0  0  0  0  0
    1.8478   -7.9589    4.7927 H   0  0  0  0  0  0  0  0  0  0  0  0
    3.7439  -11.8283    2.1268 H   0  0  0  0  0  0  0  0  0  0  0  0
    5.3162  -11.5816    5.1730 H   0  0  0  0  0  0  0  0  0  0  0  0
    6.9011  -10.5989    3.2673 H   0  0  0  0  0  0  0  0  0  0  0  0
    8.1963  -10.5141    5.5590 H   0  0  0  0  0  0  0  0  0  0  0  0
    7.2303   -8.4845    6.9745 H   0  0  0  0  0  0  0  0  0  0  0  0
    5.3462   -7.3237    5.5636 H   0  0  0  0  0  0  0  0  0  0  0  0
    5.3058   -8.4642    3.1143 H   0  0  0  0  0  0  0  0  0  0  0  0
    6.9548   -7.9753    3.5575 H   0  0  0  0  0  0  0  0  0  0  0  0
    4.3677   -9.5890    6.5618 H   0  0  0  0  0  0  0  0  0  0  0  0
    2.3875   -6.9422   -4.0981 H   0  0  0  0  0  0  0  0  0  0  0  0
    1.9584   -6.8655   -6.5194 H   0  0  0  0  0  0  0  0  0  0  0  0
   -2.2412   -7.3568   -9.4156 H   0  0  0  0  0  0  0  0  0  0  0  0
   -2.6756   -6.4310   -7.9602 H   0  0  0  0  0  0  0  0  0  0  0  0
   -2.4216   -8.2068   -7.8646 H   0  0  0  0  0  0  0  0  0  0  0  0
   -2.2476   -7.0755   -5.7770 H   0  0  0  0  0  0  0  0  0  0  0  0
   -1.8216   -7.2043   -3.3870 H   0  0  0  0  0  0  0  0  0  0  0  0
    1.8974   -9.3575   -3.2065 H   0  0  0  0  0  0  0  0  0  0  0  0
    3.8539  -10.4134   -2.2197 H   0  0  0  0  0  0  0  0  0  0  0  0
    6.7941  -11.5047   -0.3126 H   0  0  0  0  0  0  0  0  0  0  0  0
    6.1150  -10.7492   -1.7702 H   0  0  0  0  0  0  0  0  0  0  0  0
    5.1304  -11.8974   -0.7958 H   0  0  0  0  0  0  0  0  0  0  0  0
    3.8219   -7.5370    0.9445 H   0  0  0  0  0  0  0  0  0  0  0  0
    1.8535   -6.4584   -0.0636 H   0  0  0  0  0  0  0  0  0  0  0  0
   -4.8496   -4.3105    2.9263 H   0  0  0  0  0  0  0  0  0  0  0  0
   -4.5009   -5.4425    5.0882 H   0  0  0  0  0  0  0  0  0  0  0  0
   -0.5814   -7.9771    6.9584 H   0  0  0  0  0  0  0  0  0  0  0  0
    0.2072   -6.4748    6.4237 H   0  0  0  0  0  0  0  0  0  0  0  0
   -0.5578   -7.5692    5.2205 H   0  0  0  0  0  0  0  0  0  0  0  0
   -0.2727   -5.3264    4.4604 H   0  0  0  0  0  0  0  0  0  0  0  0
   -0.6173   -4.1838    2.3349 H   0  0  0  0  0  0  0  0  0  0  0  0
   -4.4013   -3.5190   -0.9958 H   0  0  0  0  0  0  0  0  0  0  0  0
   -6.3558   -2.0629   -1.3695 H   0  0  0  0  0  0  0  0  0  0  0  0
   -8.1035    0.2241    2.4480 H   0  0  0  0  0  0  0  0  0  0  0  0
   -8.7951    1.4736    1.3877 H   0  0  0  0  0  0  0  0  0  0  0  0
   -7.0684    1.5357    1.7911 H   0  0  0  0  0  0  0  0  0  0  0  0
   -5.7707   -0.2907    2.4720 H   0  0  0  0  0  0  0  0  0  0  0  0
   -3.8457   -1.7391    2.8488 H   0  0  0  0  0  0  0  0  0  0  0  0
   -0.6248   -0.9267   -3.1677 H   0  0  0  0  0  0  0  0  0  0  0  0
   -0.3209   -2.3324   -5.1292 H   0  0  0  0  0  0  0  0  0  0  0  0
   -0.4814   -2.5741   -7.4651 H   0  0  0  0  0  0  0  0  0  0  0  0
   -0.5553   -4.1718   -8.2440 H   0  0  0  0  0  0  0  0  0  0  0  0
    0.1208   -4.0364   -6.6098 H   0  0  0  0  0  0  0  0  0  0  0  0
   -4.4855   -3.3092   -5.0713 H   0  0  0  0  0  0  0  0  0  0  0  0
   -4.7843   -1.8857   -3.0777 H   0  0  0  0  0  0  0  0  0  0  0  0
   -4.2375    0.5287   -3.8654 H   0  0  0  0  0  0  0  0  0  0  0  0
   -5.8272    2.3438   -3.7526 H   0  0  0  0  0  0  0  0  0  0  0  0
   -8.1671    2.8412   -3.0558 H   0  0  0  0  0  0  0  0  0  0  0  0
   -7.1544    4.1087   -3.8185 H   0  0  0  0  0  0  0  0  0  0  0  0
   -8.5742    4.5606   -2.8439 H   0  0  0  0  0  0  0  0  0  0  0  0
   -5.2986    2.5589    0.4836 H   0  0  0  0  0  0  0  0  0  0  0  0
   -3.7609    0.6512    0.3830 H   0  0  0  0  0  0  0  0  0  0  0  0
    3.7200   -0.4845    1.9477 H   0  0  0  0  0  0  0  0  0  0  0  0
    4.1071   -2.7184    2.8535 H   0  0  0  0  0  0  0  0  0  0  0  0
    3.4119   -5.0184    2.3272 H   0  0  0  0  0  0  0  0  0  0  0  0
    3.5835   -6.3051    3.5447 H   0  0  0  0  0  0  0  0  0  0  0  0
    4.6121   -4.8609    3.6488 H   0  0  0  0  0  0  0  0  0  0  0  0
    0.2105   -2.6775    4.6241 H   0  0  0  0  0  0  0  0  0  0  0  0
   -0.1709   -0.4186    3.7097 H   0  0  0  0  0  0  0  0  0  0  0  0
    2.1483    2.6896    0.2288 H   0  0  0  0  0  0  0  0  0  0  0  0
    3.8912    4.4103    0.3813 H   0  0  0  0  0  0  0  0  0  0  0  0
    6.7828    4.4440    4.4612 H   0  0  0  0  0  0  0  0  0  0  0  0
    7.1665    3.3184    3.1148 H   0  0  0  0  0  0  0  0  0  0  0  0
    7.9466    4.9164    3.2072 H   0  0  0  0  0  0  0  0  0  0  0  0
    4.8708    3.0824    4.3234 H   0  0  0  0  0  0  0  0  0  0  0  0
    3.1179    1.3829    4.1843 H   0  0  0  0  0  0  0  0  0  0  0  0
   -3.6831    7.3667   -1.2065 H   0  0  0  0  0  0  0  0  0  0  0  0
   -5.2470    7.2142   -3.0670 H   0  0  0  0  0  0  0  0  0  0  0  0
   -5.1433    7.3865   -5.3142 H   0  0  0  0  0  0  0  0  0  0  0  0
   -5.7321    6.3582   -6.6392 H   0  0  0  0  0  0  0  0  0  0  0  0
   -7.5824    7.6175   -5.5388 H   0  0  0  0  0  0  0  0  0  0  0  0
   -7.2549    6.7837   -4.0144 H   0  0  0  0  0  0  0  0  0  0  0  0
   -7.8062    5.8696   -5.4200 H   0  0  0  0  0  0  0  0  0  0  0  0
   -1.7491    3.8007   -2.4925 H   0  0  0  0  0  0  0  0  0  0  0  0
   -2.1069    2.1273   -3.7408 H   0  0  0  0  0  0  0  0  0  0  0  0
   -2.5938    1.7963   -5.4158 H   0  0  0  0  0  0  0  0  0  0  0  0
   -0.2039    2.4569   -5.3265 H   0  0  0  0  0  0  0  0  0  0  0  0
   -1.1545    3.6409   -6.2347 H   0  0  0  0  0  0  0  0  0  0  0  0
   -0.6362    4.0039   -4.5866 H   0  0  0  0  0  0  0  0  0  0  0  0
   -0.9362    9.5528    0.3850 H   0  0  0  0  0  0  0  0  0  0  0  0
   -1.0960   11.5476   -1.0223 H   0  0  0  0  0  0  0  0  0  0  0  0
   -2.1224   13.0004   -2.5368 H   0  0  0  0  0  0  0  0  0  0  0  0
   -0.3455   12.9675   -2.7059 H   0  0  0  0  0  0  0  0  0  0  0  0
   -2.3278   13.5885   -4.9536 H   0  0  0  0  0  0  0  0  0  0  0  0
   -0.5722   13.5609   -5.1157 H   0  0  0  0  0  0  0  0  0  0  0  0
   -1.3438   14.7835   -4.0916 H   0  0  0  0  0  0  0  0  0  0  0  0
   -2.1719    7.2119   -4.9292 H   0  0  0  0  0  0  0  0  0  0  0  0
   -1.9895    8.1534   -6.4268 H   0  0  0  0  0  0  0  0  0  0  0  0
   -0.2771    6.3590   -6.3059 H   0  0  0  0  0  0  0  0  0  0  0  0
    0.3562    7.0378   -4.7996 H   0  0  0  0  0  0  0  0  0  0  0  0
    0.4710    7.9628   -6.2949 H   0  0  0  0  0  0  0  0  0  0  0  0
   -1.1279    7.0701   -3.0692 H   0  0  0  0  0  0  0  0  0  0  0  0
    0.7358    8.3133    2.5333 H   0  0  0  0  0  0  0  0  0  0  0  0
    3.9878   10.2263    7.1888 H   0  0  0  0  0  0  0  0  0  0  0  0
    4.9250   12.4122    7.8443 H   0  0  0  0  0  0  0  0  0  0  0  0
    5.8498   13.9216    6.1279 H   0  0  0  0  0  0  0  0  0  0  0  0
    5.8244   13.2558    3.7541 H   0  0  0  0  0  0  0  0  0  0  0  0
    4.8936   11.0616    3.0972 H   0  0  0  0  0  0  0  0  0  0  0  0
  1  2  2  0  0  0  0
  2  3  1  0  0  0  0
  3  4  2  0  0  0  0
  3  5  1  0  0  0  0
  5  6  2  0  0  0  0
  6  7  1  0  0  0  0
  7  8  2  0  0  0  0
  8  9  1  0  0  0  0
  9 10  2  0  0  0  0
 10 11  1  0  0  0  0
 11 12  2  0  0  0  0
 12 13  1  0  0  0  0
 13 14  3  0  0  0  0
 12 15  1  0  0  0  0
 15 16  3  0  0  0  0
  8 17  1  0  0  0  0
 17 18  1  0  0  0  0
 18 19  1  0  0  0  0
 19 20  2  0  0  0  0
 20 21  1  0  0  0  0
 21 22  1  0  0  0  0
 21 23  1  0  0  0  0
  1 24  1  0  0  0  0
 24 25  2  0  0  0  0
 25 26  1  0  0  0  0
 26 27  1  0  0  0  0
 27 28  2  0  0  0  0
 28 29  1  0  0  0  0
 29 30  2  0  0  0  0
 30 31  1  0  0  0  0
 31 32  1  0  0  0  0
 30 33  1  0  0  0  0
 33 34  2  0  0  0  0
 26 35  1  0  0  0  0
 35 36  2  0  0  0  0
 36 37  1  0  0  0  0
 37 38  2  0  0  0  0
 38 39  1  0  0  0  0
 39 40  1  0  0  0  0
 38 41  1  0  0  0  0
 41 42  2  0  0  0  0
 25 43  1  0  0  0  0
 43 44  1  0  0  0  0
 44 45  1  0  0  0  0
 45 46  2  0  0  0  0
 46 47  1  0  0  0  0
 47 48  1  0  0  0  0
 48 49  2  0  0  0  0
 49 50  1  0  0  0  0
 50 51  2  0  0  0  0
 51 52  1  0  0  0  0
 52 53  1  0  0  0  0
 51 54  1  0  0  0  0
 54 55  2  0  0  0  0
 47 56  1  0  0  0  0
 56 57  2  0  0  0  0
 57 58  1  0  0  0  0
 58 59  2  0  0  0  0
 59 60  1  0  0  0  0
 60 61  1  0  0  0  0
 59 62  1  0  0  0  0
 62 63  2  0  0  0  0
 46 64  1  0  0  0  0
 64 65  1  0  0  0  0
 45 66  1  0  0  0  0
 66 67  2  0  0  0  0
 67 68  1  0  0  0  0
 68 69  1  0  0  0  0
 69 70  2  0  0  0  0
 70 71  1  0  0  0  0
 71 72  2  0  0  0  0
 72 73  1  0  0  0  0
 73 74  1  0  0  0  0
 72 75  1  0  0  0  0
 75 76  2  0  0  0  0
 68 77  1  0  0  0  0
 77 78  2  0  0  0  0
 78 79  1  0  0  0  0
 79 80  2  0  0  0  0
 80 81  1  0  0  0  0
 81 82  1  0  0  0  0
 80 83  1  0  0  0  0
 83 84  2  0  0  0  0
 67 85  1  0  0  0  0
 85 86  1  0  0  0  0
 86 87  1  0  0  0  0
 87 88  2  0  0  0  0
 88 89  1  0  0  0  0
 89 90  1  0  0  0  0
 90 91  2  0  0  0  0
 91 92  1  0  0  0  0
 92 93  2  0  0  0  0
 93 94  1  0  0  0  0
 94 95  1  0  0  0  0
 93 96  1  0  0  0  0
 96 97  2  0  0  0  0
 89 98  1  0  0  0  0
 98 99  2  0  0  0  0
 99100  1  0  0  0  0
100101  2  0  0  0  0
101102  1  0  0  0  0
102103  1  0  0  0  0
101104  1  0  0  0  0
104105  2  0  0  0  0
 88106  1  0  0  0  0
106107  1  0  0  0  0
 87108  1  0  0  0  0
108109  1  0  0  0  0
109110  2  0  0  0  0
110111  1  0  0  0  0
111112  1  0  0  0  0
112113  2  0  0  0  0
113114  1  0  0  0  0
114115  2  0  0  0  0
115116  1  0  0  0  0
116117  1  0  0  0  0
117118  1  0  0  0  0
115119  1  0  0  0  0
119120  2  0  0  0  0
119121  1  0  0  0  0
121122  1  0  0  0  0
122123  1  0  0  0  0
111124  2  0  0  0  0
124125  1  0  0  0  0
125126  2  0  0  0  0
126127  1  0  0  0  0
127128  2  0  0  0  0
128129  1  0  0  0  0
129130  1  0  0  0  0
130131  1  0  0  0  0
128132  1  0  0  0  0
132133  1  0  0  0  0
133134  1  0  0  0  0
134135  1  0  0  0  0
132136  2  0  0  0  0
124137  1  0  0  0  0
137138  2  0  0  0  0
138139  1  0  0  0  0
139140  2  0  0  0  0
140141  1  0  0  0  0
141142  1  0  0  0  0
140143  1  0  0  0  0
139144  1  0  0  0  0
144145  2  0  0  0  0
145146  1  0  0  0  0
146147  1  0  0  0  0
147148  2  0  0  0  0
148149  1  0  0  0  0
149150  3  0  0  0  0
148151  1  0  0  0  0
151152  3  0  0  0  0
147153  1  0  0  0  0
153154  1  0  0  0  0
154155  2  0  0  0  0
155156  1  0  0  0  0
156157  2  0  0  0  0
157158  1  0  0  0  0
158159  2  0  0  0  0
153160  1  0  0  0  0
160161  2  0  0  0  0
 11  2  1  0  0  0  0
 23 17  1  0  0  0  0
 65 24  1  0  0  0  0
107 66  1  0  0  0  0
141108  2  0  0  0  0
160145  1  0  0  0  0
 10  5  1  0  0  0  0
 22 18  1  0  0  0  0
 34 27  1  0  0  0  0
 42 35  1  0  0  0  0
 64 43  2  0  0  0  0
 76 69  1  0  0  0  0
 84 77  1  0  0  0  0
106 85  2  0  0  0  0
138109  1  0  0  0  0
159154  1  0  0  0  0
 23  7  1  0  0  0  0
 55 48  1  0  0  0  0
 63 56  1  0  0  0  0
 97 90  1  0  0  0  0
105 98  1  0  0  0  0
120112  1  0  0  0  0
136125  1  0  0  0  0
  1162  1  0  0  0  0
  6163  1  0  0  0  0
  9164  1  0  0  0  0
 17165  1  0  0  0  0
 18166  1  0  0  0  0
 19167  1  0  0  0  0
 20168  1  0  0  0  0
 21169  1  0  0  0  0
 22170  1  0  0  0  0
 22171  1  0  0  0  0
 23172  1  0  0  0  0
 28173  1  0  0  0  0
 29174  1  0  0  0  0
 32175  1  0  0  0  0
 32176  1  0  0  0  0
 32177  1  0  0  0  0
 33178  1  0  0  0  0
 34179  1  0  0  0  0
 36180  1  0  0  0  0
 37181  1  0  0  0  0
 40182  1  0  0  0  0
 40183  1  0  0  0  0
 40184  1  0  0  0  0
 41185  1  0  0  0  0
 42186  1  0  0  0  0
 49187  1  0  0  0  0
 50188  1  0  0  0  0
 53189  1  0  0  0  0
 53190  1  0  0  0  0
 53191  1  0  0  0  0
 54192  1  0  0  0  0
 55193  1  0  0  0  0
 57194  1  0  0  0  0
 58195  1  0  0  0  0
 61196  1  0  0  0  0
 61197  1  0  0  0  0
 61198  1  0  0  0  0
 62199  1  0  0  0  0
 63200  1  0  0  0  0
 70201  1  0  0  0  0
 71202  1  0  0  0  0
 74203  1  0  0  0  0
 74204  1  0  0  0  0
 74205  1  0  0  0  0
 75206  1  0  0  0  0
 76207  1  0  0  0  0
 78208  1  0  0  0  0
 79209  1  0  0  0  0
 82210  1  0  0  0  0
 82211  1  0  0  0  0
 82212  1  0  0  0  0
 83213  1  0  0  0  0
 84214  1  0  0  0  0
 91215  1  0  0  0  0
 92216  1  0  0  0  0
 95217  1  0  0  0  0
 95218  1  0  0  0  0
 95219  1  0  0  0  0
 96220  1  0  0  0  0
 97221  1  0  0  0  0
 99222  1  0  0  0  0
100223  1  0  0  0  0
103224  1  0  0  0  0
103225  1  0  0  0  0
103226  1  0  0  0  0
104227  1  0  0  0  0
105228  1  0  0  0  0
113229  1  0  0  0  0
114230  1  0  0  0  0
117231  1  0  0  0  0
117232  1  0  0  0  0
118233  1  0  0  0  0
118234  1  0  0  0  0
118235  1  0  0  0  0
120236  1  0  0  0  0
122237  1  0  0  0  0
122238  1  0  0  0  0
123239  1  0  0  0  0
123240  1  0  0  0  0
123241  1  0  0  0  0
126242  1  0  0  0  0
127243  1  0  0  0  0
130244  1  0  0  0  0
130245  1  0  0  0  0
131246  1  0  0  0  0
131247  1  0  0  0  0
131248  1  0  0  0  0
134249  1  0  0  0  0
134250  1  0  0  0  0
135251  1  0  0  0  0
135252  1  0  0  0  0
135253  1  0  0  0  0
136254  1  0  0  0  0
144255  1  0  0  0  0
155256  1  0  0  0  0
156257  1  0  0  0  0
157258  1  0  0  0  0
158259  1  0  0  0  0
159260  1  0  0  0  0
M  END
