
  xtb     02072216003D
 energy: -349.286563706420 gnorm: 0.000519823057 xtb: 6.4.1 (unknown)
198221  0     0  0            999 V2000
    2.8231    0.8263   10.1760 C   0  0  0  0  0  0  0  0  0  0  0  0
    2.1539   -0.0800   10.9388 C   0  0  0  0  0  0  0  0  0  0  0  0
    2.2024   -0.0691   12.4233 C   0  0  0  0  0  0  0  0  0  0  0  0
    2.9593    0.5644   13.1238 O   0  0  0  0  0  0  0  0  0  0  0  0
    1.0969   -0.9546   12.8527 C   0  0  0  0  0  0  0  0  0  0  0  0
    0.6130   -1.1479   14.1442 C   0  0  0  0  0  0  0  0  0  0  0  0
   -0.4644   -1.9996   14.2171 C   0  0  0  0  0  0  0  0  0  0  0  0
   -1.0264   -2.6153   13.0908 C   0  0  0  0  0  0  0  0  0  0  0  0
   -0.5558   -2.4427   11.8112 C   0  0  0  0  0  0  0  0  0  0  0  0
    0.5415   -1.5846   11.7201 C   0  0  0  0  0  0  0  0  0  0  0  0
    1.2834   -1.1592   10.5398 C   0  0  0  0  0  0  0  0  0  0  0  0
    1.3370   -1.8575    9.3601 C   0  0  0  0  0  0  0  0  0  0  0  0
    0.7103   -3.1072    9.1708 C   0  0  0  0  0  0  0  0  0  0  0  0
    0.2766   -4.1497    8.9595 N   0  0  0  0  0  0  0  0  0  0  0  0
    2.1227   -1.5275    8.2409 C   0  0  0  0  0  0  0  0  0  0  0  0
    2.7291   -1.3740    7.2750 N   0  0  0  0  0  0  0  0  0  0  0  0
   -2.0945   -3.3061   13.9003 C   0  0  0  0  0  0  0  0  0  0  0  0
   -3.5244   -2.7124   13.8616 C   0  0  0  0  0  0  0  0  0  0  0  0
   -3.3705   -1.2429   13.5570 C   0  0  0  0  0  0  0  0  0  0  0  0
   -2.8392   -0.6619   14.6243 C   0  0  0  0  0  0  0  0  0  0  0  0
   -2.6247   -1.7276   15.6699 C   0  0  0  0  0  0  0  0  0  0  0  0
   -3.8192   -2.6468   15.3685 C   0  0  0  0  0  0  0  0  0  0  0  0
   -1.4688   -2.6220   15.1563 C   0  0  0  0  0  0  0  0  0  0  0  0
    2.4781    1.1712    8.8414 C   0  0  0  0  0  0  0  0  0  0  0  0
    3.4261    1.5734    7.8843 C   0  0  0  0  0  0  0  0  0  0  0  0
    3.0737    1.7759    6.5004 C   0  0  0  0  0  0  0  0  0  0  0  0
    4.1540    2.0309    5.7605 N   0  0  0  0  0  0  0  0  0  0  0  0
    5.4626    2.0272    6.6953 S   0  0  0  0  0  4  0  0  0  0  0  0
    4.7412    1.6917    8.0854 N   0  0  0  0  0  0  0  0  0  0  0  0
    1.7503    1.6783    5.9969 C   0  0  0  0  0  0  0  0  0  0  0  0
    0.7828    1.5611    7.0226 C   0  0  0  0  0  0  0  0  0  0  0  0
   -0.5342    1.7187    6.8929 N   0  0  0  0  0  0  0  0  0  0  0  0
   -1.2481    1.3969    8.2979 S   0  0  0  0  0  0  0  0  0  0  0  0
    0.0667    1.0612    9.1568 N   0  0  0  0  0  0  0  0  0  0  0  0
    1.1435    1.2122    8.3839 C   0  0  0  0  0  0  0  0  0  0  0  0
    1.5380    1.6421    4.5925 C   0  0  0  0  0  0  0  0  0  0  0  0
    0.4170    1.4054    3.7744 C   0  0  0  0  0  0  0  0  0  0  0  0
   -0.9071    1.1632    4.1018 N   0  0  0  0  0  0  0  0  0  0  0  0
   -1.3353    0.2781    5.0712 C   0  0  0  0  0  0  0  0  0  0  0  0
   -0.5044   -0.7413    5.5556 C   0  0  0  0  0  0  0  0  0  0  0  0
   -0.9300   -1.5509    6.5804 C   0  0  0  0  0  0  0  0  0  0  0  0
   -2.1878   -1.3659    7.1589 C   0  0  0  0  0  0  0  0  0  0  0  0
   -2.5759   -2.3626    8.5536 S   0  0  0  0  0  0  0  0  0  0  0  0
   -4.0674   -1.5795    9.2368 C   0  0  0  0  0  0  0  0  0  0  0  0
   -3.0590   -0.4299    6.6030 C   0  0  0  0  0  0  0  0  0  0  0  0
   -2.6438    0.3679    5.5622 C   0  0  0  0  0  0  0  0  0  0  0  0
   -1.8425    1.7072    3.1922 C   0  0  0  0  0  0  0  0  0  0  0  0
   -1.7927    3.0671    2.8920 C   0  0  0  0  0  0  0  0  0  0  0  0
   -2.6016    3.5865    1.9058 C   0  0  0  0  0  0  0  0  0  0  0  0
   -3.4664    2.7550    1.1975 C   0  0  0  0  0  0  0  0  0  0  0  0
   -4.3957    3.4794   -0.1140 S   0  0  0  0  0  0  0  0  0  0  0  0
   -4.6962    2.0610   -1.2078 C   0  0  0  0  0  0  0  0  0  0  0  0
   -3.5621    1.4107    1.5377 C   0  0  0  0  0  0  0  0  0  0  0  0
   -2.7555    0.8910    2.5296 C   0  0  0  0  0  0  0  0  0  0  0  0
    0.7824    1.4141    2.4047 C   0  0  0  0  0  0  0  0  0  0  0  0
   -0.0883    1.1468    0.9341 S   0  0  0  0  0  0  0  0  0  0  0  0
    1.4056    1.1773   -0.0029 C   0  0  0  0  0  0  0  0  0  0  0  0
    2.5186    1.4243    0.7991 C   0  0  0  0  0  0  0  0  0  0  0  0
    3.8587    1.4478    0.4470 N   0  0  0  0  0  0  0  0  0  0  0  0
    4.3735    2.0773   -0.6812 C   0  0  0  0  0  0  0  0  0  0  0  0
    3.6605    3.0617   -1.3641 C   0  0  0  0  0  0  0  0  0  0  0  0
    4.1773    3.6387   -2.5079 C   0  0  0  0  0  0  0  0  0  0  0  0
    5.4221    3.2517   -2.9842 C   0  0  0  0  0  0  0  0  0  0  0  0
    6.1707    3.9247   -4.4336 S   0  0  0  0  0  0  0  0  0  0  0  0
    4.7531    4.5691   -5.3666 C   0  0  0  0  0  0  0  0  0  0  0  0
    6.1544    2.2949   -2.2848 C   0  0  0  0  0  0  0  0  0  0  0  0
    5.6359    1.7066   -1.1553 C   0  0  0  0  0  0  0  0  0  0  0  0
    4.7327    0.9732    1.4526 C   0  0  0  0  0  0  0  0  0  0  0  0
    4.4900   -0.2742    2.0217 C   0  0  0  0  0  0  0  0  0  0  0  0
    5.1840   -0.6830    3.1424 C   0  0  0  0  0  0  0  0  0  0  0  0
    6.1387    0.1551    3.7020 C   0  0  0  0  0  0  0  0  0  0  0  0
    6.9796   -0.2154    5.2105 S   0  0  0  0  0  0  0  0  0  0  0  0
    5.8837   -1.4169    6.0176 C   0  0  0  0  0  0  0  0  0  0  0  0
    6.4560    1.3576    3.0748 C   0  0  0  0  0  0  0  0  0  0  0  0
    5.7598    1.7671    1.9589 C   0  0  0  0  0  0  0  0  0  0  0  0
    2.1302    1.5718    2.1567 C   0  0  0  0  0  0  0  0  0  0  0  0
    3.0006    1.8465    3.6256 S   0  0  0  0  0  0  0  0  0  0  0  0
    1.2602    0.8970   -1.3884 C   0  0  0  0  0  0  0  0  0  0  0  0
    2.1876    0.6354   -2.3598 C   0  0  0  0  0  0  0  0  0  0  0  0
    1.6256    0.3399   -3.6247 C   0  0  0  0  0  0  0  0  0  0  0  0
    2.3004    0.0881   -4.8320 C   0  0  0  0  0  0  0  0  0  0  0  0
    3.7637    0.1682   -4.9353 C   0  0  0  0  0  0  0  0  0  0  0  0
    4.5986   -0.4929   -4.0416 C   0  0  0  0  0  0  0  0  0  0  0  0
    5.9679   -0.3602   -4.1646 C   0  0  0  0  0  0  0  0  0  0  0  0
    6.7463   -1.0020   -3.2684 F   0  0  0  0  0  0  0  0  0  0  0  0
    6.5779    0.4012   -5.1536 C   0  0  0  0  0  0  0  0  0  0  0  0
    8.0658    0.5246   -5.2862 C   0  0  0  0  0  0  0  0  0  0  0  0
    8.5911   -0.4028   -6.3841 C   0  0  0  0  0  0  0  0  0  0  0  0
    5.7098    1.0271   -6.0418 C   0  0  0  0  0  0  0  0  0  0  0  0
    6.2276    1.7711   -7.0377 F   0  0  0  0  0  0  0  0  0  0  0  0
    4.3369    0.9321   -5.9485 C   0  0  0  0  0  0  0  0  0  0  0  0
    1.5134   -0.1990   -5.9383 C   0  0  0  0  0  0  0  0  0  0  0  0
    0.0939   -0.2153   -5.9004 C   0  0  0  0  0  0  0  0  0  0  0  0
   -0.5840    0.1040   -4.7067 C   0  0  0  0  0  0  0  0  0  0  0  0
   -2.0491    0.1898   -4.6561 C   0  0  0  0  0  0  0  0  0  0  0  0
   -2.7507    0.9049   -5.6242 C   0  0  0  0  0  0  0  0  0  0  0  0
   -4.1248    0.9997   -5.5351 C   0  0  0  0  0  0  0  0  0  0  0  0
   -4.8684    0.4125   -4.5157 C   0  0  0  0  0  0  0  0  0  0  0  0
   -6.3648    0.5050   -4.4675 C   0  0  0  0  0  0  0  0  0  0  0  0
   -6.9966   -0.5812   -5.3414 C   0  0  0  0  0  0  0  0  0  0  0  0
   -4.1316   -0.2991   -3.5771 C   0  0  0  0  0  0  0  0  0  0  0  0
   -2.7573   -0.4167   -3.6223 C   0  0  0  0  0  0  0  0  0  0  0  0
   -4.7885   -0.8945   -2.5567 F   0  0  0  0  0  0  0  0  0  0  0  0
   -4.7807    1.7128   -6.4700 F   0  0  0  0  0  0  0  0  0  0  0  0
    0.2045    0.3564   -3.5984 C   0  0  0  0  0  0  0  0  0  0  0  0
   -0.3798    0.7882   -2.0141 S   0  0  0  0  0  0  0  0  0  0  0  0
   -0.4696   -0.5996   -7.1345 C   0  0  0  0  0  0  0  0  0  0  0  0
    0.4587   -0.8499   -8.1117 C   0  0  0  0  0  0  0  0  0  0  0  0
    2.1023   -0.6494   -7.5114 S   0  0  0  0  0  0  0  0  0  0  0  0
    0.3026   -1.2801   -9.4526 C   0  0  0  0  0  0  0  0  0  0  0  0
   -0.7842   -1.1585  -10.2654 C   0  0  0  0  0  0  0  0  0  0  0  0
   -1.9694   -0.2866  -10.0557 C   0  0  0  0  0  0  0  0  0  0  0  0
   -2.3181    0.2807   -9.0419 O   0  0  0  0  0  0  0  0  0  0  0  0
   -2.6273   -0.1910  -11.3708 C   0  0  0  0  0  0  0  0  0  0  0  0
   -3.7351    0.5922  -11.6891 C   0  0  0  0  0  0  0  0  0  0  0  0
   -4.1302    0.4942  -13.0013 C   0  0  0  0  0  0  0  0  0  0  0  0
   -3.4664   -0.3156  -13.9339 C   0  0  0  0  0  0  0  0  0  0  0  0
   -2.3729   -1.0921  -13.6341 C   0  0  0  0  0  0  0  0  0  0  0  0
   -1.9609   -1.0147  -12.3005 C   0  0  0  0  0  0  0  0  0  0  0  0
   -0.8619   -1.6865  -11.6183 C   0  0  0  0  0  0  0  0  0  0  0  0
   -0.1018   -2.7047  -12.1287 C   0  0  0  0  0  0  0  0  0  0  0  0
   -0.2362   -3.2201  -13.4351 C   0  0  0  0  0  0  0  0  0  0  0  0
   -0.2899   -3.6810  -14.4851 N   0  0  0  0  0  0  0  0  0  0  0  0
    0.8793   -3.4197  -11.4079 C   0  0  0  0  0  0  0  0  0  0  0  0
    1.6697   -4.0641  -10.8804 N   0  0  0  0  0  0  0  0  0  0  0  0
   -4.3988    0.0717  -15.0535 C   0  0  0  0  0  0  0  0  0  0  0  0
   -5.4882   -0.9485  -15.4668 C   0  0  0  0  0  0  0  0  0  0  0  0
   -5.7697   -1.7922  -14.2482 C   0  0  0  0  0  0  0  0  0  0  0  0
   -6.4006   -1.0298  -13.3650 C   0  0  0  0  0  0  0  0  0  0  0  0
   -6.5570    0.3434  -13.9704 C   0  0  0  0  0  0  0  0  0  0  0  0
   -6.7213   -0.0310  -15.4521 C   0  0  0  0  0  0  0  0  0  0  0  0
   -5.1410    0.9699  -14.0142 C   0  0  0  0  0  0  0  0  0  0  0  0
    3.6426    1.3696   10.6311 H   0  0  0  0  0  0  0  0  0  0  0  0
    1.0669   -0.6533   14.9887 H   0  0  0  0  0  0  0  0  0  0  0  0
   -1.0010   -2.9052   10.9450 H   0  0  0  0  0  0  0  0  0  0  0  0
   -2.0960   -4.3935   13.8589 H   0  0  0  0  0  0  0  0  0  0  0  0
   -4.2250   -3.2635   13.2391 H   0  0  0  0  0  0  0  0  0  0  0  0
   -3.5981   -0.7982   12.6056 H   0  0  0  0  0  0  0  0  0  0  0  0
   -2.5372    0.3623   14.7413 H   0  0  0  0  0  0  0  0  0  0  0  0
   -2.5070   -1.3796   16.6927 H   0  0  0  0  0  0  0  0  0  0  0  0
   -3.7579   -3.6145   15.8644 H   0  0  0  0  0  0  0  0  0  0  0  0
   -4.7775   -2.1794   15.5913 H   0  0  0  0  0  0  0  0  0  0  0  0
   -1.0630   -3.2634   15.9361 H   0  0  0  0  0  0  0  0  0  0  0  0
    0.4836   -0.8747    5.1421 H   0  0  0  0  0  0  0  0  0  0  0  0
   -0.2898   -2.3352    6.9521 H   0  0  0  0  0  0  0  0  0  0  0  0
   -4.2424   -2.0733   10.1877 H   0  0  0  0  0  0  0  0  0  0  0  0
   -4.9175   -1.7408    8.5807 H   0  0  0  0  0  0  0  0  0  0  0  0
   -3.8831   -0.5206    9.3943 H   0  0  0  0  0  0  0  0  0  0  0  0
   -4.0595   -0.3110    6.9858 H   0  0  0  0  0  0  0  0  0  0  0  0
   -3.3114    1.1154    5.1635 H   0  0  0  0  0  0  0  0  0  0  0  0
   -1.0977    3.7004    3.4228 H   0  0  0  0  0  0  0  0  0  0  0  0
   -2.5574    4.6351    1.6558 H   0  0  0  0  0  0  0  0  0  0  0  0
   -5.0005    2.4806   -2.1616 H   0  0  0  0  0  0  0  0  0  0  0  0
   -3.7716    1.5038   -1.3241 H   0  0  0  0  0  0  0  0  0  0  0  0
   -5.4888    1.4316   -0.8142 H   0  0  0  0  0  0  0  0  0  0  0  0
   -4.2458    0.7570    1.0212 H   0  0  0  0  0  0  0  0  0  0  0  0
   -2.8061   -0.1598    2.7725 H   0  0  0  0  0  0  0  0  0  0  0  0
    2.6994    3.3823   -0.9926 H   0  0  0  0  0  0  0  0  0  0  0  0
    3.6036    4.3998   -3.0121 H   0  0  0  0  0  0  0  0  0  0  0  0
    4.4252    5.5186   -4.9529 H   0  0  0  0  0  0  0  0  0  0  0  0
    5.1095    4.7126   -6.3819 H   0  0  0  0  0  0  0  0  0  0  0  0
    3.9528    3.8353   -5.3519 H   0  0  0  0  0  0  0  0  0  0  0  0
    7.1310    2.0134   -2.6451 H   0  0  0  0  0  0  0  0  0  0  0  0
    6.1985    0.9438   -0.6391 H   0  0  0  0  0  0  0  0  0  0  0  0
    3.7198   -0.9063    1.6042 H   0  0  0  0  0  0  0  0  0  0  0  0
    4.9594   -1.6411    3.5818 H   0  0  0  0  0  0  0  0  0  0  0  0
    5.9789   -2.3899    5.5449 H   0  0  0  0  0  0  0  0  0  0  0  0
    4.8559   -1.0669    5.9909 H   0  0  0  0  0  0  0  0  0  0  0  0
    6.2225   -1.4792    7.0474 H   0  0  0  0  0  0  0  0  0  0  0  0
    7.2243    1.9854    3.4982 H   0  0  0  0  0  0  0  0  0  0  0  0
    5.9722    2.7222    1.5031 H   0  0  0  0  0  0  0  0  0  0  0  0
    3.2438    0.6343   -2.1827 H   0  0  0  0  0  0  0  0  0  0  0  0
    4.1983   -1.1300   -3.2695 H   0  0  0  0  0  0  0  0  0  0  0  0
    8.5382    0.2684   -4.3369 H   0  0  0  0  0  0  0  0  0  0  0  0
    8.3134    1.5587   -5.5352 H   0  0  0  0  0  0  0  0  0  0  0  0
    9.6702   -0.3049   -6.4683 H   0  0  0  0  0  0  0  0  0  0  0  0
    8.1443   -0.1491   -7.3422 H   0  0  0  0  0  0  0  0  0  0  0  0
    8.3530   -1.4387   -6.1522 H   0  0  0  0  0  0  0  0  0  0  0  0
    3.7242    1.4630   -6.6598 H   0  0  0  0  0  0  0  0  0  0  0  0
   -2.2440    1.3951   -6.4396 H   0  0  0  0  0  0  0  0  0  0  0  0
   -6.7042    0.3860   -3.4375 H   0  0  0  0  0  0  0  0  0  0  0  0
   -6.6779    1.4857   -4.8306 H   0  0  0  0  0  0  0  0  0  0  0  0
   -8.0802   -0.5056   -5.3048 H   0  0  0  0  0  0  0  0  0  0  0  0
   -6.7046   -1.5682   -4.9897 H   0  0  0  0  0  0  0  0  0  0  0  0
   -6.6751   -0.4703   -6.3744 H   0  0  0  0  0  0  0  0  0  0  0  0
   -2.2543   -0.9971   -2.8657 H   0  0  0  0  0  0  0  0  0  0  0  0
   -1.5238   -0.7253   -7.2864 H   0  0  0  0  0  0  0  0  0  0  0  0
    1.1962   -1.7215   -9.8793 H   0  0  0  0  0  0  0  0  0  0  0  0
   -4.2116    1.2067  -10.9412 H   0  0  0  0  0  0  0  0  0  0  0  0
   -1.8673   -1.7028  -14.3634 H   0  0  0  0  0  0  0  0  0  0  0  0
   -3.9379    0.5576  -15.9110 H   0  0  0  0  0  0  0  0  0  0  0  0
   -5.2752   -1.4884  -16.3854 H   0  0  0  0  0  0  0  0  0  0  0  0
   -5.4404   -2.8084  -14.1350 H   0  0  0  0  0  0  0  0  0  0  0  0
   -6.7038   -1.2816  -12.3657 H   0  0  0  0  0  0  0  0  0  0  0  0
   -7.3183    0.9798  -13.5272 H   0  0  0  0  0  0  0  0  0  0  0  0
   -7.6477   -0.5678  -15.6504 H   0  0  0  0  0  0  0  0  0  0  0  0
   -6.6372    0.8198  -16.1268 H   0  0  0  0  0  0  0  0  0  0  0  0
   -5.1677    2.0430  -14.1937 H   0  0  0  0  0  0  0  0  0  0  0  0
  1  2  2  0  0  0  0
  2  3  1  0  0  0  0
  3  4  2  0  0  0  0
  3  5  1  0  0  0  0
  5  6  2  0  0  0  0
  6  7  1  0  0  0  0
  7  8  2  0  0  0  0
  8  9  1  0  0  0  0
  9 10  2  0  0  0  0
 10 11  1  0  0  0  0
 11 12  2  0  0  0  0
 12 13  1  0  0  0  0
 13 14  3  0  0  0  0
 12 15  1  0  0  0  0
 15 16  3  0  0  0  0
  8 17  1  0  0  0  0
 17 18  1  0  0  0  0
 18 19  1  0  0  0  0
 19 20  2  0  0  0  0
 20 21  1  0  0  0  0
 21 22  1  0  0  0  0
 21 23  1  0  0  0  0
  1 24  1  0  0  0  0
 24 25  2  0  0  0  0
 25 26  1  0  0  0  0
 26 27  1  0  0  0  0
 27 28  2  0  0  0  0
 28 29  2  0  0  0  0
 26 30  2  0  0  0  0
 30 31  1  0  0  0  0
 31 32  2  0  0  0  0
 32 33  1  0  0  0  0
 33 34  1  0  0  0  0
 34 35  2  0  0  0  0
 30 36  1  0  0  0  0
 36 37  2  0  0  0  0
 37 38  1  0  0  0  0
 38 39  1  0  0  0  0
 39 40  2  0  0  0  0
 40 41  1  0  0  0  0
 41 42  2  0  0  0  0
 42 43  1  0  0  0  0
 43 44  1  0  0  0  0
 42 45  1  0  0  0  0
 45 46  2  0  0  0  0
 38 47  1  0  0  0  0
 47 48  2  0  0  0  0
 48 49  1  0  0  0  0
 49 50  2  0  0  0  0
 50 51  1  0  0  0  0
 51 52  1  0  0  0  0
 50 53  1  0  0  0  0
 53 54  2  0  0  0  0
 37 55  1  0  0  0  0
 55 56  1  0  0  0  0
 56 57  1  0  0  0  0
 57 58  2  0  0  0  0
 58 59  1  0  0  0  0
 59 60  1  0  0  0  0
 60 61  2  0  0  0  0
 61 62  1  0  0  0  0
 62 63  2  0  0  0  0
 63 64  1  0  0  0  0
 64 65  1  0  0  0  0
 63 66  1  0  0  0  0
 66 67  2  0  0  0  0
 59 68  1  0  0  0  0
 68 69  2  0  0  0  0
 69 70  1  0  0  0  0
 70 71  2  0  0  0  0
 71 72  1  0  0  0  0
 72 73  1  0  0  0  0
 71 74  1  0  0  0  0
 74 75  2  0  0  0  0
 58 76  1  0  0  0  0
 76 77  1  0  0  0  0
 57 78  1  0  0  0  0
 78 79  2  0  0  0  0
 79 80  1  0  0  0  0
 80 81  2  0  0  0  0
 81 82  1  0  0  0  0
 82 83  2  0  0  0  0
 83 84  1  0  0  0  0
 84 85  1  0  0  0  0
 84 86  2  0  0  0  0
 86 87  1  0  0  0  0
 87 88  1  0  0  0  0
 86 89  1  0  0  0  0
 89 90  1  0  0  0  0
 89 91  2  0  0  0  0
 81 92  1  0  0  0  0
 92 93  2  0  0  0  0
 93 94  1  0  0  0  0
 94 95  1  0  0  0  0
 95 96  2  0  0  0  0
 96 97  1  0  0  0  0
 97 98  2  0  0  0  0
 98 99  1  0  0  0  0
 99100  1  0  0  0  0
 98101  1  0  0  0  0
101102  2  0  0  0  0
101103  1  0  0  0  0
 97104  1  0  0  0  0
 94105  2  0  0  0  0
105106  1  0  0  0  0
 93107  1  0  0  0  0
107108  2  0  0  0  0
108109  1  0  0  0  0
108110  1  0  0  0  0
110111  2  0  0  0  0
111112  1  0  0  0  0
112113  2  0  0  0  0
112114  1  0  0  0  0
114115  2  0  0  0  0
115116  1  0  0  0  0
116117  2  0  0  0  0
117118  1  0  0  0  0
118119  2  0  0  0  0
119120  1  0  0  0  0
120121  2  0  0  0  0
121122  1  0  0  0  0
122123  3  0  0  0  0
121124  1  0  0  0  0
124125  3  0  0  0  0
117126  1  0  0  0  0
126127  1  0  0  0  0
127128  1  0  0  0  0
128129  2  0  0  0  0
129130  1  0  0  0  0
130131  1  0  0  0  0
130132  1  0  0  0  0
 11  2  1  0  0  0  0
 23 17  1  0  0  0  0
 35 24  1  0  0  0  0
 77 36  1  0  0  0  0
106 78  1  0  0  0  0
120111  1  0  0  0  0
132126  1  0  0  0  0
 10  5  1  0  0  0  0
 22 18  1  0  0  0  0
 29 25  1  0  0  0  0
 35 31  1  0  0  0  0
 46 39  1  0  0  0  0
 54 47  1  0  0  0  0
 76 55  2  0  0  0  0
105 80  1  0  0  0  0
119114  1  0  0  0  0
131127  1  0  0  0  0
 23  7  1  0  0  0  0
 67 60  1  0  0  0  0
 75 68  1  0  0  0  0
 91 82  1  0  0  0  0
109 92  1  0  0  0  0
132116  1  0  0  0  0
102 95  1  0  0  0  0
  1133  1  0  0  0  0
  6134  1  0  0  0  0
  9135  1  0  0  0  0
 17136  1  0  0  0  0
 18137  1  0  0  0  0
 19138  1  0  0  0  0
 20139  1  0  0  0  0
 21140  1  0  0  0  0
 22141  1  0  0  0  0
 22142  1  0  0  0  0
 23143  1  0  0  0  0
 40144  1  0  0  0  0
 41145  1  0  0  0  0
 44146  1  0  0  0  0
 44147  1  0  0  0  0
 44148  1  0  0  0  0
 45149  1  0  0  0  0
 46150  1  0  0  0  0
 48151  1  0  0  0  0
 49152  1  0  0  0  0
 52153  1  0  0  0  0
 52154  1  0  0  0  0
 52155  1  0  0  0  0
 53156  1  0  0  0  0
 54157  1  0  0  0  0
 61158  1  0  0  0  0
 62159  1  0  0  0  0
 65160  1  0  0  0  0
 65161  1  0  0  0  0
 65162  1  0  0  0  0
 66163  1  0  0  0  0
 67164  1  0  0  0  0
 69165  1  0  0  0  0
 70166  1  0  0  0  0
 73167  1  0  0  0  0
 73168  1  0  0  0  0
 73169  1  0  0  0  0
 74170  1  0  0  0  0
 75171  1  0  0  0  0
 79172  1  0  0  0  0
 83173  1  0  0  0  0
 87174  1  0  0  0  0
 87175  1  0  0  0  0
 88176  1  0  0  0  0
 88177  1  0  0  0  0
 88178  1  0  0  0  0
 91179  1  0  0  0  0
 96180  1  0  0  0  0
 99181  1  0  0  0  0
 99182  1  0  0  0  0
100183  1  0  0  0  0
100184  1  0  0  0  0
100185  1  0  0  0  0
102186  1  0  0  0  0
107187  1  0  0  0  0
110188  1  0  0  0  0
115189  1  0  0  0  0
118190  1  0  0  0  0
126191  1  0  0  0  0
127192  1  0  0  0  0
128193  1  0  0  0  0
129194  1  0  0  0  0
130195  1  0  0  0  0
131196  1  0  0  0  0
131197  1  0  0  0  0
132198  1  0  0  0  0
M  END
