
  xtb     02082216373D
 energy: -351.016037253333 gnorm: 0.000745261235 xtb: 6.4.1 (unknown)
206225  0     0  0            999 V2000
   -5.8589   -1.0954    3.2684 C   0  0  0  0  0  0  0  0  0  0  0  0
   -7.0539   -0.6096    2.7873 C   0  0  0  0  0  0  0  0  0  0  0  0
   -7.2420    0.6187    2.0109 C   0  0  0  0  0  0  0  0  0  0  0  0
   -6.4036    1.4614    1.7304 O   0  0  0  0  0  0  0  0  0  0  0  0
   -8.6702    0.6800    1.6654 C   0  0  0  0  0  0  0  0  0  0  0  0
   -9.2959    1.6246    0.8568 C   0  0  0  0  0  0  0  0  0  0  0  0
  -10.6412    1.4069    0.6826 C   0  0  0  0  0  0  0  0  0  0  0  0
  -11.3140    0.3301    1.2739 C   0  0  0  0  0  0  0  0  0  0  0  0
  -10.7062   -0.6103    2.0728 C   0  0  0  0  0  0  0  0  0  0  0  0
   -9.3363   -0.4094    2.2610 C   0  0  0  0  0  0  0  0  0  0  0  0
   -8.3506   -1.2205    2.9776 C   0  0  0  0  0  0  0  0  0  0  0  0
   -8.6344   -2.3733    3.6697 C   0  0  0  0  0  0  0  0  0  0  0  0
   -9.9361   -2.8624    3.9016 C   0  0  0  0  0  0  0  0  0  0  0  0
  -10.9649   -3.3068    4.1540 N   0  0  0  0  0  0  0  0  0  0  0  0
   -7.6897   -3.2534    4.2307 C   0  0  0  0  0  0  0  0  0  0  0  0
   -6.9917   -4.0523    4.6749 N   0  0  0  0  0  0  0  0  0  0  0  0
  -12.6383    0.7215    0.6670 C   0  0  0  0  0  0  0  0  0  0  0  0
  -13.6737    1.4256    1.5780 C   0  0  0  0  0  0  0  0  0  0  0  0
  -12.8878    2.1283    2.6568 C   0  0  0  0  0  0  0  0  0  0  0  0
  -12.2506    3.1471    2.0953 C   0  0  0  0  0  0  0  0  0  0  0  0
  -12.5938    3.1512    0.6261 C   0  0  0  0  0  0  0  0  0  0  0  0
  -14.0356    2.6219    0.6832 C   0  0  0  0  0  0  0  0  0  0  0  0
  -11.8874    1.9204    0.0062 C   0  0  0  0  0  0  0  0  0  0  0  0
   -4.5549   -0.6781    2.9954 C   0  0  0  0  0  0  0  0  0  0  0  0
   -3.4030   -1.3910    3.4151 C   0  0  0  0  0  0  0  0  0  0  0  0
   -3.3825   -2.3701    4.3736 N   0  0  0  0  0  0  0  0  0  0  0  0
   -4.1787   -2.2838    5.5313 C   0  0  0  0  0  0  0  0  0  0  0  0
   -4.4661   -1.0479    6.1043 C   0  0  0  0  0  0  0  0  0  0  0  0
   -5.2445   -0.9633    7.2412 C   0  0  0  0  0  0  0  0  0  0  0  0
   -5.7382   -2.1190    7.8340 C   0  0  0  0  0  0  0  0  0  0  0  0
   -6.7347   -2.1369    9.2885 S   0  0  0  0  0  0  0  0  0  0  0  0
   -7.0945   -0.3836    9.5968 C   0  0  0  0  0  0  0  0  0  0  0  0
   -5.4315   -3.3583    7.2759 C   0  0  0  0  0  0  0  0  0  0  0  0
   -4.6660   -3.4432    6.1349 C   0  0  0  0  0  0  0  0  0  0  0  0
   -2.4218   -3.3924    4.2825 C   0  0  0  0  0  0  0  0  0  0  0  0
   -1.7249   -3.8105    5.4122 C   0  0  0  0  0  0  0  0  0  0  0  0
   -0.7757   -4.8083    5.3225 C   0  0  0  0  0  0  0  0  0  0  0  0
   -0.5050   -5.4014    4.0964 C   0  0  0  0  0  0  0  0  0  0  0  0
    0.7020   -6.6683    3.8810 S   0  0  0  0  0  0  0  0  0  0  0  0
    0.9710   -7.2980    5.5646 C   0  0  0  0  0  0  0  0  0  0  0  0
   -1.1955   -4.9849    2.9610 C   0  0  0  0  0  0  0  0  0  0  0  0
   -2.1499   -3.9962    3.0538 C   0  0  0  0  0  0  0  0  0  0  0  0
   -2.2661   -0.9656    2.7012 C   0  0  0  0  0  0  0  0  0  0  0  0
   -0.6002   -1.4446    2.6639 S   0  0  0  0  0  0  0  0  0  0  0  0
   -0.2644   -0.2400    1.4287 C   0  0  0  0  0  0  0  0  0  0  0  0
   -1.3716    0.5162    1.1060 C   0  0  0  0  0  0  0  0  0  0  0  0
   -1.3942    1.5304    0.1648 N   0  0  0  0  0  0  0  0  0  0  0  0
   -2.5707    1.7761   -0.5520 C   0  0  0  0  0  0  0  0  0  0  0  0
   -3.3944    0.7168   -0.9338 C   0  0  0  0  0  0  0  0  0  0  0  0
   -4.6094    0.9583   -1.5368 C   0  0  0  0  0  0  0  0  0  0  0  0
   -5.0158    2.2628   -1.7876 C   0  0  0  0  0  0  0  0  0  0  0  0
   -6.6114    2.5145   -2.5115 S   0  0  0  0  0  0  0  0  0  0  0  0
   -7.1389    4.0443   -1.6765 C   0  0  0  0  0  0  0  0  0  0  0  0
   -4.1681    3.3182   -1.4783 C   0  0  0  0  0  0  0  0  0  0  0  0
   -2.9583    3.0780   -0.8585 C   0  0  0  0  0  0  0  0  0  0  0  0
   -0.3165    2.4308    0.0983 C   0  0  0  0  0  0  0  0  0  0  0  0
    0.2017    2.9953    1.2595 C   0  0  0  0  0  0  0  0  0  0  0  0
    1.2896    3.8457    1.2070 C   0  0  0  0  0  0  0  0  0  0  0  0
    1.8774    4.1411   -0.0150 C   0  0  0  0  0  0  0  0  0  0  0  0
    3.3070    5.1617   -0.1919 S   0  0  0  0  0  0  0  0  0  0  0  0
    3.3724    6.0627    1.3840 C   0  0  0  0  0  0  0  0  0  0  0  0
    1.3413    3.6034   -1.1838 C   0  0  0  0  0  0  0  0  0  0  0  0
    0.2484    2.7668   -1.1306 C   0  0  0  0  0  0  0  0  0  0  0  0
   -2.5122    0.0900    1.8367 C   0  0  0  0  0  0  0  0  0  0  0  0
   -4.1516    0.6220    1.8741 S   0  0  0  0  0  0  0  0  0  0  0  0
    1.0425   -0.2392    0.8096 C   0  0  0  0  0  0  0  0  0  0  0  0
    1.4279   -1.1043   -0.1862 C   0  0  0  0  0  0  0  0  0  0  0  0
    0.5957   -2.0887   -0.7352 N   0  0  0  0  0  0  0  0  0  0  0  0
   -0.4316   -1.7154   -1.6012 C   0  0  0  0  0  0  0  0  0  0  0  0
   -1.5712   -2.5107   -1.7409 C   0  0  0  0  0  0  0  0  0  0  0  0
   -2.5670   -2.1482   -2.6199 C   0  0  0  0  0  0  0  0  0  0  0  0
   -2.4658   -0.9746   -3.3661 C   0  0  0  0  0  0  0  0  0  0  0  0
   -3.8063   -0.6089   -4.4554 S   0  0  0  0  0  0  0  0  0  0  0  0
   -3.5121    1.1123   -4.9441 C   0  0  0  0  0  0  0  0  0  0  0  0
   -1.3452   -0.1712   -3.2150 C   0  0  0  0  0  0  0  0  0  0  0  0
   -0.3395   -0.5407   -2.3428 C   0  0  0  0  0  0  0  0  0  0  0  0
    0.9959   -3.4205   -0.5718 C   0  0  0  0  0  0  0  0  0  0  0  0
    0.8480   -4.3579   -1.5951 C   0  0  0  0  0  0  0  0  0  0  0  0
    1.2623   -5.6570   -1.4088 C   0  0  0  0  0  0  0  0  0  0  0  0
    1.8441   -6.0527   -0.2056 C   0  0  0  0  0  0  0  0  0  0  0  0
    2.3349   -7.7453   -0.0891 S   0  0  0  0  0  0  0  0  0  0  0  0
    3.3303   -7.8043    1.4271 C   0  0  0  0  0  0  0  0  0  0  0  0
    1.9987   -5.1239    0.8131 C   0  0  0  0  0  0  0  0  0  0  0  0
    1.5776   -3.8207    0.6285 C   0  0  0  0  0  0  0  0  0  0  0  0
    2.7645   -0.8704   -0.5910 C   0  0  0  0  0  0  0  0  0  0  0  0
    3.7441   -1.4620   -1.8830 S   0  0  0  0  0  0  0  0  0  0  0  0
    5.0118   -0.3297   -1.4517 C   0  0  0  0  0  0  0  0  0  0  0  0
    4.6654    0.4933   -0.3884 C   0  0  0  0  0  0  0  0  0  0  0  0
    5.4106    1.5810    0.0424 N   0  0  0  0  0  0  0  0  0  0  0  0
    5.4250    1.9244    1.3945 C   0  0  0  0  0  0  0  0  0  0  0  0
    5.5837    3.2545    1.7892 C   0  0  0  0  0  0  0  0  0  0  0  0
    5.5934    3.5851    3.1248 C   0  0  0  0  0  0  0  0  0  0  0  0
    5.4312    2.6047    4.1029 C   0  0  0  0  0  0  0  0  0  0  0  0
    5.4379    3.1631    5.7791 S   0  0  0  0  0  0  0  0  0  0  0  0
    5.2057    1.6471    6.7483 C   0  0  0  0  0  0  0  0  0  0  0  0
    5.2822    1.2810    3.7170 C   0  0  0  0  0  0  0  0  0  0  0  0
    5.2900    0.9454    2.3766 C   0  0  0  0  0  0  0  0  0  0  0  0
    6.0769    2.3669   -0.9149 C   0  0  0  0  0  0  0  0  0  0  0  0
    5.4658    2.6522   -2.1358 C   0  0  0  0  0  0  0  0  0  0  0  0
    6.1645    3.3003   -3.1280 C   0  0  0  0  0  0  0  0  0  0  0  0
    7.4871    3.6898   -2.9248 C   0  0  0  0  0  0  0  0  0  0  0  0
    8.3140    4.4046   -4.3100 S   0  0  0  0  0  0  0  0  0  0  0  0
    9.9345    4.8907   -3.6556 C   0  0  0  0  0  0  0  0  0  0  0  0
    8.0741    3.4784   -1.6846 C   0  0  0  0  0  0  0  0  0  0  0  0
    7.3722    2.8229   -0.6900 C   0  0  0  0  0  0  0  0  0  0  0  0
    3.3830    0.1536    0.1068 C   0  0  0  0  0  0  0  0  0  0  0  0
    2.3439    0.8281    1.3095 S   0  0  0  0  0  0  0  0  0  0  0  0
    6.1923   -0.1996   -2.2500 C   0  0  0  0  0  0  0  0  0  0  0  0
    7.4757   -0.0348   -1.7641 C   0  0  0  0  0  0  0  0  0  0  0  0
    8.3813    0.3014   -2.7659 C   0  0  0  0  0  0  0  0  0  0  0  0
    9.6932    0.5509   -2.6396 O   0  0  0  0  0  0  0  0  0  0  0  0
   10.2636    0.4611   -1.3522 C   0  0  0  0  0  0  0  0  0  0  0  0
    7.7832    0.4256   -4.0411 C   0  0  0  0  0  0  0  0  0  0  0  0
    6.0923   -0.0027   -3.9658 S   0  0  0  0  0  0  0  0  0  0  0  0
    8.4848    0.9779   -5.1098 C   0  0  0  0  0  0  0  0  0  0  0  0
    8.0518    1.3081   -6.3729 C   0  0  0  0  0  0  0  0  0  0  0  0
    6.7311    0.9968   -6.9120 C   0  0  0  0  0  0  0  0  0  0  0  0
    5.8246    0.4017   -6.3575 O   0  0  0  0  0  0  0  0  0  0  0  0
    6.7195    1.5383   -8.2891 C   0  0  0  0  0  0  0  0  0  0  0  0
    7.9609    2.1451   -8.5578 C   0  0  0  0  0  0  0  0  0  0  0  0
    8.1970    2.7172   -9.7968 C   0  0  0  0  0  0  0  0  0  0  0  0
    7.1894    2.6781  -10.7503 C   0  0  0  0  0  0  0  0  0  0  0  0
    5.9676    2.0832  -10.4791 C   0  0  0  0  0  0  0  0  0  0  0  0
    4.6353    2.0656  -11.8191 Br  0  0  0  0  0  0  0  0  0  0  0  0
    5.7086    1.4978   -9.2346 C   0  0  0  0  0  0  0  0  0  0  0  0
    4.2015    0.7600   -8.8948 Cl  0  0  0  0  0  0  0  0  0  0  0  0
    8.8046    2.0319   -7.3670 C   0  0  0  0  0  0  0  0  0  0  0  0
   10.0587    2.5734   -7.2344 C   0  0  0  0  0  0  0  0  0  0  0  0
   10.8641    2.5138   -6.0796 C   0  0  0  0  0  0  0  0  0  0  0  0
   11.5874    2.5362   -5.1862 N   0  0  0  0  0  0  0  0  0  0  0  0
   10.7188    3.3034   -8.2437 C   0  0  0  0  0  0  0  0  0  0  0  0
   11.3188    3.9018   -9.0189 N   0  0  0  0  0  0  0  0  0  0  0  0
   -5.9183   -1.9783    3.8923 H   0  0  0  0  0  0  0  0  0  0  0  0
   -8.7356    2.4312    0.4119 H   0  0  0  0  0  0  0  0  0  0  0  0
  -11.2389   -1.4386    2.5091 H   0  0  0  0  0  0  0  0  0  0  0  0
  -13.0971   -0.0159    0.0113 H   0  0  0  0  0  0  0  0  0  0  0  0
  -14.4863    0.7875    1.9148 H   0  0  0  0  0  0  0  0  0  0  0  0
  -12.8314    1.7878    3.6742 H   0  0  0  0  0  0  0  0  0  0  0  0
  -11.5551    3.8282    2.5501 H   0  0  0  0  0  0  0  0  0  0  0  0
  -12.4244    4.0849    0.0957 H   0  0  0  0  0  0  0  0  0  0  0  0
  -14.7213    3.3171    1.1655 H   0  0  0  0  0  0  0  0  0  0  0  0
  -14.4297    2.3319   -0.2900 H   0  0  0  0  0  0  0  0  0  0  0  0
  -11.8548    1.9632   -1.0809 H   0  0  0  0  0  0  0  0  0  0  0  0
   -4.0782   -0.1448    5.6566 H   0  0  0  0  0  0  0  0  0  0  0  0
   -5.4474    0.0094    7.6592 H   0  0  0  0  0  0  0  0  0  0  0  0
   -7.7826   -0.3713   10.4363 H   0  0  0  0  0  0  0  0  0  0  0  0
   -7.5697    0.0542    8.7239 H   0  0  0  0  0  0  0  0  0  0  0  0
   -6.1844    0.1473    9.8609 H   0  0  0  0  0  0  0  0  0  0  0  0
   -5.8193   -4.2530    7.7363 H   0  0  0  0  0  0  0  0  0  0  0  0
   -4.4541   -4.4054    5.6973 H   0  0  0  0  0  0  0  0  0  0  0  0
   -1.9221   -3.3441    6.3658 H   0  0  0  0  0  0  0  0  0  0  0  0
   -0.2453   -5.1038    6.2134 H   0  0  0  0  0  0  0  0  0  0  0  0
    0.0128   -7.5148    6.0264 H   0  0  0  0  0  0  0  0  0  0  0  0
    1.5424   -8.2141    5.4503 H   0  0  0  0  0  0  0  0  0  0  0  0
    1.5400   -6.5827    6.1516 H   0  0  0  0  0  0  0  0  0  0  0  0
   -0.9785   -5.4493    2.0113 H   0  0  0  0  0  0  0  0  0  0  0  0
   -2.7002   -3.6932    2.1756 H   0  0  0  0  0  0  0  0  0  0  0  0
   -3.0852   -0.2975   -0.7356 H   0  0  0  0  0  0  0  0  0  0  0  0
   -5.2552    0.1389   -1.8102 H   0  0  0  0  0  0  0  0  0  0  0  0
   -6.6940    4.9138   -2.1522 H   0  0  0  0  0  0  0  0  0  0  0  0
   -6.8545    3.9851   -0.6301 H   0  0  0  0  0  0  0  0  0  0  0  0
   -8.2192    4.0886   -1.7769 H   0  0  0  0  0  0  0  0  0  0  0  0
   -4.4536    4.3349   -1.6994 H   0  0  0  0  0  0  0  0  0  0  0  0
   -2.3184    3.9057   -0.5901 H   0  0  0  0  0  0  0  0  0  0  0  0
   -0.2444    2.7530    2.2129 H   0  0  0  0  0  0  0  0  0  0  0  0
    1.6781    4.2545    2.1254 H   0  0  0  0  0  0  0  0  0  0  0  0
    3.6367    5.3881    2.1931 H   0  0  0  0  0  0  0  0  0  0  0  0
    2.4159    6.5437    1.5651 H   0  0  0  0  0  0  0  0  0  0  0  0
    4.1469    6.8134    1.2613 H   0  0  0  0  0  0  0  0  0  0  0  0
    1.7967    3.8504   -2.1309 H   0  0  0  0  0  0  0  0  0  0  0  0
   -0.1770    2.3628   -2.0359 H   0  0  0  0  0  0  0  0  0  0  0  0
   -1.6647   -3.4144   -1.1571 H   0  0  0  0  0  0  0  0  0  0  0  0
   -3.4453   -2.7654   -2.7328 H   0  0  0  0  0  0  0  0  0  0  0  0
   -4.4080    1.4206   -5.4739 H   0  0  0  0  0  0  0  0  0  0  0  0
   -3.3809    1.7246   -4.0565 H   0  0  0  0  0  0  0  0  0  0  0  0
   -2.6521    1.1753   -5.6049 H   0  0  0  0  0  0  0  0  0  0  0  0
   -1.2348    0.7365   -3.7869 H   0  0  0  0  0  0  0  0  0  0  0  0
    0.5412    0.0775   -2.2485 H   0  0  0  0  0  0  0  0  0  0  0  0
    0.4198   -4.0586   -2.5395 H   0  0  0  0  0  0  0  0  0  0  0  0
    1.1519   -6.3816   -2.2009 H   0  0  0  0  0  0  0  0  0  0  0  0
    2.6981   -7.6338    2.2933 H   0  0  0  0  0  0  0  0  0  0  0  0
    3.7478   -8.8056    1.4636 H   0  0  0  0  0  0  0  0  0  0  0  0
    4.1288   -7.0706    1.3675 H   0  0  0  0  0  0  0  0  0  0  0  0
    2.4283   -5.4030    1.7610 H   0  0  0  0  0  0  0  0  0  0  0  0
    1.6897   -3.1074    1.4323 H   0  0  0  0  0  0  0  0  0  0  0  0
    5.6904    4.0220    1.0383 H   0  0  0  0  0  0  0  0  0  0  0  0
    5.7250    4.6117    3.4330 H   0  0  0  0  0  0  0  0  0  0  0  0
    6.0363    0.9676    6.5803 H   0  0  0  0  0  0  0  0  0  0  0  0
    5.1941    1.9641    7.7866 H   0  0  0  0  0  0  0  0  0  0  0  0
    4.2569    1.1844    6.4927 H   0  0  0  0  0  0  0  0  0  0  0  0
    5.1683    0.4954    4.4461 H   0  0  0  0  0  0  0  0  0  0  0  0
    5.1974   -0.0920    2.0914 H   0  0  0  0  0  0  0  0  0  0  0  0
    4.4450    2.3458   -2.3056 H   0  0  0  0  0  0  0  0  0  0  0  0
    5.6987    3.4999   -4.0805 H   0  0  0  0  0  0  0  0  0  0  0  0
   10.4301    5.4159   -4.4663 H   0  0  0  0  0  0  0  0  0  0  0  0
    9.8045    5.5585   -2.8092 H   0  0  0  0  0  0  0  0  0  0  0  0
   10.5104    4.0074   -3.3940 H   0  0  0  0  0  0  0  0  0  0  0  0
    9.0852    3.7967   -1.4882 H   0  0  0  0  0  0  0  0  0  0  0  0
    7.8402    2.6438    0.2679 H   0  0  0  0  0  0  0  0  0  0  0  0
    7.7204   -0.1518   -0.7240 H   0  0  0  0  0  0  0  0  0  0  0  0
   10.1786   -0.5534   -0.9522 H   0  0  0  0  0  0  0  0  0  0  0  0
    9.7929    1.1664   -0.6622 H   0  0  0  0  0  0  0  0  0  0  0  0
   11.3141    0.7155   -1.4797 H   0  0  0  0  0  0  0  0  0  0  0  0
    9.5099    1.2172   -4.8558 H   0  0  0  0  0  0  0  0  0  0  0  0
    9.1362    3.1863  -10.0374 H   0  0  0  0  0  0  0  0  0  0  0  0
    7.3537    3.1173  -11.7223 H   0  0  0  0  0  0  0  0  0  0  0  0
  1  2  2  0  0  0  0
  2  3  1  0  0  0  0
  3  4  2  0  0  0  0
  3  5  1  0  0  0  0
  5  6  2  0  0  0  0
  6  7  1  0  0  0  0
  7  8  2  0  0  0  0
  8  9  1  0  0  0  0
  9 10  2  0  0  0  0
 10 11  1  0  0  0  0
 11 12  2  0  0  0  0
 12 13  1  0  0  0  0
 13 14  3  0  0  0  0
 12 15  1  0  0  0  0
 15 16  3  0  0  0  0
  8 17  1  0  0  0  0
 17 18  1  0  0  0  0
 18 19  1  0  0  0  0
 19 20  2  0  0  0  0
 20 21  1  0  0  0  0
 21 22  1  0  0  0  0
 21 23  1  0  0  0  0
  1 24  1  0  0  0  0
 24 25  2  0  0  0  0
 25 26  1  0  0  0  0
 26 27  1  0  0  0  0
 27 28  2  0  0  0  0
 28 29  1  0  0  0  0
 29 30  2  0  0  0  0
 30 31  1  0  0  0  0
 31 32  1  0  0  0  0
 30 33  1  0  0  0  0
 33 34  2  0  0  0  0
 26 35  1  0  0  0  0
 35 36  2  0  0  0  0
 36 37  1  0  0  0  0
 37 38  2  0  0  0  0
 38 39  1  0  0  0  0
 39 40  1  0  0  0  0
 38 41  1  0  0  0  0
 41 42  2  0  0  0  0
 25 43  1  0  0  0  0
 43 44  1  0  0  0  0
 44 45  1  0  0  0  0
 45 46  2  0  0  0  0
 46 47  1  0  0  0  0
 47 48  1  0  0  0  0
 48 49  2  0  0  0  0
 49 50  1  0  0  0  0
 50 51  2  0  0  0  0
 51 52  1  0  0  0  0
 52 53  1  0  0  0  0
 51 54  1  0  0  0  0
 54 55  2  0  0  0  0
 47 56  1  0  0  0  0
 56 57  2  0  0  0  0
 57 58  1  0  0  0  0
 58 59  2  0  0  0  0
 59 60  1  0  0  0  0
 60 61  1  0  0  0  0
 59 62  1  0  0  0  0
 62 63  2  0  0  0  0
 46 64  1  0  0  0  0
 64 65  1  0  0  0  0
 45 66  1  0  0  0  0
 66 67  2  0  0  0  0
 67 68  1  0  0  0  0
 68 69  1  0  0  0  0
 69 70  2  0  0  0  0
 70 71  1  0  0  0  0
 71 72  2  0  0  0  0
 72 73  1  0  0  0  0
 73 74  1  0  0  0  0
 72 75  1  0  0  0  0
 75 76  2  0  0  0  0
 68 77  1  0  0  0  0
 77 78  2  0  0  0  0
 78 79  1  0  0  0  0
 79 80  2  0  0  0  0
 80 81  1  0  0  0  0
 81 82  1  0  0  0  0
 80 83  1  0  0  0  0
 83 84  2  0  0  0  0
 67 85  1  0  0  0  0
 85 86  1  0  0  0  0
 86 87  1  0  0  0  0
 87 88  2  0  0  0  0
 88 89  1  0  0  0  0
 89 90  1  0  0  0  0
 90 91  2  0  0  0  0
 91 92  1  0  0  0  0
 92 93  2  0  0  0  0
 93 94  1  0  0  0  0
 94 95  1  0  0  0  0
 93 96  1  0  0  0  0
 96 97  2  0  0  0  0
 89 98  1  0  0  0  0
 98 99  2  0  0  0  0
 99100  1  0  0  0  0
100101  2  0  0  0  0
101102  1  0  0  0  0
102103  1  0  0  0  0
101104  1  0  0  0  0
104105  2  0  0  0  0
 88106  1  0  0  0  0
106107  1  0  0  0  0
 87108  1  0  0  0  0
108109  2  0  0  0  0
109110  1  0  0  0  0
110111  1  0  0  0  0
111112  1  0  0  0  0
110113  2  0  0  0  0
113114  1  0  0  0  0
113115  1  0  0  0  0
115116  2  0  0  0  0
116117  1  0  0  0  0
117118  2  0  0  0  0
117119  1  0  0  0  0
119120  2  0  0  0  0
120121  1  0  0  0  0
121122  2  0  0  0  0
122123  1  0  0  0  0
123124  1  0  0  0  0
123125  2  0  0  0  0
125126  1  0  0  0  0
120127  1  0  0  0  0
127128  2  0  0  0  0
128129  1  0  0  0  0
129130  3  0  0  0  0
128131  1  0  0  0  0
131132  3  0  0  0  0
 11  2  1  0  0  0  0
 23 17  1  0  0  0  0
 65 24  1  0  0  0  0
107 66  1  0  0  0  0
114108  1  0  0  0  0
127116  1  0  0  0  0
 10  5  1  0  0  0  0
 22 18  1  0  0  0  0
 34 27  1  0  0  0  0
 42 35  1  0  0  0  0
 64 43  2  0  0  0  0
 76 69  1  0  0  0  0
 84 77  1  0  0  0  0
106 85  2  0  0  0  0
125119  1  0  0  0  0
 23  7  1  0  0  0  0
 55 48  1  0  0  0  0
 63 56  1  0  0  0  0
 97 90  1  0  0  0  0
105 98  1  0  0  0  0
  1133  1  0  0  0  0
  6134  1  0  0  0  0
  9135  1  0  0  0  0
 17136  1  0  0  0  0
 18137  1  0  0  0  0
 19138  1  0  0  0  0
 20139  1  0  0  0  0
 21140  1  0  0  0  0
 22141  1  0  0  0  0
 22142  1  0  0  0  0
 23143  1  0  0  0  0
 28144  1  0  0  0  0
 29145  1  0  0  0  0
 32146  1  0  0  0  0
 32147  1  0  0  0  0
 32148  1  0  0  0  0
 33149  1  0  0  0  0
 34150  1  0  0  0  0
 36151  1  0  0  0  0
 37152  1  0  0  0  0
 40153  1  0  0  0  0
 40154  1  0  0  0  0
 40155  1  0  0  0  0
 41156  1  0  0  0  0
 42157  1  0  0  0  0
 49158  1  0  0  0  0
 50159  1  0  0  0  0
 53160  1  0  0  0  0
 53161  1  0  0  0  0
 53162  1  0  0  0  0
 54163  1  0  0  0  0
 55164  1  0  0  0  0
 57165  1  0  0  0  0
 58166  1  0  0  0  0
 61167  1  0  0  0  0
 61168  1  0  0  0  0
 61169  1  0  0  0  0
 62170  1  0  0  0  0
 63171  1  0  0  0  0
 70172  1  0  0  0  0
 71173  1  0  0  0  0
 74174  1  0  0  0  0
 74175  1  0  0  0  0
 74176  1  0  0  0  0
 75177  1  0  0  0  0
 76178  1  0  0  0  0
 78179  1  0  0  0  0
 79180  1  0  0  0  0
 82181  1  0  0  0  0
 82182  1  0  0  0  0
 82183  1  0  0  0  0
 83184  1  0  0  0  0
 84185  1  0  0  0  0
 91186  1  0  0  0  0
 92187  1  0  0  0  0
 95188  1  0  0  0  0
 95189  1  0  0  0  0
 95190  1  0  0  0  0
 96191  1  0  0  0  0
 97192  1  0  0  0  0
 99193  1  0  0  0  0
100194  1  0  0  0  0
103195  1  0  0  0  0
103196  1  0  0  0  0
103197  1  0  0  0  0
104198  1  0  0  0  0
105199  1  0  0  0  0
109200  1  0  0  0  0
112201  1  0  0  0  0
112202  1  0  0  0  0
112203  1  0  0  0  0
115204  1  0  0  0  0
121205  1  0  0  0  0
122206  1  0  0  0  0
M  END
