
  xtb     02092209273D
 energy: -443.413460182105 gnorm: 0.000658623161 xtb: 6.4.1 (unknown)
265289  0     0  0            999 V2000
    5.0403   -2.0796   -5.1165 C   0  0  0  0  0  0  0  0  0  0  0  0
    4.4113   -3.2470   -4.7950 C   0  0  0  0  0  0  0  0  0  0  0  0
    3.1809   -3.2799   -3.9628 C   0  0  0  0  0  0  0  0  0  0  0  0
    2.5252   -2.3359   -3.5703 O   0  0  0  0  0  0  0  0  0  0  0  0
    2.9996   -4.6912   -3.5818 C   0  0  0  0  0  0  0  0  0  0  0  0
    1.9787   -5.2172   -2.7940 C   0  0  0  0  0  0  0  0  0  0  0  0
    2.0541   -6.5774   -2.6185 C   0  0  0  0  0  0  0  0  0  0  0  0
    3.0854   -7.3575   -3.1594 C   0  0  0  0  0  0  0  0  0  0  0  0
    4.1000   -6.8507   -3.9386 C   0  0  0  0  0  0  0  0  0  0  0  0
    4.0293   -5.4711   -4.1478 C   0  0  0  0  0  0  0  0  0  0  0  0
    4.8912   -4.6000   -4.9402 C   0  0  0  0  0  0  0  0  0  0  0  0
    5.9057   -4.9951   -5.7735 C   0  0  0  0  0  0  0  0  0  0  0  0
    6.5949   -4.1059   -6.6226 C   0  0  0  0  0  0  0  0  0  0  0  0
    7.1652   -3.4314   -7.3566 N   0  0  0  0  0  0  0  0  0  0  0  0
    6.3469   -6.3237   -5.9259 C   0  0  0  0  0  0  0  0  0  0  0  0
    6.7631   -7.3817   -6.0871 N   0  0  0  0  0  0  0  0  0  0  0  0
    2.5502   -8.6289   -2.5481 C   0  0  0  0  0  0  0  0  0  0  0  0
    3.2449   -9.1608   -1.2694 C   0  0  0  0  0  0  0  0  0  0  0  0
    3.8462   -7.9655   -0.5719 C   0  0  0  0  0  0  0  0  0  0  0  0
    2.8514   -7.2391   -0.0804 C   0  0  0  0  0  0  0  0  0  0  0  0
    1.5590   -7.9300   -0.4380 C   0  0  0  0  0  0  0  0  0  0  0  0
    2.0109   -9.3977   -0.3836 C   0  0  0  0  0  0  0  0  0  0  0  0
    1.3872   -7.7631   -1.9666 C   0  0  0  0  0  0  0  0  0  0  0  0
    4.3461   -0.8364   -5.0518 C   0  0  0  0  0  0  0  0  0  0  0  0
    3.1506   -0.4504   -5.6538 C   0  0  0  0  0  0  0  0  0  0  0  0
    2.5476   -1.0220   -6.7477 N   0  0  0  0  0  0  0  0  0  0  0  0
    1.9181   -0.2284   -7.7090 C   0  0  0  0  0  0  0  0  0  0  0  0
    2.3313    1.0824   -7.9438 C   0  0  0  0  0  0  0  0  0  0  0  0
    1.7146    1.8616   -8.9020 C   0  0  0  0  0  0  0  0  0  0  0  0
    0.6769    1.3409   -9.6618 C   0  0  0  0  0  0  0  0  0  0  0  0
   -0.1881    2.2372  -10.9125 S   0  0  0  0  0  0  0  0  0  0  0  0
    0.5648    3.8885  -10.8679 C   0  0  0  0  0  0  0  0  0  0  0  0
    0.2791    0.0219   -9.4535 C   0  0  0  0  0  0  0  0  0  0  0  0
    0.8882   -0.7530   -8.4930 C   0  0  0  0  0  0  0  0  0  0  0  0
    2.5195   -2.4343   -6.9099 C   0  0  0  0  0  0  0  0  0  0  0  0
    3.4289   -3.0698   -7.7478 C   0  0  0  0  0  0  0  0  0  0  0  0
    3.4163   -4.4447   -7.8505 C   0  0  0  0  0  0  0  0  0  0  0  0
    2.4940   -5.1994   -7.1252 C   0  0  0  0  0  0  0  0  0  0  0  0
    2.6349   -6.9507   -7.2579 S   0  0  0  0  0  0  0  0  0  0  0  0
    1.2482   -7.5781   -6.2688 C   0  0  0  0  0  0  0  0  0  0  0  0
    1.5485   -4.5576   -6.3365 C   0  0  0  0  0  0  0  0  0  0  0  0
    1.5613   -3.1791   -6.2358 C   0  0  0  0  0  0  0  0  0  0  0  0
    2.6261    0.7008   -5.0195 C   0  0  0  0  0  0  0  0  0  0  0  0
    1.0356    1.3807   -5.0051 S   0  0  0  0  0  0  0  0  0  0  0  0
    1.3714    2.1891   -3.4741 C   0  0  0  0  0  0  0  0  0  0  0  0
    2.6871    2.0243   -3.0801 C   0  0  0  0  0  0  0  0  0  0  0  0
    3.2397    2.4742   -1.8781 N   0  0  0  0  0  0  0  0  0  0  0  0
    4.4975    3.0758   -1.9461 C   0  0  0  0  0  0  0  0  0  0  0  0
    4.8789    3.7251   -3.1229 C   0  0  0  0  0  0  0  0  0  0  0  0
    6.1050    4.3391   -3.2215 C   0  0  0  0  0  0  0  0  0  0  0  0
    6.9821    4.3438   -2.1406 C   0  0  0  0  0  0  0  0  0  0  0  0
    8.4856    5.2527   -2.3471 S   0  0  0  0  0  0  0  0  0  0  0  0
    9.5037    4.7330   -0.9383 C   0  0  0  0  0  0  0  0  0  0  0  0
    6.6264    3.6733   -0.9795 C   0  0  0  0  0  0  0  0  0  0  0  0
    5.4060    3.0314   -0.8914 C   0  0  0  0  0  0  0  0  0  0  0  0
    2.6378    2.0722   -0.6825 C   0  0  0  0  0  0  0  0  0  0  0  0
    2.6944    2.8725    0.4583 C   0  0  0  0  0  0  0  0  0  0  0  0
    2.0687    2.4860    1.6269 C   0  0  0  0  0  0  0  0  0  0  0  0
    1.3866    1.2793    1.6784 C   0  0  0  0  0  0  0  0  0  0  0  0
    0.5094    0.7308    3.1200 S   0  0  0  0  0  0  0  0  0  0  0  0
    1.7004    1.0293    4.4616 C   0  0  0  0  0  0  0  0  0  0  0  0
    1.3407    0.4672    0.5533 C   0  0  0  0  0  0  0  0  0  0  0  0
    1.9525    0.8567   -0.6182 C   0  0  0  0  0  0  0  0  0  0  0  0
    3.3913    1.1860   -3.9771 C   0  0  0  0  0  0  0  0  0  0  0  0
    4.8860    0.3333   -3.8365 S   0  0  0  0  0  0  0  0  0  0  0  0
    0.2340    2.5023   -2.6596 C   0  0  0  0  0  0  0  0  0  0  0  0
    0.0113    3.4078   -1.6315 C   0  0  0  0  0  0  0  0  0  0  0  0
    0.6889    4.5731   -1.3683 N   0  0  0  0  0  0  0  0  0  0  0  0
    1.5902    5.1735   -2.2735 C   0  0  0  0  0  0  0  0  0  0  0  0
    2.6497    5.9204   -1.7683 C   0  0  0  0  0  0  0  0  0  0  0  0
    3.5496    6.5435   -2.6092 C   0  0  0  0  0  0  0  0  0  0  0  0
    3.4027    6.4355   -3.9848 C   0  0  0  0  0  0  0  0  0  0  0  0
    4.5136    7.1440   -5.1560 S   0  0  0  0  0  0  0  0  0  0  0  0
    5.7594    7.9824   -4.1381 C   0  0  0  0  0  0  0  0  0  0  0  0
    2.3221    5.7203   -4.4970 C   0  0  0  0  0  0  0  0  0  0  0  0
    1.4220    5.1029   -3.6555 C   0  0  0  0  0  0  0  0  0  0  0  0
    0.0845    5.4792   -0.4400 C   0  0  0  0  0  0  0  0  0  0  0  0
    0.6421    5.7311    0.8077 C   0  0  0  0  0  0  0  0  0  0  0  0
    0.0583    6.6490    1.6546 C   0  0  0  0  0  0  0  0  0  0  0  0
   -1.1024    7.3194    1.2775 C   0  0  0  0  0  0  0  0  0  0  0  0
   -1.7471    8.4851    2.4313 S   0  0  0  0  0  0  0  0  0  0  0  0
   -3.3106    9.0348    1.6908 C   0  0  0  0  0  0  0  0  0  0  0  0
   -1.6730    7.0576    0.0389 C   0  0  0  0  0  0  0  0  0  0  0  0
   -1.0745    6.1490   -0.8129 C   0  0  0  0  0  0  0  0  0  0  0  0
   -1.0238    2.9324   -0.7811 C   0  0  0  0  0  0  0  0  0  0  0  0
   -1.5759    3.3992    0.7949 S   0  0  0  0  0  0  0  0  0  0  0  0
   -2.4854    1.9000    0.9363 C   0  0  0  0  0  0  0  0  0  0  0  0
   -2.4860    1.1705   -0.2460 C   0  0  0  0  0  0  0  0  0  0  0  0
   -3.2925    0.0532   -0.4123 N   0  0  0  0  0  0  0  0  0  0  0  0
   -4.6553    0.2340   -0.1004 C   0  0  0  0  0  0  0  0  0  0  0  0
   -5.2800    1.4363   -0.4243 C   0  0  0  0  0  0  0  0  0  0  0  0
   -6.6122    1.6386   -0.1369 C   0  0  0  0  0  0  0  0  0  0  0  0
   -7.3420    0.6362    0.4873 C   0  0  0  0  0  0  0  0  0  0  0  0
   -9.0512    0.8467    0.8991 S   0  0  0  0  0  0  0  0  0  0  0  0
   -9.6505    1.8745   -0.4791 C   0  0  0  0  0  0  0  0  0  0  0  0
   -6.7215   -0.5616    0.8274 C   0  0  0  0  0  0  0  0  0  0  0  0
   -5.3889   -0.7664    0.5316 C   0  0  0  0  0  0  0  0  0  0  0  0
   -2.8607   -1.0124   -1.2033 C   0  0  0  0  0  0  0  0  0  0  0  0
   -1.5079   -1.3536   -1.2172 C   0  0  0  0  0  0  0  0  0  0  0  0
   -1.0319   -2.3175   -2.0788 C   0  0  0  0  0  0  0  0  0  0  0  0
   -1.9129   -2.9974   -2.9116 C   0  0  0  0  0  0  0  0  0  0  0  0
   -1.2531   -4.2276   -4.0056 S   0  0  0  0  0  0  0  0  0  0  0  0
   -2.3625   -4.0948   -5.4420 C   0  0  0  0  0  0  0  0  0  0  0  0
   -3.2719   -2.7200   -2.8490 C   0  0  0  0  0  0  0  0  0  0  0  0
   -3.7413   -1.7237   -2.0160 C   0  0  0  0  0  0  0  0  0  0  0  0
   -1.6174    1.7467   -1.1931 C   0  0  0  0  0  0  0  0  0  0  0  0
   -0.9713    1.2013   -2.6884 S   0  0  0  0  0  0  0  0  0  0  0  0
   -2.7906    1.3896    2.2183 C   0  0  0  0  0  0  0  0  0  0  0  0
   -2.8231    2.1247    3.3978 C   0  0  0  0  0  0  0  0  0  0  0  0
   -3.0504    3.5005    3.3843 N   0  0  0  0  0  0  0  0  0  0  0  0
   -2.1639    4.3811    4.0006 C   0  0  0  0  0  0  0  0  0  0  0  0
   -0.8166    4.0378    4.1134 C   0  0  0  0  0  0  0  0  0  0  0  0
    0.0740    4.9104    4.6937 C   0  0  0  0  0  0  0  0  0  0  0  0
   -0.3554    6.1457    5.1730 C   0  0  0  0  0  0  0  0  0  0  0  0
    0.8860    7.2137    5.8397 S   0  0  0  0  0  0  0  0  0  0  0  0
    0.0438    8.8151    5.9694 C   0  0  0  0  0  0  0  0  0  0  0  0
   -1.7006    6.4744    5.0981 C   0  0  0  0  0  0  0  0  0  0  0  0
   -2.5961    5.5984    4.5172 C   0  0  0  0  0  0  0  0  0  0  0  0
   -4.2521    3.9106    2.7949 C   0  0  0  0  0  0  0  0  0  0  0  0
   -4.3215    5.0484    1.9923 C   0  0  0  0  0  0  0  0  0  0  0  0
   -5.5196    5.4143    1.4152 C   0  0  0  0  0  0  0  0  0  0  0  0
   -6.6666    4.6575    1.6316 C   0  0  0  0  0  0  0  0  0  0  0  0
   -8.1730    5.1705    0.8496 S   0  0  0  0  0  0  0  0  0  0  0  0
   -9.4266    4.6597    2.0661 C   0  0  0  0  0  0  0  0  0  0  0  0
   -6.5997    3.5132    2.4136 C   0  0  0  0  0  0  0  0  0  0  0  0
   -5.4023    3.1460    2.9878 C   0  0  0  0  0  0  0  0  0  0  0  0
   -2.6780    1.2953    4.5205 C   0  0  0  0  0  0  0  0  0  0  0  0
   -2.6058    1.5742    6.2169 S   0  0  0  0  0  0  0  0  0  0  0  0
   -2.3308   -0.1555    6.5153 C   0  0  0  0  0  0  0  0  0  0  0  0
   -2.4135   -0.9132    5.3170 C   0  0  0  0  0  0  0  0  0  0  0  0
   -2.4120   -2.2705    5.1833 N   0  0  0  0  0  0  0  0  0  0  0  0
   -2.7653   -3.1650    6.1956 C   0  0  0  0  0  0  0  0  0  0  0  0
   -3.7926   -2.8863    7.0959 C   0  0  0  0  0  0  0  0  0  0  0  0
   -4.0907   -3.7607    8.1215 C   0  0  0  0  0  0  0  0  0  0  0  0
   -3.3648   -4.9381    8.2698 C   0  0  0  0  0  0  0  0  0  0  0  0
   -3.5746   -6.0819    9.5887 S   0  0  0  0  0  0  0  0  0  0  0  0
   -4.9449   -5.4055   10.5651 C   0  0  0  0  0  0  0  0  0  0  0  0
   -2.3802   -5.2510    7.3323 C   0  0  0  0  0  0  0  0  0  0  0  0
   -2.0847   -4.3814    6.3085 C   0  0  0  0  0  0  0  0  0  0  0  0
   -1.9857   -2.8279    3.9495 C   0  0  0  0  0  0  0  0  0  0  0  0
   -2.8119   -3.7064    3.2607 C   0  0  0  0  0  0  0  0  0  0  0  0
   -2.3883   -4.2800    2.0759 C   0  0  0  0  0  0  0  0  0  0  0  0
   -1.1278   -3.9840    1.5737 C   0  0  0  0  0  0  0  0  0  0  0  0
   -0.4540   -4.6924    0.1079 S   0  0  0  0  0  0  0  0  0  0  0  0
   -1.8406   -5.5986   -0.6289 C   0  0  0  0  0  0  0  0  0  0  0  0
   -0.3001   -3.1027    2.2689 C   0  0  0  0  0  0  0  0  0  0  0  0
   -0.7222   -2.5289    3.4459 C   0  0  0  0  0  0  0  0  0  0  0  0
   -2.5788   -0.0591    4.2106 C   0  0  0  0  0  0  0  0  0  0  0  0
   -2.7367   -0.3365    2.5044 S   0  0  0  0  0  0  0  0  0  0  0  0
   -2.0835   -0.5244    7.8301 C   0  0  0  0  0  0  0  0  0  0  0  0
   -1.4355   -1.6840    8.2346 C   0  0  0  0  0  0  0  0  0  0  0  0
   -0.4060   -2.3445    7.4287 C   0  0  0  0  0  0  0  0  0  0  0  0
    0.0274   -1.9844    6.3493 O   0  0  0  0  0  0  0  0  0  0  0  0
    0.1007   -3.4535    8.2701 C   0  0  0  0  0  0  0  0  0  0  0  0
    1.0289   -4.4369    7.9810 C   0  0  0  0  0  0  0  0  0  0  0  0
    1.8004   -4.5004    6.4491 Cl  0  0  0  0  0  0  0  0  0  0  0  0
    1.3097   -5.4067    8.9403 C   0  0  0  0  0  0  0  0  0  0  0  0
    0.6599   -5.3589   10.1610 C   0  0  0  0  0  0  0  0  0  0  0  0
    1.0529   -6.6905   11.4502 Br  0  0  0  0  0  0  0  0  0  0  0  0
   -0.2769   -4.3796   10.4771 C   0  0  0  0  0  0  0  0  0  0  0  0
   -0.5535   -3.4285    9.5150 C   0  0  0  0  0  0  0  0  0  0  0  0
   -1.5211   -2.3285    9.5044 C   0  0  0  0  0  0  0  0  0  0  0  0
   -2.4658   -2.0815   10.4744 C   0  0  0  0  0  0  0  0  0  0  0  0
   -3.5124   -1.1529   10.3183 C   0  0  0  0  0  0  0  0  0  0  0  0
   -4.4248   -0.4591   10.2335 N   0  0  0  0  0  0  0  0  0  0  0  0
   -2.5634   -2.7816   11.6889 C   0  0  0  0  0  0  0  0  0  0  0  0
   -2.7083   -3.3258   12.6909 N   0  0  0  0  0  0  0  0  0  0  0  0
    6.1062   -2.0591   -5.3086 H   0  0  0  0  0  0  0  0  0  0  0  0
    1.2038   -4.5914   -2.3823 H   0  0  0  0  0  0  0  0  0  0  0  0
    4.8844   -7.4597   -4.3561 H   0  0  0  0  0  0  0  0  0  0  0  0
    2.2988   -9.4286   -3.2426 H   0  0  0  0  0  0  0  0  0  0  0  0
    3.9104  -10.0033   -1.4372 H   0  0  0  0  0  0  0  0  0  0  0  0
    4.8984   -7.7490   -0.5585 H   0  0  0  0  0  0  0  0  0  0  0  0
    2.8989   -6.2927    0.4247 H   0  0  0  0  0  0  0  0  0  0  0  0
    0.6900   -7.6465    0.1489 H   0  0  0  0  0  0  0  0  0  0  0  0
    2.2713   -9.7214    0.6230 H   0  0  0  0  0  0  0  0  0  0  0  0
    1.2916  -10.0909   -0.8183 H   0  0  0  0  0  0  0  0  0  0  0  0
    0.3750   -7.9847   -2.3013 H   0  0  0  0  0  0  0  0  0  0  0  0
    3.1562    1.4981   -7.3850 H   0  0  0  0  0  0  0  0  0  0  0  0
    2.0665    2.8695   -9.0514 H   0  0  0  0  0  0  0  0  0  0  0  0
    0.0313    4.4724  -11.6115 H   0  0  0  0  0  0  0  0  0  0  0  0
    0.4301    4.3308   -9.8851 H   0  0  0  0  0  0  0  0  0  0  0  0
    1.6159    3.8265  -11.1340 H   0  0  0  0  0  0  0  0  0  0  0  0
   -0.5187   -0.3859  -10.0552 H   0  0  0  0  0  0  0  0  0  0  0  0
    0.5667   -1.7724   -8.3444 H   0  0  0  0  0  0  0  0  0  0  0  0
    4.1560   -2.4892   -8.2946 H   0  0  0  0  0  0  0  0  0  0  0  0
    4.1306   -4.9520   -8.4812 H   0  0  0  0  0  0  0  0  0  0  0  0
    0.3073   -7.2416   -6.6942 H   0  0  0  0  0  0  0  0  0  0  0  0
    1.3158   -8.6595   -6.3342 H   0  0  0  0  0  0  0  0  0  0  0  0
    1.3527   -7.2612   -5.2351 H   0  0  0  0  0  0  0  0  0  0  0  0
    0.8095   -5.1118   -5.7816 H   0  0  0  0  0  0  0  0  0  0  0  0
    0.8385   -2.6786   -5.6091 H   0  0  0  0  0  0  0  0  0  0  0  0
    4.2033    3.7537   -3.9632 H   0  0  0  0  0  0  0  0  0  0  0  0
    6.3925    4.8274   -4.1399 H   0  0  0  0  0  0  0  0  0  0  0  0
   10.4834    5.1689   -1.1072 H   0  0  0  0  0  0  0  0  0  0  0  0
    9.0868    5.1153   -0.0108 H   0  0  0  0  0  0  0  0  0  0  0  0
    9.5769    3.6497   -0.9223 H   0  0  0  0  0  0  0  0  0  0  0  0
    7.2944    3.6322   -0.1340 H   0  0  0  0  0  0  0  0  0  0  0  0
    5.1657    2.4827    0.0064 H   0  0  0  0  0  0  0  0  0  0  0  0
    3.2285    3.8094    0.4146 H   0  0  0  0  0  0  0  0  0  0  0  0
    2.1074    3.1250    2.4965 H   0  0  0  0  0  0  0  0  0  0  0  0
    1.3744    0.4016    5.2863 H   0  0  0  0  0  0  0  0  0  0  0  0
    1.6872    2.0728    4.7621 H   0  0  0  0  0  0  0  0  0  0  0  0
    2.6890    0.7286    4.1300 H   0  0  0  0  0  0  0  0  0  0  0  0
    0.8395   -0.4861    0.6210 H   0  0  0  0  0  0  0  0  0  0  0  0
    1.9246    0.2046   -1.4785 H   0  0  0  0  0  0  0  0  0  0  0  0
    2.7715    6.0249   -0.7019 H   0  0  0  0  0  0  0  0  0  0  0  0
    4.3635    7.1021   -2.1774 H   0  0  0  0  0  0  0  0  0  0  0  0
    6.4587    8.4234   -4.8418 H   0  0  0  0  0  0  0  0  0  0  0  0
    6.2768    7.2635   -3.5093 H   0  0  0  0  0  0  0  0  0  0  0  0
    5.2896    8.7637   -3.5477 H   0  0  0  0  0  0  0  0  0  0  0  0
    2.1923    5.6603   -5.5671 H   0  0  0  0  0  0  0  0  0  0  0  0
    0.5733    4.5870   -4.0759 H   0  0  0  0  0  0  0  0  0  0  0  0
    1.5231    5.1984    1.1222 H   0  0  0  0  0  0  0  0  0  0  0  0
    0.4939    6.8524    2.6199 H   0  0  0  0  0  0  0  0  0  0  0  0
   -3.1215    9.5503    0.7538 H   0  0  0  0  0  0  0  0  0  0  0  0
   -3.9714    8.1841    1.5535 H   0  0  0  0  0  0  0  0  0  0  0  0
   -3.7449    9.7255    2.4070 H   0  0  0  0  0  0  0  0  0  0  0  0
   -2.5731    7.5577   -0.2807 H   0  0  0  0  0  0  0  0  0  0  0  0
   -1.5126    5.9550   -1.7815 H   0  0  0  0  0  0  0  0  0  0  0  0
   -4.7178    2.2176   -0.9142 H   0  0  0  0  0  0  0  0  0  0  0  0
   -7.0724    2.5748   -0.4078 H   0  0  0  0  0  0  0  0  0  0  0  0
   -9.3059    2.8998   -0.3816 H   0  0  0  0  0  0  0  0  0  0  0  0
   -9.3122    1.4409   -1.4149 H   0  0  0  0  0  0  0  0  0  0  0  0
  -10.7340    1.8434   -0.4227 H   0  0  0  0  0  0  0  0  0  0  0  0
   -7.2949   -1.3302    1.3227 H   0  0  0  0  0  0  0  0  0  0  0  0
   -4.9065   -1.6981    0.7861 H   0  0  0  0  0  0  0  0  0  0  0  0
   -0.8319   -0.8371   -0.5567 H   0  0  0  0  0  0  0  0  0  0  0  0
    0.0243   -2.5319   -2.1230 H   0  0  0  0  0  0  0  0  0  0  0  0
   -3.2856   -4.6390   -5.2632 H   0  0  0  0  0  0  0  0  0  0  0  0
   -2.5602   -3.0460   -5.6403 H   0  0  0  0  0  0  0  0  0  0  0  0
   -1.8335   -4.5377   -6.2803 H   0  0  0  0  0  0  0  0  0  0  0  0
   -3.9730   -3.2611   -3.4659 H   0  0  0  0  0  0  0  0  0  0  0  0
   -4.7945   -1.4857   -2.0094 H   0  0  0  0  0  0  0  0  0  0  0  0
   -0.4832    3.0903    3.7204 H   0  0  0  0  0  0  0  0  0  0  0  0
    1.1217    4.6597    4.7723 H   0  0  0  0  0  0  0  0  0  0  0  0
    0.8200    9.5371    6.2032 H   0  0  0  0  0  0  0  0  0  0  0  0
   -0.4195    9.0578    5.0173 H   0  0  0  0  0  0  0  0  0  0  0  0
   -0.6875    8.7898    6.7723 H   0  0  0  0  0  0  0  0  0  0  0  0
   -2.0669    7.4096    5.4884 H   0  0  0  0  0  0  0  0  0  0  0  0
   -3.6420    5.8620    4.4682 H   0  0  0  0  0  0  0  0  0  0  0  0
   -3.4257    5.6264    1.8221 H   0  0  0  0  0  0  0  0  0  0  0  0
   -5.5821    6.2876    0.7826 H   0  0  0  0  0  0  0  0  0  0  0  0
   -9.1143    4.9878    3.0525 H   0  0  0  0  0  0  0  0  0  0  0  0
  -10.3440    5.1626    1.7766 H   0  0  0  0  0  0  0  0  0  0  0  0
   -9.5741    3.5838    2.0444 H   0  0  0  0  0  0  0  0  0  0  0  0
   -7.4736    2.9050    2.5838 H   0  0  0  0  0  0  0  0  0  0  0  0
   -5.3582    2.2576    3.5999 H   0  0  0  0  0  0  0  0  0  0  0  0
   -4.3603   -1.9729    7.0007 H   0  0  0  0  0  0  0  0  0  0  0  0
   -4.8830   -3.5043    8.8064 H   0  0  0  0  0  0  0  0  0  0  0  0
   -5.8363   -5.3291    9.9497 H   0  0  0  0  0  0  0  0  0  0  0  0
   -5.1072   -6.1212   11.3650 H   0  0  0  0  0  0  0  0  0  0  0  0
   -4.6680   -4.4453   10.9899 H   0  0  0  0  0  0  0  0  0  0  0  0
   -1.8364   -6.1775    7.4347 H   0  0  0  0  0  0  0  0  0  0  0  0
   -1.3059   -4.6223    5.6013 H   0  0  0  0  0  0  0  0  0  0  0  0
   -3.7881   -3.9452    3.6572 H   0  0  0  0  0  0  0  0  0  0  0  0
   -3.0472   -4.9608    1.5612 H   0  0  0  0  0  0  0  0  0  0  0  0
   -2.1176   -6.4416   -0.0020 H   0  0  0  0  0  0  0  0  0  0  0  0
   -2.6775   -4.9231   -0.7804 H   0  0  0  0  0  0  0  0  0  0  0  0
   -1.4765   -5.9514   -1.5890 H   0  0  0  0  0  0  0  0  0  0  0  0
    0.6844   -2.8914    1.8807 H   0  0  0  0  0  0  0  0  0  0  0  0
   -0.0789   -1.8685    4.0033 H   0  0  0  0  0  0  0  0  0  0  0  0
   -2.3894    0.1866    8.5884 H   0  0  0  0  0  0  0  0  0  0  0  0
    2.0218   -6.1880    8.7273 H   0  0  0  0  0  0  0  0  0  0  0  0
   -0.7614   -4.3844   11.4397 H   0  0  0  0  0  0  0  0  0  0  0  0
  1  2  2  0  0  0  0
  2  3  1  0  0  0  0
  3  4  2  0  0  0  0
  3  5  1  0  0  0  0
  5  6  2  0  0  0  0
  6  7  1  0  0  0  0
  7  8  2  0  0  0  0
  8  9  1  0  0  0  0
  9 10  2  0  0  0  0
 10 11  1  0  0  0  0
 11 12  2  0  0  0  0
 12 13  1  0  0  0  0
 13 14  3  0  0  0  0
 12 15  1  0  0  0  0
 15 16  3  0  0  0  0
  8 17  1  0  0  0  0
 17 18  1  0  0  0  0
 18 19  1  0  0  0  0
 19 20  2  0  0  0  0
 20 21  1  0  0  0  0
 21 22  1  0  0  0  0
 21 23  1  0  0  0  0
  1 24  1  0  0  0  0
 24 25  2  0  0  0  0
 25 26  1  0  0  0  0
 26 27  1  0  0  0  0
 27 28  2  0  0  0  0
 28 29  1  0  0  0  0
 29 30  2  0  0  0  0
 30 31  1  0  0  0  0
 31 32  1  0  0  0  0
 30 33  1  0  0  0  0
 33 34  2  0  0  0  0
 26 35  1  0  0  0  0
 35 36  2  0  0  0  0
 36 37  1  0  0  0  0
 37 38  2  0  0  0  0
 38 39  1  0  0  0  0
 39 40  1  0  0  0  0
 38 41  1  0  0  0  0
 41 42  2  0  0  0  0
 25 43  1  0  0  0  0
 43 44  1  0  0  0  0
 44 45  1  0  0  0  0
 45 46  2  0  0  0  0
 46 47  1  0  0  0  0
 47 48  1  0  0  0  0
 48 49  2  0  0  0  0
 49 50  1  0  0  0  0
 50 51  2  0  0  0  0
 51 52  1  0  0  0  0
 52 53  1  0  0  0  0
 51 54  1  0  0  0  0
 54 55  2  0  0  0  0
 47 56  1  0  0  0  0
 56 57  2  0  0  0  0
 57 58  1  0  0  0  0
 58 59  2  0  0  0  0
 59 60  1  0  0  0  0
 60 61  1  0  0  0  0
 59 62  1  0  0  0  0
 62 63  2  0  0  0  0
 46 64  1  0  0  0  0
 64 65  1  0  0  0  0
 45 66  1  0  0  0  0
 66 67  2  0  0  0  0
 67 68  1  0  0  0  0
 68 69  1  0  0  0  0
 69 70  2  0  0  0  0
 70 71  1  0  0  0  0
 71 72  2  0  0  0  0
 72 73  1  0  0  0  0
 73 74  1  0  0  0  0
 72 75  1  0  0  0  0
 75 76  2  0  0  0  0
 68 77  1  0  0  0  0
 77 78  2  0  0  0  0
 78 79  1  0  0  0  0
 79 80  2  0  0  0  0
 80 81  1  0  0  0  0
 81 82  1  0  0  0  0
 80 83  1  0  0  0  0
 83 84  2  0  0  0  0
 67 85  1  0  0  0  0
 85 86  1  0  0  0  0
 86 87  1  0  0  0  0
 87 88  2  0  0  0  0
 88 89  1  0  0  0  0
 89 90  1  0  0  0  0
 90 91  2  0  0  0  0
 91 92  1  0  0  0  0
 92 93  2  0  0  0  0
 93 94  1  0  0  0  0
 94 95  1  0  0  0  0
 93 96  1  0  0  0  0
 96 97  2  0  0  0  0
 89 98  1  0  0  0  0
 98 99  2  0  0  0  0
 99100  1  0  0  0  0
100101  2  0  0  0  0
101102  1  0  0  0  0
102103  1  0  0  0  0
101104  1  0  0  0  0
104105  2  0  0  0  0
 88106  1  0  0  0  0
106107  1  0  0  0  0
 87108  1  0  0  0  0
108109  2  0  0  0  0
109110  1  0  0  0  0
110111  1  0  0  0  0
111112  2  0  0  0  0
112113  1  0  0  0  0
113114  2  0  0  0  0
114115  1  0  0  0  0
115116  1  0  0  0  0
114117  1  0  0  0  0
117118  2  0  0  0  0
110119  1  0  0  0  0
119120  2  0  0  0  0
120121  1  0  0  0  0
121122  2  0  0  0  0
122123  1  0  0  0  0
123124  1  0  0  0  0
122125  1  0  0  0  0
125126  2  0  0  0  0
109127  1  0  0  0  0
127128  1  0  0  0  0
128129  1  0  0  0  0
129130  2  0  0  0  0
130131  1  0  0  0  0
131132  1  0  0  0  0
132133  2  0  0  0  0
133134  1  0  0  0  0
134135  2  0  0  0  0
135136  1  0  0  0  0
136137  1  0  0  0  0
135138  1  0  0  0  0
138139  2  0  0  0  0
131140  1  0  0  0  0
140141  2  0  0  0  0
141142  1  0  0  0  0
142143  2  0  0  0  0
143144  1  0  0  0  0
144145  1  0  0  0  0
143146  1  0  0  0  0
146147  2  0  0  0  0
130148  1  0  0  0  0
148149  1  0  0  0  0
129150  1  0  0  0  0
150151  2  0  0  0  0
151152  1  0  0  0  0
152153  2  0  0  0  0
152154  1  0  0  0  0
154155  2  0  0  0  0
155156  1  0  0  0  0
155157  1  0  0  0  0
157158  2  0  0  0  0
158159  1  0  0  0  0
158160  1  0  0  0  0
160161  2  0  0  0  0
161162  1  0  0  0  0
162163  2  0  0  0  0
163164  1  0  0  0  0
164165  3  0  0  0  0
163166  1  0  0  0  0
166167  3  0  0  0  0
 11  2  1  0  0  0  0
 23 17  1  0  0  0  0
 65 24  1  0  0  0  0
107 66  1  0  0  0  0
149108  1  0  0  0  0
162151  1  0  0  0  0
 10  5  1  0  0  0  0
 22 18  1  0  0  0  0
 34 27  1  0  0  0  0
 42 35  1  0  0  0  0
 64 43  2  0  0  0  0
 76 69  1  0  0  0  0
 84 77  1  0  0  0  0
106 85  2  0  0  0  0
118111  1  0  0  0  0
126119  1  0  0  0  0
148127  2  0  0  0  0
161154  1  0  0  0  0
 23  7  1  0  0  0  0
 55 48  1  0  0  0  0
 63 56  1  0  0  0  0
 97 90  1  0  0  0  0
105 98  1  0  0  0  0
139132  1  0  0  0  0
147140  1  0  0  0  0
  1168  1  0  0  0  0
  6169  1  0  0  0  0
  9170  1  0  0  0  0
 17171  1  0  0  0  0
 18172  1  0  0  0  0
 19173  1  0  0  0  0
 20174  1  0  0  0  0
 21175  1  0  0  0  0
 22176  1  0  0  0  0
 22177  1  0  0  0  0
 23178  1  0  0  0  0
 28179  1  0  0  0  0
 29180  1  0  0  0  0
 32181  1  0  0  0  0
 32182  1  0  0  0  0
 32183  1  0  0  0  0
 33184  1  0  0  0  0
 34185  1  0  0  0  0
 36186  1  0  0  0  0
 37187  1  0  0  0  0
 40188  1  0  0  0  0
 40189  1  0  0  0  0
 40190  1  0  0  0  0
 41191  1  0  0  0  0
 42192  1  0  0  0  0
 49193  1  0  0  0  0
 50194  1  0  0  0  0
 53195  1  0  0  0  0
 53196  1  0  0  0  0
 53197  1  0  0  0  0
 54198  1  0  0  0  0
 55199  1  0  0  0  0
 57200  1  0  0  0  0
 58201  1  0  0  0  0
 61202  1  0  0  0  0
 61203  1  0  0  0  0
 61204  1  0  0  0  0
 62205  1  0  0  0  0
 63206  1  0  0  0  0
 70207  1  0  0  0  0
 71208  1  0  0  0  0
 74209  1  0  0  0  0
 74210  1  0  0  0  0
 74211  1  0  0  0  0
 75212  1  0  0  0  0
 76213  1  0  0  0  0
 78214  1  0  0  0  0
 79215  1  0  0  0  0
 82216  1  0  0  0  0
 82217  1  0  0  0  0
 82218  1  0  0  0  0
 83219  1  0  0  0  0
 84220  1  0  0  0  0
 91221  1  0  0  0  0
 92222  1  0  0  0  0
 95223  1  0  0  0  0
 95224  1  0  0  0  0
 95225  1  0  0  0  0
 96226  1  0  0  0  0
 97227  1  0  0  0  0
 99228  1  0  0  0  0
100229  1  0  0  0  0
103230  1  0  0  0  0
103231  1  0  0  0  0
103232  1  0  0  0  0
104233  1  0  0  0  0
105234  1  0  0  0  0
112235  1  0  0  0  0
113236  1  0  0  0  0
116237  1  0  0  0  0
116238  1  0  0  0  0
116239  1  0  0  0  0
117240  1  0  0  0  0
118241  1  0  0  0  0
120242  1  0  0  0  0
121243  1  0  0  0  0
124244  1  0  0  0  0
124245  1  0  0  0  0
124246  1  0  0  0  0
125247  1  0  0  0  0
126248  1  0  0  0  0
133249  1  0  0  0  0
134250  1  0  0  0  0
137251  1  0  0  0  0
137252  1  0  0  0  0
137253  1  0  0  0  0
138254  1  0  0  0  0
139255  1  0  0  0  0
141256  1  0  0  0  0
142257  1  0  0  0  0
145258  1  0  0  0  0
145259  1  0  0  0  0
145260  1  0  0  0  0
146261  1  0  0  0  0
147262  1  0  0  0  0
150263  1  0  0  0  0
157264  1  0  0  0  0
160265  1  0  0  0  0
M  END
