238

C         -3.87520        8.94850       -2.95850
C         -3.07330        9.89450       -3.48580
C         -1.93950        9.56650       -4.39160
O         -1.50540        8.46190       -4.63600
C         -1.49900       10.85290       -4.95410
C         -0.49480       11.05200       -5.90100
C         -0.32210       12.36410       -6.26840
C         -1.09630       13.40730       -5.73980
C         -2.08850       13.22800       -4.80690
C         -2.27720       11.89860       -4.41130
C         -3.22940       11.34100       -3.45870
C         -4.08610       12.04250       -2.65820
C         -4.94650       11.45480       -1.70500
N         -5.65050       11.04810       -0.89510
C         -4.20560       13.44880       -2.64890
N         -4.34910       14.58610       -2.58990
C         -0.38920       14.45570       -6.56160
C          0.65420       15.32180       -5.82470
C          1.49930       15.89520       -6.93930
C          2.23430       14.90880       -7.43680
C          1.89820       13.65180       -6.66700
C          1.61690       14.25610       -5.28520
C          0.47570       13.29400       -7.14810
C         -3.62310        7.53120       -3.11870
S         -2.43870        6.63250       -2.26100
C         -2.90190        5.13930       -3.04900
C         -3.93330        5.35380       -3.96060
C         -4.62140        4.39130       -4.82560
O         -4.34370        3.20270       -4.89590
C         -5.71240        4.96540       -5.62890
C         -6.48290        4.22770       -6.49390
C         -6.45220        2.77030       -6.78550
C         -7.21520        1.98500       -5.71490
S         -7.67250        5.21850       -7.27150
C         -7.13450        6.64030       -6.45060
C         -7.76080        7.95820       -6.72780
C         -7.03130        8.66910       -7.87180
C         -6.08150        6.35190       -5.61960
C         -5.37980        7.31910       -4.79100
O         -5.60990        8.52210       -4.74710
C         -4.33450        6.72190       -3.97050
C         -2.19660        3.97470       -2.62640
C         -2.17780        2.70730       -3.13810
C         -1.38270        1.80020       -2.40510
C         -1.13390        0.43490       -2.70100
C         -1.22260       -0.06300       -4.04560
C         -1.20370        0.68400       -5.20490
C         -1.05090       -0.08790       -6.36030
C         -0.93810       -1.43280       -6.13340
Si        -0.44500       -2.74750       -7.40110
C          0.80150       -1.85900       -8.56020
C          1.74030       -2.79590       -9.31340
C          0.41090       -4.15020       -6.42510
C          0.32500       -5.52590       -7.07640
C         -2.00180       -3.31170       -8.36740
C         -1.71530       -3.86010       -9.76130
S         -1.05560       -1.75430       -4.43680
C         -0.64590       -0.31160       -1.62420
C         -0.09870        0.28380       -0.46390
C         -0.05500        1.68820       -0.32700
C          0.79830        2.36010        0.62520
C          0.61680        3.56190        1.25790
C          1.77640        4.02670        1.89960
C          2.86200        3.20340        1.77480
Si         4.67660        3.61000        2.13180
C          5.76230        2.16700        1.50800
C          5.63310        0.88840        2.32800
C          5.03780        5.18080        1.09330
C          4.73110        5.00900       -0.39070
C          5.02290        3.97590        3.97590
C          4.24350        5.15690        4.54390
S          2.42690        1.78770        0.87110
C         -0.81430        2.39820       -1.25420
S         -1.17320        4.09960       -1.19770
C          0.31240       -0.68390        0.48090
C          0.03190       -1.97130        0.11420
S         -0.63840       -2.04700       -1.50300
C          0.25880       -3.12020        0.93680
C         -0.46640       -4.28940        1.11730
N         -1.70870       -4.61270        0.58990
C         -1.99630       -4.62070       -0.77770
C         -3.24490       -4.18050       -1.21150
C         -3.57080       -4.20710       -2.54920
C         -2.65340       -4.68230       -3.47780
S         -3.01880       -4.77210       -5.20310
C         -4.29330       -3.49190       -5.40180
C         -1.41090       -5.13610       -3.04750
C         -1.07840       -5.10020       -1.70970
C         -2.67440       -5.08940        1.49160
C         -3.52150       -6.13640        1.14120
C         -4.46160       -6.61330        2.03340
C         -4.56350       -6.05760        3.30140
S         -5.71470       -6.58730        4.53050
C         -6.58800       -7.97270        3.74750
C         -3.71840       -5.00820        3.65680
C         -2.79020       -4.52500        2.76300
C          0.12010       -5.09630        2.12630
S         -0.23610       -6.67240        2.72680
C          1.06250       -6.53810        3.92030
C          1.77810       -5.33440        3.78590
N          2.89680       -4.94840        4.47840
C          3.07750       -3.57390        4.72120
C          4.34210       -2.99630        4.63770
C          4.49500       -1.64140        4.84090
C          3.38960       -0.84330        5.12160
S          3.65670        0.88550        5.35170
C          2.05220        1.59740        4.88200
C          2.13370       -1.42330        5.24050
C          1.98100       -2.77870        5.04410
C          3.80620       -5.87010        5.00370
C          4.38440       -5.65830        6.25800
C          5.21320       -6.60940        6.80950
C          5.49380       -7.79110        6.12470
S          6.48400       -8.97450        6.97150
C          6.61670      -10.36070        5.80930
C          4.97500       -7.97460        4.84710
C          4.13910       -7.02480        4.29770
C          1.22250       -4.54180        2.75230
S          1.63710       -3.02300        2.03220
C          1.23520       -7.62590        4.78840
C          1.78080       -7.56870        6.04910
C          1.74960       -6.36730        6.90210
O          1.31210       -5.26980        6.61170
C          2.22170       -6.80830        8.23050
C          2.35820       -6.02770        9.37360
C          2.83230       -6.71420       10.46660
C          3.14320       -8.07890       10.42860
C          3.01180       -8.86200        9.30570
C          2.53140       -8.18180        8.18550
C          2.28960       -8.66320        6.82900
C          2.64320       -9.89330        6.33110
C          3.20330      -10.93760        7.09000
N          3.67040      -11.83460        7.63540
C          2.57280      -10.23200        4.96580
N          2.59950      -10.56410        3.86570
C          3.54770       -8.10940       11.88130
C          2.54640       -8.71280       12.89740
C          1.17110       -8.53270       12.30450
C          0.88080       -7.23910       12.33990
C          2.05510       -6.52100       12.95770
C          2.53620       -7.59210       13.94940
C          3.20530       -6.58660       11.92270
H         -4.77320        9.21380       -2.41450
H          0.07030       10.21950       -6.29020
H         -2.68250       14.03780       -4.41700
H         -1.01830       15.03030       -7.23850
H          0.23730       16.02850       -5.11260
H          1.43690       16.91310       -7.27650
H          2.90830       14.93810       -8.27270
H          2.61590       12.83780       -6.72190
H          2.50780       14.69490       -4.83920
H          1.16170       13.56190       -4.58120
H          0.42580       13.09470       -8.21690
H         -6.90110        2.58770       -7.76390
H         -5.41470        2.43170       -6.79460
H         -7.21670        0.92730       -5.96360
H         -6.73300        2.11350       -4.74970
H         -8.24440        2.33110       -5.64640
H         -8.81030        7.81790       -6.99420
H         -7.69470        8.57530       -5.83010
H         -5.99690        8.85350       -7.59290
H         -7.05110        8.06180       -8.77450
H         -7.50960        9.62210       -8.07980
H         -2.78560        2.42100       -3.97400
H         -1.22820        1.75700       -5.22390
H         -0.99680        0.33500       -7.34760
H          1.40340       -1.16520       -7.97060
H          0.25690       -1.25050       -9.28370
H          2.33390       -3.38410       -8.61860
H          2.42300       -2.22940       -9.94520
H          1.18230       -3.47920       -9.94750
H          1.46050       -3.89460       -6.26710
H         -0.04090       -4.20310       -5.43480
H         -0.71250       -5.83510       -7.17130
H          0.84580       -6.26930       -6.47470
H          0.77660       -5.51720       -8.06530
H         -2.51830       -4.08180       -7.79480
H         -2.69150       -2.46990       -8.45880
H         -1.06010       -4.72500       -9.70680
H         -1.24090       -3.10620      -10.38430
H         -2.63930       -4.16780      -10.24860
H         -0.32000        4.08930        1.27070
H          1.81870        4.96570        2.42240
H          5.50210        1.94440        0.47240
H          6.80800        2.47830        1.50410
H          4.60870        0.52490        2.31380
H          5.91730        1.06690        3.36130
H          6.27320        0.10540        1.92460
H          6.08380        5.46730        1.20950
H          4.44580        6.01260        1.47600
H          4.93370        5.92810       -0.93760
H          3.68440        4.75160       -0.53640
H          5.33920        4.21670       -0.81990
H          4.81370        3.09360        4.57920
H          6.08910        4.17600        4.09040
H          3.17220        4.98720        4.46800
H          4.48120        6.07090        4.00570
H          4.48760        5.30770        5.59390
H          0.73490       -0.43420        1.43800
H         -3.95790       -3.81430       -0.48800
H         -4.54370       -3.86030       -2.85740
H         -3.96590       -2.58580       -4.90160
H         -4.37930       -3.31490       -6.46860
H         -5.24600       -3.83860       -5.01160
H         -0.71210       -5.52920       -3.76890
H         -0.11160       -5.44750       -1.37710
H         -3.43760       -6.58560        0.16290
H         -5.09830       -7.42750        1.72780
H         -7.29020       -8.33280        4.49300
H         -5.88360       -8.75960        3.49420
H         -7.12770       -7.62620        2.87100
H         -3.80440       -4.57520        4.64160
H         -2.14770       -3.70400        3.04570
H          5.19810       -3.61070        4.40150
H          5.47000       -1.18610        4.76880
H          2.23310        2.65190        4.70190
H          1.70640        1.12260        3.96930
H          1.33110        1.47810        5.68550
H          1.27230       -0.82970        5.50170
H          1.01490       -3.23990        5.17380
H          4.15900       -4.75430        6.80260
H          5.63520       -6.46050        7.79140
H          7.13420      -10.04260        4.90890
H          5.63200      -10.75870        5.58260
H          7.20170      -11.11480        6.32640
H          5.20160       -8.85830        4.27330
H          3.73070       -7.18870        3.31180
H          0.86080       -8.57680        4.42710
H          2.11050       -4.97760        9.36230
H          3.25230       -9.91220        9.28800
H          4.57440       -8.40740       12.08390
H          2.79570       -9.71500       13.23560
H          0.59240       -9.33220       11.88000
H          0.01160       -6.74200       11.95060
H          1.85720       -5.52720       13.35120
H          1.82290       -7.77390       14.75200
H          3.51880       -7.38340       14.37040
H          4.00990       -5.89020       12.15130
