214

C         -4.67530        5.35580        2.23020
C         -5.75500        5.37680        3.07090
C         -6.90000        6.26030        2.75090
O         -6.91070        7.18550        1.96730
C         -8.03070        5.73540        3.54510
C         -9.35300        6.16920        3.51650
C        -10.19180        5.46790        4.34970
C         -9.75030        4.40930        5.15350
C         -8.44550        3.97770        5.20140
C         -7.57660        4.67880        4.36300
C         -6.12940        4.55500        4.19000
C         -5.26200        3.98260        5.09400
C         -3.89020        4.28990        5.10910
N         -2.78920        4.60900        5.20150
C         -5.66920        3.12900        6.13250
N         -5.97530        2.38870        6.95620
C        -11.12720        4.15610        5.71500
C        -11.92630        2.95210        5.15790
C        -11.42210        2.71350        3.75630
C        -11.84060        3.71850        2.99880
C        -12.63490        4.65520        3.87470
C        -13.26240        3.64680        4.85040
C        -11.61860        5.33900        4.82250
C         -3.71820        4.35600        2.01650
C         -2.66990        4.43290        1.08240
N         -2.26810        5.55520        0.41100
C         -2.23100        6.82830        1.00110
C         -2.34390        7.96270        0.19820
C         -2.27250        9.21770        0.76020
C         -2.09180        9.36890        2.13370
S         -2.00980       11.02270        2.73840
C         -1.70260       10.82330        4.51630
C         -1.98620        8.23900        2.93500
C         -2.04980        6.98140        2.37280
C         -1.67040        5.34900       -0.85050
C         -0.41690        5.86640       -1.15690
C          0.18550        5.56600       -2.36390
C         -0.45760        4.74100       -3.27910
S          0.23440        4.22370       -4.81330
C          1.95870        4.78300       -4.74360
C         -1.73670        4.26480       -2.99330
C         -2.33770        4.56600       -1.79350
C         -2.02940        3.18280        0.93470
S         -0.73340        2.61400       -0.05070
C         -0.76630        1.06460        0.77210
C         -1.78430        0.97400        1.70340
N         -2.08440       -0.16020        2.43790
C         -1.94840       -1.41540        1.82810
C         -1.44150       -2.50800        2.52990
C         -1.29840       -3.72970        1.90470
C         -1.65320       -3.88460        0.56810
S         -1.44530       -5.47340       -0.17930
C         -2.78540       -5.47940       -1.40900
C         -2.15490       -2.79900       -0.13640
C         -2.31200       -1.58180        0.49300
C         -2.51540       -0.03250        3.76610
C         -3.41160       -0.94270        4.32140
C         -3.80540       -0.82880        5.64050
C         -3.31940        0.20490        6.43170
S         -3.68230        0.38770        8.14720
C         -5.26560       -0.47900        8.33330
C         -2.45050        1.13570        5.86980
C         -2.05660        1.02170        4.55610
C         -2.50140        2.19320        1.78080
S         -3.84060        2.73820        2.72160
C          0.20390        0.07460        0.38100
C          1.27490       -0.41570        1.10200
N          1.60760       -0.02120        2.38780
C          2.23010       -0.93350        3.24740
C          1.90270       -2.28940        3.18980
C          2.52080       -3.19190        4.02510
C          3.47560       -2.76660        4.94580
S          4.18670       -4.01400        5.97200
C          5.38630       -3.11150        6.99350
C          3.80550       -1.41960        5.00720
C          3.19350       -0.51540        4.16150
C          1.48650        1.33500        2.73420
C          1.77530        2.33140        1.80100
C          1.59960        3.65870        2.12010
C          1.14450        4.02900        3.38370
S          0.93350        5.75720        3.66270
C          0.23540        5.85090        5.33520
C          0.90460        3.04450        4.33340
C          1.07640        1.71100        4.00950
C          2.05340       -1.30240        0.31060
S          3.51590       -2.18790        0.55000
C          3.52590       -2.68320       -1.12890
C          2.44010       -2.20690       -1.82330
N          2.12580       -2.45950       -3.17550
C          1.31870       -3.58700       -3.40710
C          0.16600       -3.51300       -4.19140
C         -0.61440       -4.63080       -4.39080
C         -0.27990       -5.84620       -3.79700
S         -1.34450       -7.21840       -4.12910
C         -0.77120       -8.49250       -2.97010
C          0.84420       -5.91780       -2.98860
C          1.63060       -4.79870       -2.79710
C          2.28680       -1.43610       -4.09850
C          2.19710       -1.69250       -5.47030
C          2.37600       -0.68160       -6.39080
C          2.64870        0.61060       -5.96630
S          2.86670        1.93400       -7.14090
C          1.17360        2.02140       -7.80590
C          2.79300        0.86770       -4.61310
C          2.62070       -0.14160       -3.68990
C          1.60010       -1.43250       -0.98950
S          0.18380       -0.49580       -1.28340
C          4.61470       -3.52050       -1.61710
C          5.28340       -3.20560       -2.82320
O          4.89980       -2.06990       -3.44070
C          5.74110       -1.48100       -4.41470
C          6.27820       -4.07610       -3.23960
F          6.84780       -3.90710       -4.45880
C          6.71730       -5.18640       -2.50160
C          6.07250       -5.48020       -1.29420
O          6.35640       -6.44790       -0.39750
C          7.37090       -7.39950       -0.60680
C          5.02480       -4.63390       -0.90270
F          4.37870       -4.95210        0.23490
C          7.82180       -5.96520       -3.05840
C          8.99280       -5.42220       -3.45050
C          9.36780       -3.98140       -3.27670
O          8.80260       -3.16560       -2.58770
C         10.58910       -3.81050       -4.07760
C         11.29940       -2.64250       -4.35320
O         10.87180       -1.46930       -3.86560
C         12.44320       -2.75360       -5.15030
C         12.85110       -3.97760       -5.64700
C         12.14740       -5.14350       -5.37540
C         11.01300       -5.05410       -4.58520
C         10.08890       -6.08980       -4.13730
C         10.25620       -7.43930       -4.28650
C         11.35060       -8.04160       -4.94440
N         12.21000       -8.59570       -5.46500
C          9.38370       -8.41530       -3.76000
N          8.72630       -9.25100       -3.32580
H         -4.63450        6.19100        1.53700
H         -9.65300        6.99050        2.88460
H         -8.11570        3.16150        5.82300
H        -11.22750        4.25600        6.79410
H        -11.95170        2.08520        5.81310
H        -10.78300        1.89500        3.48080
H        -11.62120        3.90700        1.96410
H        -13.30580        5.33930        3.36180
H        -13.71930        4.11340        5.72210
H        -13.98070        2.98500        4.36850
H        -12.03760        6.21160        5.32010
H         -2.49060        7.85290       -0.86590
H         -2.36140       10.09750        0.14190
H         -1.62170       11.83040        4.91340
H         -2.53750       10.30920        4.98370
H         -0.76970       10.28940        4.67230
H         -1.84710        8.31880        4.00030
H         -1.95710        6.11460        3.00770
H          0.09370        6.48750       -0.43600
H          1.16310        5.97000       -2.57260
H          2.44750        4.33120       -5.60270
H          2.00570        5.86570       -4.81640
H          2.41880        4.42840       -3.82620
H         -2.24220        3.64790       -3.72000
H         -3.32330        4.18650       -1.56690
H         -1.16160       -2.39260        3.56640
H         -0.90310       -4.57490        2.44710
H         -2.94630       -6.51680       -1.68340
H         -2.49490       -4.91250       -2.28870
H         -3.68350       -5.07220       -0.95530
H         -2.42160       -2.89070       -1.17720
H         -2.71680       -0.74650       -0.05930
H         -3.79690       -1.75060        3.71680
H         -4.49150       -1.55610        6.04430
H         -5.12570       -1.55340        8.25430
H         -5.62220       -0.22580        9.32640
H         -5.95620       -0.10350        7.58540
H         -2.08480        1.94940        6.47670
H         -1.37880        1.74870        4.13860
H          1.15640       -2.63150        2.48980
H          2.26880       -4.23960        3.97380
H          4.87520       -2.37380        7.60530
H          5.84870       -3.85990        7.62960
H          6.13890       -2.64960        6.36110
H          4.54620       -1.05710        5.70150
H          3.47340        0.52660        4.20690
H          2.13400        2.05800        0.81970
H          1.80960        4.42580        1.39030
H          0.08190        6.90900        5.52410
H          0.94480        5.45270        6.05490
H         -0.71490        5.32600        5.37150
H          0.56460        3.29820        5.32420
H          0.87880        0.95020        4.75030
H         -0.12380       -2.57070       -4.63170
H         -1.50230       -4.57200       -5.00310
H         -0.76650       -8.09370       -1.95940
H         -1.48760       -9.30450       -3.04880
H          0.21460       -8.84460       -3.25990
H          1.12480       -6.83560       -2.49930
H          2.49970       -4.87480       -2.16410
H          2.00760       -2.69790       -5.81490
H          2.31280       -0.90050       -7.44670
H          0.90520        1.06740       -8.24880
H          1.17750        2.79860       -8.56280
H          0.49020        2.28200       -7.00280
H          3.04200        1.86490       -4.28510
H          2.75830        0.08150       -2.64480
H          5.35560       -0.47150       -4.54930
H          6.77730       -1.44180       -4.07060
H          5.68770       -2.01250       -5.36730
H          7.51200       -7.88060        0.36080
H          7.07980       -8.15730       -1.33870
H          8.30810       -6.92800       -0.91630
H          7.63540       -7.01450       -3.23540
H         11.45580       -0.74890       -4.13630
H         13.01260       -1.86280       -5.38020
H         13.73720       -4.02750       -6.26120
H         12.48350       -6.08310       -5.77990
