152

C          0.08230        6.15640       -2.72510
C         -0.49080        4.91210       -2.66050
C          0.28720        3.68260       -2.37610
O          1.49410        3.54810       -2.30290
C         -0.70760        2.64670       -2.04260
C         -0.43750        1.34200       -1.63690
C         -1.55970        0.59530       -1.37220
C         -2.85640        1.10670       -1.51080
C         -3.13500        2.39880       -1.89390
C         -2.00580        3.17990       -2.15700
C         -1.89280        4.58310       -2.55720
C         -2.93440        5.42470       -2.85570
C         -2.77360        6.75020       -3.31000
N         -2.72610        7.83080       -3.69530
C         -4.29450        5.06850       -2.77250
N         -5.41820        4.83650       -2.71650
C         -3.49720       -0.20010       -1.11020
C         -4.07030       -1.09780       -2.23630
C         -3.28290       -0.79080       -3.48600
C         -2.06050       -1.27810       -3.32240
C         -1.99740       -1.91840       -1.95940
C         -3.43700       -2.44060       -1.83830
C         -2.05100       -0.76240       -0.93230
C          1.46790        6.31860       -2.98500
C          2.30290        7.18740       -2.24750
C          3.73880        6.97140       -2.14700
N          4.29990        7.80060       -1.27160
S          3.16800        8.76670       -0.65740
N          1.89970        8.16320       -1.43740
C          4.38260        5.90870       -2.83100
C          3.58640        5.30930       -3.83800
N          4.01750        4.42850       -4.73420
S          2.76110        3.89830       -5.58800
N          1.61010        4.74350       -4.85450
C          2.15660        5.48030       -3.89100
C          5.53910        5.25110       -2.37090
S          5.89360        3.66560       -3.01910
C          6.86250        3.31580       -1.63690
C          7.14130        2.03100       -1.14520
C          7.37620        1.89510        0.22790
O          7.69250        2.91980        1.02360
C          7.85880        4.24270        0.45240
C          9.33850        4.40700        0.03020
C         10.33220        4.19580        1.16630
C          7.46240        5.21530        1.57140
C          6.01280        5.04470        2.01350
C          7.01390        4.41600       -0.78460
C          6.27890        5.50860       -1.21580
C          7.06460        0.61370        0.70320
C          6.58710       -0.22280       -0.28770
S          6.63800        0.53800       -1.85800
C          5.81370       -1.40870       -0.15460
C          5.15370       -1.83680        0.96870
C          4.10330       -2.74420        0.70190
C          3.09320       -3.17370        1.59740
C          3.22390       -3.01160        3.02040
C          4.39140       -3.02350        3.74550
C          4.26480       -2.83990        5.13010
C          2.97990       -2.67110        5.57500
S          2.57450       -2.48490        7.26350
C          0.77480       -2.18100        7.18920
C          0.44970       -0.76120        6.77110
Se         1.74020       -2.77590        4.16050
C          1.95110       -3.71810        1.00760
C          1.83610       -3.97840       -0.38160
C          2.89130       -3.64280       -1.26550
C          2.79100       -3.78800       -2.69760
C          3.79290       -4.12530       -3.56540
C          3.46880       -4.08670       -4.93260
C          2.19790       -3.67220       -5.21970
S          1.58870       -3.52690       -6.85100
C         -0.05790       -2.77350       -6.60150
C         -1.11540       -3.78460       -6.20650
Se         1.23350       -3.30870       -3.65030
C          3.98730       -3.01800       -0.68620
S          5.26330       -2.24510       -1.59260
C          0.58330       -4.52350       -0.69980
C         -0.29490       -4.57550        0.36500
S          0.47180       -4.05480        1.84870
C         -1.65290       -4.92490        0.20670
C         -2.70920       -4.67450        1.03210
C         -2.66720       -3.93990        2.31220
O         -1.70420       -3.73980        3.02770
C         -4.04450       -3.47810        2.55270
C         -4.46970       -2.59480        3.54230
C         -5.80440       -2.27690        3.47080
C         -6.65950       -2.81030        2.49610
C         -6.25810       -3.69890        1.52720
C         -4.90000       -4.02540        1.57400
C         -4.10720       -4.86300        0.67900
C         -4.59990       -5.68610       -0.29790
C         -3.81450       -6.50540       -1.13640
N         -3.24400       -7.19280       -1.85800
C         -5.97260       -5.85040       -0.57890
N         -7.07240       -6.03060       -0.85390
C         -7.84370       -2.01730        2.98730
C         -8.25340       -0.76700        2.16890
C         -7.00730       -0.28100        1.47080
C         -6.19780        0.22390        2.39230
C         -6.88230        0.08790        3.73030
C         -8.34790        0.26610        3.30310
C         -6.89150       -1.42340        4.07290
H         -0.48680        7.04160       -2.47200
H          0.57790        0.98710       -1.55060
H         -4.13810        2.78370       -1.97570
H         -4.14650       -0.17300       -0.23640
H         -5.15230       -1.06500       -2.33270
H         -3.66760       -0.21840       -4.30950
H         -1.21180       -1.19450       -3.97730
H         -1.18470       -2.62690       -1.80420
H         -3.70080       -2.74970       -0.82770
H         -3.65900       -3.24210       -2.54220
H         -1.74890       -1.07880        0.06530
H          9.46050        5.40220       -0.40040
H          9.53640        3.67540       -0.75760
H         11.33950        4.12760        0.76340
H         10.10790        3.27280        1.69520
H         10.30550        5.02030        1.87300
H          7.63870        6.23340        1.22410
H          8.10960        5.02360        2.42660
H          5.84970        4.03160        2.37260
H          5.32230        5.23460        1.19580
H          5.79030        5.73750        2.82110
H          6.20350        6.45500       -0.71260
H          7.12610        0.34090        1.73990
H          5.32640       -1.40410        1.93660
H          5.34610       -3.21830        3.28620
H          5.10730       -2.84140        5.79990
H          0.35070       -2.91450        6.49640
H          0.41690       -2.38830        8.19730
H          0.89770       -0.04910        7.46040
H         -0.62850       -0.61690        6.76650
H          0.82780       -0.56050        5.76800
H          4.76250       -4.44290       -3.22030
H          4.16820       -4.35240       -5.70600
H          0.06020       -1.99080       -5.84790
H         -0.29540       -2.31190       -7.55960
H         -2.07290       -3.28290       -6.08210
H         -1.21380       -4.55030       -6.97190
H         -0.85860       -4.26820       -5.26290
H          0.30070       -4.86410       -1.68300
H         -1.87500       -5.34590       -0.76730
H         -3.77690       -2.20300        4.27070
H         -6.92490       -4.09500        0.77950
H         -8.70260       -2.59520        3.32110
H         -9.13020       -0.90550        1.54250
H         -6.82850       -0.39770        0.41760
H         -5.20450        0.61480        2.26620
H         -6.51080        0.72880        4.52560
H         -9.06220       -0.00520        4.07900
H         -8.56130        1.27030        2.94070
H         -7.12790       -1.61120        5.11810
