
  xtb     02082222453D
 energy: -302.102882018996 gnorm: 0.000415795686 xtb: 6.4.1 (unknown)
179197  0     0  0            999 V2000
    5.9243   -3.0899   -0.9320 C   0  0  0  0  0  0  0  0  0  0  0  0
    6.3126   -4.3167   -0.4845 C   0  0  0  0  0  0  0  0  0  0  0  0
    5.7021   -4.9896    0.6850 C   0  0  0  0  0  0  0  0  0  0  0  0
    4.7540   -4.6004    1.3367 O   0  0  0  0  0  0  0  0  0  0  0  0
    6.5883   -6.1252    0.9981 C   0  0  0  0  0  0  0  0  0  0  0  0
    6.4366   -7.0505    2.0275 C   0  0  0  0  0  0  0  0  0  0  0  0
    7.4318   -7.9958    2.0875 C   0  0  0  0  0  0  0  0  0  0  0  0
    8.5283   -7.9962    1.2145 C   0  0  0  0  0  0  0  0  0  0  0  0
    8.6972   -7.0858    0.1993 C   0  0  0  0  0  0  0  0  0  0  0  0
    7.6753   -6.1374    0.0999 C   0  0  0  0  0  0  0  0  0  0  0  0
    7.5098   -5.0419   -0.8477 C   0  0  0  0  0  0  0  0  0  0  0  0
    8.2759   -4.8008   -1.9589 C   0  0  0  0  0  0  0  0  0  0  0  0
    7.9885   -3.7971   -2.9076 C   0  0  0  0  0  0  0  0  0  0  0  0
    7.7932   -3.0194   -3.7297 N   0  0  0  0  0  0  0  0  0  0  0  0
    9.4174   -5.5436   -2.3208 C   0  0  0  0  0  0  0  0  0  0  0  0
   10.3566   -6.1061   -2.6675 N   0  0  0  0  0  0  0  0  0  0  0  0
    9.1628   -9.1906    1.8830 C   0  0  0  0  0  0  0  0  0  0  0  0
    9.0735  -10.5570    1.1628 C   0  0  0  0  0  0  0  0  0  0  0  0
    7.8451  -10.4945    0.2889 C   0  0  0  0  0  0  0  0  0  0  0  0
    6.7836  -10.5055    1.0836 C   0  0  0  0  0  0  0  0  0  0  0  0
    7.2740  -10.5781    2.5081 C   0  0  0  0  0  0  0  0  0  0  0  0
    8.5422  -11.4251    2.3147 C   0  0  0  0  0  0  0  0  0  0  0  0
    7.9241   -9.2096    2.8334 C   0  0  0  0  0  0  0  0  0  0  0  0
    4.6237   -2.5332   -0.7966 C   0  0  0  0  0  0  0  0  0  0  0  0
    3.4067   -3.0748   -1.2003 C   0  0  0  0  0  0  0  0  0  0  0  0
    3.2237   -4.3283   -1.7787 N   0  0  0  0  0  0  0  0  0  0  0  0
    3.2478   -5.4723   -0.9597 C   0  0  0  0  0  0  0  0  0  0  0  0
    2.5782   -5.4633    0.2578 C   0  0  0  0  0  0  0  0  0  0  0  0
    2.6156   -6.5674    1.0885 C   0  0  0  0  0  0  0  0  0  0  0  0
    3.3384   -7.6888    0.7127 C   0  0  0  0  0  0  0  0  0  0  0  0
    3.4725   -9.1438    1.7041 S   0  0  0  0  0  0  0  0  0  0  0  0
    2.6707   -8.6870    3.2672 C   0  0  0  0  0  0  0  0  0  0  0  0
    4.0070   -7.7029   -0.5112 C   0  0  0  0  0  0  0  0  0  0  0  0
    3.9582   -6.6066   -1.3439 C   0  0  0  0  0  0  0  0  0  0  0  0
    2.6621   -4.3766   -3.0560 C   0  0  0  0  0  0  0  0  0  0  0  0
    1.8604   -5.4425   -3.4560 C   0  0  0  0  0  0  0  0  0  0  0  0
    1.3016   -5.4717   -4.7192 C   0  0  0  0  0  0  0  0  0  0  0  0
    1.5253   -4.4282   -5.6059 C   0  0  0  0  0  0  0  0  0  0  0  0
    0.8418   -4.3374   -7.2312 S   0  0  0  0  0  0  0  0  0  0  0  0
    0.0048   -5.9344   -7.4456 C   0  0  0  0  0  0  0  0  0  0  0  0
    2.3340   -3.3631   -5.2139 C   0  0  0  0  0  0  0  0  0  0  0  0
    2.9016   -3.3394   -3.9615 C   0  0  0  0  0  0  0  0  0  0  0  0
    2.3776   -2.1083   -1.1340 C   0  0  0  0  0  0  0  0  0  0  0  0
    0.6967   -2.1524   -1.5248 S   0  0  0  0  0  0  0  0  0  0  0  0
    0.5191   -0.5100   -0.9511 C   0  0  0  0  0  0  0  0  0  0  0  0
    1.7128    0.0672   -0.5454 C   0  0  0  0  0  0  0  0  0  0  0  0
    1.8731    1.3897   -0.1809 N   0  0  0  0  0  0  0  0  0  0  0  0
    2.9123    1.7785    0.6749 C   0  0  0  0  0  0  0  0  0  0  0  0
    3.2941    0.9915    1.7611 C   0  0  0  0  0  0  0  0  0  0  0  0
    4.3226    1.3928    2.5842 C   0  0  0  0  0  0  0  0  0  0  0  0
    4.9901    2.5928    2.3513 C   0  0  0  0  0  0  0  0  0  0  0  0
    6.2876    3.0013    3.4765 S   0  0  0  0  0  0  0  0  0  0  0  0
    6.9299    4.5803    2.8534 C   0  0  0  0  0  0  0  0  0  0  0  0
    4.6057    3.3871    1.2790 C   0  0  0  0  0  0  0  0  0  0  0  0
    3.5802    2.9798    0.4493 C   0  0  0  0  0  0  0  0  0  0  0  0
    1.0117    2.3765   -0.6902 C   0  0  0  0  0  0  0  0  0  0  0  0
    0.6562    2.3924   -2.0395 C   0  0  0  0  0  0  0  0  0  0  0  0
   -0.2568    3.3116   -2.5035 C   0  0  0  0  0  0  0  0  0  0  0  0
   -0.8306    4.2446   -1.6393 C   0  0  0  0  0  0  0  0  0  0  0  0
   -2.0348    5.3222   -2.3438 S   0  0  0  0  0  0  0  0  0  0  0  0
   -2.6744    6.2562   -0.9257 C   0  0  0  0  0  0  0  0  0  0  0  0
   -0.4278    4.2740   -0.3109 C   0  0  0  0  0  0  0  0  0  0  0  0
    0.4849    3.3468    0.1559 C   0  0  0  0  0  0  0  0  0  0  0  0
    2.7736   -0.8698   -0.6537 C   0  0  0  0  0  0  0  0  0  0  0  0
    4.4739   -0.8416   -0.3421 S   0  0  0  0  0  0  0  0  0  0  0  0
   -0.7728    0.1441   -1.0112 C   0  0  0  0  0  0  0  0  0  0  0  0
   -1.3129    0.7673    0.1050 C   0  0  0  0  0  0  0  0  0  0  0  0
   -0.7098    0.5417    1.3257 O   0  0  0  0  0  0  0  0  0  0  0  0
   -0.9387   -0.7663    1.8503 C   0  0  0  0  0  0  0  0  0  0  0  0
    0.2100   -1.1553    2.7636 C   0  0  0  0  0  0  0  0  0  0  0  0
   -2.4426    1.6210    0.0063 C   0  0  0  0  0  0  0  0  0  0  0  0
   -2.9623    2.3242    1.0259 O   0  0  0  0  0  0  0  0  0  0  0  0
   -2.3575    2.4597    2.3041 C   0  0  0  0  0  0  0  0  0  0  0  0
   -2.9862    3.6744    2.9686 C   0  0  0  0  0  0  0  0  0  0  0  0
   -3.1037    1.8160   -1.2199 C   0  0  0  0  0  0  0  0  0  0  0  0
   -2.6402    1.0763   -2.3363 C   0  0  0  0  0  0  0  0  0  0  0  0
   -1.4753    0.2424   -2.2283 C   0  0  0  0  0  0  0  0  0  0  0  0
   -1.1457   -0.3302   -3.3829 N   0  0  0  0  0  0  0  0  0  0  0  0
   -2.2123    0.1148   -4.4986 S   0  0  0  0  0  0  0  0  0  0  0  0
   -3.1306    1.0622   -3.5744 N   0  0  0  0  0  0  0  0  0  0  0  0
   -4.1797    2.7549   -1.3384 C   0  0  0  0  0  0  0  0  0  0  0  0
   -4.7844    3.1657   -2.5159 C   0  0  0  0  0  0  0  0  0  0  0  0
   -5.7707    4.1261   -2.3235 C   0  0  0  0  0  0  0  0  0  0  0  0
   -6.5420    4.7184   -3.4349 C   0  0  0  0  0  0  0  0  0  0  0  0
   -7.6156    5.2637   -3.3232 O   0  0  0  0  0  0  0  0  0  0  0  0
   -5.8962    4.5763   -4.5944 O   0  0  0  0  0  0  0  0  0  0  0  0
   -6.5298    5.1120   -5.7554 C   0  0  0  0  0  0  0  0  0  0  0  0
   -7.5484    4.1396   -6.3332 C   0  0  0  0  0  0  0  0  0  0  0  0
   -5.9605    4.4592   -0.9702 C   0  0  0  0  0  0  0  0  0  0  0  0
   -4.8737    3.5446    0.0342 S   0  0  0  0  0  0  0  0  0  0  0  0
   -6.8229    5.4740   -0.5258 C   0  0  0  0  0  0  0  0  0  0  0  0
   -7.1888    5.8167    0.7475 C   0  0  0  0  0  0  0  0  0  0  0  0
   -6.9428    5.0511    1.9768 C   0  0  0  0  0  0  0  0  0  0  0  0
   -6.1514    4.1399    2.1474 O   0  0  0  0  0  0  0  0  0  0  0  0
   -7.8718    5.5951    2.9846 C   0  0  0  0  0  0  0  0  0  0  0  0
   -8.0700    5.1284    4.2820 C   0  0  0  0  0  0  0  0  0  0  0  0
   -9.0199    5.8257    4.9887 C   0  0  0  0  0  0  0  0  0  0  0  0
   -9.7226    6.9107    4.4477 C   0  0  0  0  0  0  0  0  0  0  0  0
   -9.5299    7.3890    3.1731 C   0  0  0  0  0  0  0  0  0  0  0  0
   -8.5688    6.6920    2.4370 C   0  0  0  0  0  0  0  0  0  0  0  0
   -8.0849    6.9087    1.0768 C   0  0  0  0  0  0  0  0  0  0  0  0
   -8.3272    8.0062    0.2945 C   0  0  0  0  0  0  0  0  0  0  0  0
   -9.2005    9.0547    0.6477 C   0  0  0  0  0  0  0  0  0  0  0  0
   -9.9045    9.9318    0.8795 N   0  0  0  0  0  0  0  0  0  0  0  0
   -7.6560    8.2791   -0.9181 C   0  0  0  0  0  0  0  0  0  0  0  0
   -7.0967    8.6072   -1.8656 N   0  0  0  0  0  0  0  0  0  0  0  0
  -10.5300    7.1169    5.7046 C   0  0  0  0  0  0  0  0  0  0  0  0
  -11.9943    6.6122    5.7125 C   0  0  0  0  0  0  0  0  0  0  0  0
  -12.0625    5.4760    4.7226 C   0  0  0  0  0  0  0  0  0  0  0  0
  -11.3962    4.4507    5.2364 C   0  0  0  0  0  0  0  0  0  0  0  0
  -10.8648    4.8755    6.5830 C   0  0  0  0  0  0  0  0  0  0  0  0
  -11.9895    5.8224    7.0312 C   0  0  0  0  0  0  0  0  0  0  0  0
   -9.7451    5.9100    6.3086 C   0  0  0  0  0  0  0  0  0  0  0  0
    6.6469   -2.4556   -1.4332 H   0  0  0  0  0  0  0  0  0  0  0  0
    5.5956   -6.9962    2.7001 H   0  0  0  0  0  0  0  0  0  0  0  0
    9.5492   -7.0899   -0.4604 H   0  0  0  0  0  0  0  0  0  0  0  0
   10.1399   -9.0156    2.3293 H   0  0  0  0  0  0  0  0  0  0  0  0
    9.9932  -10.8744    0.6787 H   0  0  0  0  0  0  0  0  0  0  0  0
    7.8767  -10.3949   -0.7803 H   0  0  0  0  0  0  0  0  0  0  0  0
    5.7469  -10.4198    0.8185 H   0  0  0  0  0  0  0  0  0  0  0  0
    6.5496  -10.9182    3.2432 H   0  0  0  0  0  0  0  0  0  0  0  0
    9.1952  -11.4362    3.1866 H   0  0  0  0  0  0  0  0  0  0  0  0
    8.3232  -12.4460    2.0059 H   0  0  0  0  0  0  0  0  0  0  0  0
    8.0948   -9.0796    3.9007 H   0  0  0  0  0  0  0  0  0  0  0  0
    2.0271   -4.5853    0.5573 H   0  0  0  0  0  0  0  0  0  0  0  0
    2.0861   -6.5288    2.0261 H   0  0  0  0  0  0  0  0  0  0  0  0
    1.6061   -8.5357    3.1129 H   0  0  0  0  0  0  0  0  0  0  0  0
    3.1395   -7.7975    3.6776 H   0  0  0  0  0  0  0  0  0  0  0  0
    2.8283   -9.5295    3.9334 H   0  0  0  0  0  0  0  0  0  0  0  0
    4.5746   -8.5772   -0.7926 H   0  0  0  0  0  0  0  0  0  0  0  0
    4.4799   -6.6127   -2.2897 H   0  0  0  0  0  0  0  0  0  0  0  0
    1.6615   -6.2518   -2.7695 H   0  0  0  0  0  0  0  0  0  0  0  0
    0.6819   -6.3114   -4.9898 H   0  0  0  0  0  0  0  0  0  0  0  0
   -0.8231   -6.0203   -6.7477 H   0  0  0  0  0  0  0  0  0  0  0  0
   -0.3718   -5.9320   -8.4637 H   0  0  0  0  0  0  0  0  0  0  0  0
    0.7165   -6.7446   -7.3173 H   0  0  0  0  0  0  0  0  0  0  0  0
    2.5167   -2.5586   -5.9092 H   0  0  0  0  0  0  0  0  0  0  0  0
    3.5428   -2.5177   -3.6806 H   0  0  0  0  0  0  0  0  0  0  0  0
    2.7742    0.0701    1.9668 H   0  0  0  0  0  0  0  0  0  0  0  0
    4.6182    0.7815    3.4229 H   0  0  0  0  0  0  0  0  0  0  0  0
    7.7431    4.8478    3.5210 H   0  0  0  0  0  0  0  0  0  0  0  0
    6.1550    5.3404    2.8945 H   0  0  0  0  0  0  0  0  0  0  0  0
    7.3089    4.4546    1.8434 H   0  0  0  0  0  0  0  0  0  0  0  0
    5.1006    4.3216    1.0701 H   0  0  0  0  0  0  0  0  0  0  0  0
    3.2937    3.5984   -0.3884 H   0  0  0  0  0  0  0  0  0  0  0  0
    1.0920    1.6725   -2.7163 H   0  0  0  0  0  0  0  0  0  0  0  0
   -0.5418    3.3220   -3.5446 H   0  0  0  0  0  0  0  0  0  0  0  0
   -3.0439    5.5706   -0.1680 H   0  0  0  0  0  0  0  0  0  0  0  0
   -3.4962    6.8499   -1.3153 H   0  0  0  0  0  0  0  0  0  0  0  0
   -1.9035    6.9114   -0.5301 H   0  0  0  0  0  0  0  0  0  0  0  0
   -0.8256    5.0061    0.3730 H   0  0  0  0  0  0  0  0  0  0  0  0
    0.7915    3.3638    1.1917 H   0  0  0  0  0  0  0  0  0  0  0  0
   -1.0370   -1.4901    1.0330 H   0  0  0  0  0  0  0  0  0  0  0  0
   -1.8848   -0.7561    2.4128 H   0  0  0  0  0  0  0  0  0  0  0  0
   -0.0462   -2.0607    3.3067 H   0  0  0  0  0  0  0  0  0  0  0  0
    0.4062   -0.3559    3.4730 H   0  0  0  0  0  0  0  0  0  0  0  0
    1.1086   -1.3403    2.1815 H   0  0  0  0  0  0  0  0  0  0  0  0
   -2.5563    1.5603    2.8989 H   0  0  0  0  0  0  0  0  0  0  0  0
   -1.2769    2.5855    2.2019 H   0  0  0  0  0  0  0  0  0  0  0  0
   -2.6578    3.7374    4.0019 H   0  0  0  0  0  0  0  0  0  0  0  0
   -2.6936    4.5830    2.4492 H   0  0  0  0  0  0  0  0  0  0  0  0
   -4.0691    3.5969    2.9333 H   0  0  0  0  0  0  0  0  0  0  0  0
   -4.5033    2.7835   -3.4786 H   0  0  0  0  0  0  0  0  0  0  0  0
   -7.0167    6.0563   -5.4898 H   0  0  0  0  0  0  0  0  0  0  0  0
   -5.7161    5.2965   -6.4596 H   0  0  0  0  0  0  0  0  0  0  0  0
   -8.3577    3.9851   -5.6236 H   0  0  0  0  0  0  0  0  0  0  0  0
   -7.0765    3.1832   -6.5462 H   0  0  0  0  0  0  0  0  0  0  0  0
   -7.9597    4.5468   -7.2523 H   0  0  0  0  0  0  0  0  0  0  0  0
   -7.2923    6.0246   -1.3333 H   0  0  0  0  0  0  0  0  0  0  0  0
   -7.5086    4.2890    4.6618 H   0  0  0  0  0  0  0  0  0  0  0  0
  -10.0777    8.2232    2.7669 H   0  0  0  0  0  0  0  0  0  0  0  0
  -10.4237    8.0870    6.1859 H   0  0  0  0  0  0  0  0  0  0  0  0
  -12.7412    7.3933    5.5988 H   0  0  0  0  0  0  0  0  0  0  0  0
  -12.5245    5.5510    3.7557 H   0  0  0  0  0  0  0  0  0  0  0  0
  -11.1902    3.4982    4.7841 H   0  0  0  0  0  0  0  0  0  0  0  0
  -10.5838    4.0752    7.2628 H   0  0  0  0  0  0  0  0  0  0  0  0
  -12.9290    5.3033    7.2147 H   0  0  0  0  0  0  0  0  0  0  0  0
  -11.7278    6.4273    7.8983 H   0  0  0  0  0  0  0  0  0  0  0  0
   -9.1251    6.0930    7.1843 H   0  0  0  0  0  0  0  0  0  0  0  0
  1  2  2  0  0  0  0
  2  3  1  0  0  0  0
  3  4  2  0  0  0  0
  3  5  1  0  0  0  0
  5  6  2  0  0  0  0
  6  7  1  0  0  0  0
  7  8  2  0  0  0  0
  8  9  1  0  0  0  0
  9 10  2  0  0  0  0
 10 11  1  0  0  0  0
 11 12  2  0  0  0  0
 12 13  1  0  0  0  0
 13 14  3  0  0  0  0
 12 15  1  0  0  0  0
 15 16  3  0  0  0  0
  8 17  1  0  0  0  0
 17 18  1  0  0  0  0
 18 19  1  0  0  0  0
 19 20  2  0  0  0  0
 20 21  1  0  0  0  0
 21 22  1  0  0  0  0
 21 23  1  0  0  0  0
  1 24  1  0  0  0  0
 24 25  2  0  0  0  0
 25 26  1  0  0  0  0
 26 27  1  0  0  0  0
 27 28  2  0  0  0  0
 28 29  1  0  0  0  0
 29 30  2  0  0  0  0
 30 31  1  0  0  0  0
 31 32  1  0  0  0  0
 30 33  1  0  0  0  0
 33 34  2  0  0  0  0
 26 35  1  0  0  0  0
 35 36  2  0  0  0  0
 36 37  1  0  0  0  0
 37 38  2  0  0  0  0
 38 39  1  0  0  0  0
 39 40  1  0  0  0  0
 38 41  1  0  0  0  0
 41 42  2  0  0  0  0
 25 43  1  0  0  0  0
 43 44  1  0  0  0  0
 44 45  1  0  0  0  0
 45 46  2  0  0  0  0
 46 47  1  0  0  0  0
 47 48  1  0  0  0  0
 48 49  2  0  0  0  0
 49 50  1  0  0  0  0
 50 51  2  0  0  0  0
 51 52  1  0  0  0  0
 52 53  1  0  0  0  0
 51 54  1  0  0  0  0
 54 55  2  0  0  0  0
 47 56  1  0  0  0  0
 56 57  2  0  0  0  0
 57 58  1  0  0  0  0
 58 59  2  0  0  0  0
 59 60  1  0  0  0  0
 60 61  1  0  0  0  0
 59 62  1  0  0  0  0
 62 63  2  0  0  0  0
 46 64  1  0  0  0  0
 64 65  1  0  0  0  0
 45 66  1  0  0  0  0
 66 67  2  0  0  0  0
 67 68  1  0  0  0  0
 68 69  1  0  0  0  0
 69 70  1  0  0  0  0
 67 71  1  0  0  0  0
 71 72  1  0  0  0  0
 72 73  1  0  0  0  0
 73 74  1  0  0  0  0
 71 75  2  0  0  0  0
 75 76  1  0  0  0  0
 76 77  1  0  0  0  0
 77 78  2  0  0  0  0
 78 79  1  0  0  0  0
 79 80  1  0  0  0  0
 75 81  1  0  0  0  0
 81 82  2  0  0  0  0
 82 83  1  0  0  0  0
 83 84  1  0  0  0  0
 84 85  2  0  0  0  0
 84 86  1  0  0  0  0
 86 87  1  0  0  0  0
 87 88  1  0  0  0  0
 83 89  2  0  0  0  0
 89 90  1  0  0  0  0
 89 91  1  0  0  0  0
 91 92  2  0  0  0  0
 92 93  1  0  0  0  0
 93 94  2  0  0  0  0
 93 95  1  0  0  0  0
 95 96  2  0  0  0  0
 96 97  1  0  0  0  0
 97 98  2  0  0  0  0
 98 99  1  0  0  0  0
 99100  2  0  0  0  0
100101  1  0  0  0  0
101102  2  0  0  0  0
102103  1  0  0  0  0
103104  3  0  0  0  0
102105  1  0  0  0  0
105106  3  0  0  0  0
 98107  1  0  0  0  0
107108  1  0  0  0  0
108109  1  0  0  0  0
109110  2  0  0  0  0
110111  1  0  0  0  0
111112  1  0  0  0  0
111113  1  0  0  0  0
 11  2  1  0  0  0  0
 23 17  1  0  0  0  0
 65 24  1  0  0  0  0
 77 66  1  0  0  0  0
 90 81  1  0  0  0  0
101 92  1  0  0  0  0
113107  1  0  0  0  0
 10  5  1  0  0  0  0
 22 18  1  0  0  0  0
 34 27  1  0  0  0  0
 42 35  1  0  0  0  0
 64 43  2  0  0  0  0
 80 76  2  0  0  0  0
100 95  1  0  0  0  0
112108  1  0  0  0  0
 23  7  1  0  0  0  0
 55 48  1  0  0  0  0
 63 56  1  0  0  0  0
113 97  1  0  0  0  0
  1114  1  0  0  0  0
  6115  1  0  0  0  0
  9116  1  0  0  0  0
 17117  1  0  0  0  0
 18118  1  0  0  0  0
 19119  1  0  0  0  0
 20120  1  0  0  0  0
 21121  1  0  0  0  0
 22122  1  0  0  0  0
 22123  1  0  0  0  0
 23124  1  0  0  0  0
 28125  1  0  0  0  0
 29126  1  0  0  0  0
 32127  1  0  0  0  0
 32128  1  0  0  0  0
 32129  1  0  0  0  0
 33130  1  0  0  0  0
 34131  1  0  0  0  0
 36132  1  0  0  0  0
 37133  1  0  0  0  0
 40134  1  0  0  0  0
 40135  1  0  0  0  0
 40136  1  0  0  0  0
 41137  1  0  0  0  0
 42138  1  0  0  0  0
 49139  1  0  0  0  0
 50140  1  0  0  0  0
 53141  1  0  0  0  0
 53142  1  0  0  0  0
 53143  1  0  0  0  0
 54144  1  0  0  0  0
 55145  1  0  0  0  0
 57146  1  0  0  0  0
 58147  1  0  0  0  0
 61148  1  0  0  0  0
 61149  1  0  0  0  0
 61150  1  0  0  0  0
 62151  1  0  0  0  0
 63152  1  0  0  0  0
 69153  1  0  0  0  0
 69154  1  0  0  0  0
 70155  1  0  0  0  0
 70156  1  0  0  0  0
 70157  1  0  0  0  0
 73158  1  0  0  0  0
 73159  1  0  0  0  0
 74160  1  0  0  0  0
 74161  1  0  0  0  0
 74162  1  0  0  0  0
 82163  1  0  0  0  0
 87164  1  0  0  0  0
 87165  1  0  0  0  0
 88166  1  0  0  0  0
 88167  1  0  0  0  0
 88168  1  0  0  0  0
 91169  1  0  0  0  0
 96170  1  0  0  0  0
 99171  1  0  0  0  0
107172  1  0  0  0  0
108173  1  0  0  0  0
109174  1  0  0  0  0
110175  1  0  0  0  0
111176  1  0  0  0  0
112177  1  0  0  0  0
112178  1  0  0  0  0
113179  1  0  0  0  0
M  END
