224

C          6.93070       -5.06540        4.19710
C          7.64130       -5.81180        3.28650
C          7.10150       -6.34460        2.03800
O          5.97130       -6.20400        1.59440
C          8.18190       -7.12860        1.41790
C          8.12220       -7.84350        0.22400
C          9.28930       -8.49530       -0.09470
C         10.42980       -8.44220        0.71630
C         10.50030       -7.74190        1.89800
C          9.32480       -7.06800        2.24000
C          9.01920       -6.22910        3.40020
C          9.91600       -5.87100        4.37570
C          9.65020       -5.00340        5.45300
N          9.52860       -4.28840        6.34500
C         11.25840       -6.29750        4.42430
N         12.35860       -6.60790        4.53720
C         11.22840       -9.32480       -0.21110
C         12.25910       -8.61960       -1.11780
C         12.52310       -9.62550       -2.21490
C         11.44260       -9.67750       -2.98330
C         10.43010       -8.70730       -2.41850
C         11.37400       -7.62460       -1.87950
C          9.95570       -9.38460       -1.11540
C          5.65720       -4.51240        4.07880
S          4.59280       -4.57540        2.68290
C          3.53030       -3.37120        3.34960
C          3.88210       -3.04540        4.65950
C          3.40670       -2.15070        5.66080
C          4.20890       -2.10690        6.74860
C          4.02270       -1.31890        7.99750
C          3.85220       -2.22900        9.21390
S          5.61480       -3.16110        6.59790
C          5.08080       -3.67840        5.04080
C          2.49670       -2.76830        2.58650
C          2.50960       -2.35800        1.25380
N          3.60920       -2.35660        0.42100
C          4.91290       -2.26060        0.93210
C          5.93410       -3.04250        0.38880
C          7.17930       -3.06150        0.97530
C          7.43310       -2.31030        2.12140
S          9.01760       -2.51360        2.87110
C          8.85190       -1.66150        4.46350
C          6.44540       -1.46570        2.61280
C          5.20040       -1.43550        2.01620
C          3.42960       -2.40660       -0.96780
C          4.22100       -1.61350       -1.79460
C          4.05950       -1.64510       -3.16440
C          3.10880       -2.48450       -3.72890
S          2.81080       -2.57740       -5.46950
C          4.26340       -1.78070       -6.20740
C          2.32510       -3.29040       -2.90760
C          2.47680       -3.24840       -1.53950
C          1.27210       -1.75210        0.90570
S          0.63600       -0.99100       -0.51760
C         -0.79300       -0.47140        0.36830
C         -0.78220       -0.90490        1.67080
N         -1.74420       -0.57610        2.63600
C         -3.02020       -1.13770        2.55710
C         -3.24170       -2.29900        1.81550
C         -4.49790       -2.85710        1.75760
C         -5.56870       -2.27290        2.42820
S         -7.12010       -3.09860        2.27240
C         -8.27070       -2.08040        3.23540
C         -5.35830       -1.11150        3.15810
C         -4.09680       -0.54920        3.21630
C         -1.20100       -0.08850        3.83410
C         -0.15350        0.82910        3.75970
C          0.51850        1.23630        4.89430
C          0.13240        0.75060        6.13590
S          0.93610        1.16910        7.65450
C          2.28060        2.27890        7.14810
C         -0.94860       -0.12490        6.22240
C         -1.60600       -0.54700        5.08730
C          0.38380       -1.65100        1.96110
S          0.99970       -2.34140        3.41150
C         -1.69210        0.54310       -0.13420
C         -2.85860        0.46340       -0.85630
N         -3.48350       -0.71180       -1.25060
C         -2.74990       -1.73430       -1.86080
C         -1.72690       -1.42820       -2.75690
C         -1.05240       -2.43080       -3.42540
C         -1.39530       -3.75860       -3.20990
S         -0.63250       -5.09860       -4.08480
C         -0.42730       -4.38450       -5.74470
C         -2.37610       -4.07360       -2.27580
C         -3.04670       -3.07340       -1.60750
C         -4.86080       -0.81750       -1.02060
C         -5.67400       -1.60880       -1.82810
C         -7.02870       -1.70820       -1.58330
C         -7.60540       -0.99820       -0.53990
S         -9.33080       -1.07100       -0.15620
C         -9.77050       -2.75250       -0.68590
C         -6.80660       -0.17600        0.24460
C         -5.45110       -0.10000        0.02050
C         -3.43100        1.75030       -1.05920
S         -4.78200        2.32470       -1.96710
C         -4.44800        3.97570       -1.43270
C         -3.28920        4.05040       -0.62660
N         -2.75450        5.17410       -0.04090
C         -2.16400        5.01480        1.22820
C         -0.94470        5.61570        1.53590
C         -0.38540        5.44340        2.78250
C         -1.02510        4.66410        3.74510
S         -0.22530        4.51140        5.30830
C         -1.49630        3.79320        6.38550
C         -2.23430        4.05520        3.43930
C         -2.80050        4.23880        2.19410
C         -2.74030        6.43440       -0.65600
C         -2.63260        6.54940       -2.04150
C         -2.69460        7.78610       -2.64930
C         -2.83680        8.93550       -1.87970
S         -2.95730       10.55640       -2.56690
C         -3.58770       10.24590       -4.24220
C         -2.87450        8.82870       -0.49260
C         -2.83890        7.59300        0.11490
C         -2.72580        2.77370       -0.44840
S         -1.29190        2.19550        0.32870
C         -5.25080        5.08340       -1.72000
C         -6.26950        5.23660       -2.62640
C         -6.75490        4.22280       -3.56840
O         -6.48650        3.03410       -3.58320
C         -7.62930        4.93220       -4.51910
C         -8.29690        4.38760       -5.61260
C         -9.03540        5.29980       -6.32820
C         -9.10520        6.65510       -5.98100
C         -8.45290        7.20490       -4.90240
C         -7.69500        6.29450       -4.16130
C         -6.89670        6.49690       -2.95320
C         -6.77080        7.68080       -2.26660
C         -6.16380        7.82320       -1.00380
N         -5.73140        8.00930        0.04530
C         -7.25360        8.92140       -2.72670
N         -7.57390        9.97040       -3.06870
C        -10.03010        6.98330       -7.12620
C        -11.53250        7.18070       -6.80650
C        -11.81580        6.37410       -5.56360
C        -11.75090        5.09030       -5.89040
C        -11.42260        5.00560       -7.36050
C        -12.14790        6.26030       -7.87270
C         -9.95360        5.47240       -7.51210
H          7.41830       -4.82350        5.13500
H          7.21900       -7.86230       -0.36580
H         11.38370       -7.72000        2.51360
H         11.60460      -10.25030        0.22080
H         13.12640       -8.22250       -0.59760
H         13.41690      -10.21760       -2.28380
H         11.25340      -10.32180       -3.82200
H          9.63170       -8.39070       -3.08450
H         11.91630       -7.11730       -2.67590
H         10.88710       -6.88750       -1.24360
H          9.48270      -10.35020       -1.28500
H          2.50150       -1.57730        5.57060
H          4.89040       -0.67190        8.15570
H          3.13720       -0.69030        7.88550
H          2.98990       -2.87790        9.08070
H          3.70180       -1.63180       10.10930
H          4.73580       -2.84810        9.35200
H          5.72710       -3.67060       -0.46340
H          7.96050       -3.68980        0.57540
H          9.74530       -1.91320        5.02610
H          8.79910       -0.58750        4.31000
H          7.97850       -2.03500        4.98960
H          6.63020       -0.83160        3.46480
H          4.43530       -0.78440        2.41300
H          4.96210       -0.96150       -1.35630
H          4.67530       -1.00590       -3.77670
H          4.19700       -1.97800       -7.27280
H          4.23700       -0.70930       -6.03060
H          5.16670       -2.22680       -5.80220
H          1.60890       -3.96540       -3.34720
H          1.87470       -3.88660       -0.91070
H         -2.41860       -2.77080        1.29950
H         -4.66680       -3.77090        1.20790
H         -9.22990       -2.58440        3.17110
H         -8.34910       -1.09270        2.79200
H         -7.94720       -2.03310        4.27110
H         -6.16780       -0.62980        3.68280
H         -3.94080        0.35740        3.78290
H          0.14880        1.21490        2.79690
H          1.33400        1.93300        4.79380
H          1.87170        3.16800        6.67650
H          2.96270        1.75540        6.48410
H          2.79410        2.54950        8.06550
H         -1.24890       -0.49220        7.19200
H         -2.41410       -1.25820        5.16510
H         -1.47230       -0.39540       -2.94440
H         -0.27090       -2.17080       -4.12210
H         -1.33610       -3.85640       -6.01520
H          0.43400       -3.72380       -5.77510
H         -0.26780       -5.22460       -6.41300
H         -2.61480       -5.10970       -2.09060
H         -3.82230       -3.31930       -0.90010
H         -5.24480       -2.14600       -2.66010
H         -7.63140       -2.33180       -2.22430
H         -9.86700       -2.79810       -1.76680
H         -9.01340       -3.44280       -0.32640
H        -10.72810       -2.97190       -0.22430
H         -7.25520        0.39510        1.04340
H         -4.84180        0.50460        0.67440
H         -0.44250        6.21680        0.79300
H          0.55730        5.90900        3.02550
H         -1.07150        3.79380        7.38480
H         -1.71270        2.77220        6.08370
H         -2.38590        4.41540        6.36060
H         -2.74690        3.44130        4.16200
H         -3.75080        3.77820        1.96650
H         -2.51990        5.66080       -2.64540
H         -2.62160        7.84550       -3.72380
H         -4.43750        9.57190       -4.18920
H         -3.90850       11.21200       -4.61840
H         -2.80400        9.84580       -4.87920
H         -2.97130        9.72300        0.10160
H         -2.91870        7.51850        1.18770
H         -4.97790        5.97170       -1.16560
H         -8.21660        3.33680       -5.84330
H         -8.51910        8.24960       -4.64780
H         -9.65960        7.71230       -7.84420
H        -11.85800        8.21740       -6.79090
H        -11.97230        6.80590       -4.59240
H        -11.84150        4.23510       -5.24650
H        -11.64910        4.06170       -7.84960
H        -13.23090        6.18430       -7.78920
H        -11.87560        6.53350       -8.89140
H         -9.53480        5.21500       -8.48320
