222

C          5.05780       -1.80890       -4.72280
C          4.57700       -1.29710       -5.90360
C          3.17070       -0.89110       -6.12880
O          2.26210       -0.85660       -5.32270
C          3.04790       -0.66000       -7.57890
C          1.89540       -0.27840       -8.26140
C          2.07910       -0.12020       -9.61410
C          3.31320       -0.33440      -10.24170
C          4.45160       -0.73430       -9.58110
C          4.28860       -0.89840       -8.20240
C          5.25300       -1.29060       -7.17630
C          6.59400       -1.51650       -7.37630
C          7.53290       -1.73190       -6.35200
N          8.37800       -1.86030       -5.58250
C          7.22700       -1.50500       -8.63480
N          7.80480       -1.51960       -9.62740
C          2.77360        0.02880      -11.60310
C          3.12460        1.43700      -12.12950
C          2.10180        1.68070      -13.21550
C          0.92750        1.87100      -12.62810
C          1.13710        1.76100      -11.13530
C          2.55490        2.33660      -11.02450
C          1.39470        0.25740      -10.90450
C          4.46790       -1.58110       -3.46430
C          4.39590       -2.43980       -2.35330
N          4.88150       -3.72440       -2.29650
C          6.13870       -4.03410       -2.83820
C          6.33480       -5.21640       -3.55190
C          7.57180       -5.50160       -4.08410
C          8.63700       -4.61630       -3.91840
S         10.17070       -5.07190       -4.64740
C         11.09040       -3.50780       -4.68550
C          8.44870       -3.44810       -3.18770
C          7.20890       -3.16060       -2.65580
C          4.10230       -4.72620       -1.69910
C          4.70100       -5.76960       -0.99170
C          3.92390       -6.73360       -0.39120
C          2.53300       -6.68190       -0.47710
S          1.64770       -7.96170        0.35160
C         -0.09580       -7.54980        0.06020
C          1.93470       -5.65770       -1.19880
C          2.71400       -4.69480       -1.80810
C          3.63070       -1.85190       -1.32070
S          3.13800       -2.35350        0.26220
C          2.30750       -0.82390        0.51640
C          2.40850        0.01010       -0.57380
N          1.76620        1.24140       -0.69680
C          2.06950        2.29380        0.17160
C          3.31310        2.37500        0.79800
C          3.61370        3.45160        1.60110
C          2.68580        4.47000        1.80530
S          3.20960        5.79650        2.84480
C          1.78810        6.92260        2.88190
C          1.43840        4.38310        1.20160
C          1.13570        3.30230        0.39500
C          1.20880        1.49190       -1.96570
C          0.42420        0.50630       -2.56490
C         -0.02360        0.66230       -3.85800
C          0.29160        1.81550       -4.56800
S         -0.28030        1.94490       -6.23660
C          1.02560        2.95210       -7.00690
C          1.01730        2.82750       -3.95490
C          1.48150        2.66360       -2.66450
C          3.18360       -0.57220       -1.60580
S          3.67480       -0.04240       -3.15980
C          1.38230       -0.61490        1.60750
C          1.54320       -0.13590        2.88970
N          2.72850        0.30410        3.45960
C          3.92810       -0.35570        3.16130
C          5.09440        0.35920        2.88610
C          6.23320       -0.30160        2.48430
C          6.23860       -1.68920        2.36460
S          7.70530       -2.44710        1.73370
C          7.05620       -3.97490        0.99480
C          5.11170       -2.41060        2.73100
C          3.96480       -1.74590        3.12100
C          2.70520        1.47130        4.23330
C          3.61260        1.65340        5.27390
C          3.56600        2.78880        6.05900
C          2.59640        3.75530        5.83200
S          2.43820        5.21960        6.81280
C          4.14950        5.53200        7.33190
C          1.68380        3.57640        4.80000
C          1.74980        2.46100        3.99640
C          0.28550       -0.03140        3.54440
S         -0.21490        0.50290        5.10980
C         -1.90960        0.37850        4.64020
C         -2.06460       -0.16990        3.36780
N         -3.24230       -0.38410        2.67820
C         -4.34080       -1.04500        3.22300
C         -4.20090       -1.89540        4.31760
C         -5.30440       -2.49940        4.88980
C         -6.57180       -2.26380        4.37750
S         -8.05700       -2.95220        5.03730
C         -7.52160       -3.75460        6.57420
C         -6.71350       -1.43640        3.26370
C         -5.61760       -0.83880        2.69030
C         -3.24250        0.01140        1.32190
C         -3.67820       -0.85120        0.31830
C         -3.64860       -0.44610       -0.99620
C         -3.18060        0.82230       -1.33930
S         -3.19150        1.22000       -3.05310
C         -2.65730        2.95030       -3.11010
C         -2.74270        1.68030       -0.33940
C         -2.77780        1.27710        0.98050
C         -0.79910       -0.37880        2.76250
S         -0.30490       -0.93490        1.20810
C         -2.85980        1.05870        5.43640
C         -2.58000        1.91460        6.48610
C         -3.68470        2.65460        6.91420
S         -3.67250        3.86280        8.17340
C         -1.91200        4.36050        8.23220
C         -1.46900        5.03510        6.94960
C         -4.84290        2.38130        6.18120
S         -4.53800        1.11780        5.01610
C         -6.12450        2.94220        6.30730
C         -7.13800        2.85160        5.39320
C         -8.55360        2.97850        5.81690
O         -8.96810        3.43900        6.85750
C         -9.33870        2.36140        4.72500
C        -10.70640        2.10210        4.70960
C        -11.14510        1.47470        3.56770
C        -10.28920        1.12300        2.51560
C         -8.94140        1.39470        2.50600
C         -8.47750        2.03310        3.65760
C         -7.13200        2.48890        3.99540
C         -6.14640        2.78270        3.08370
C         -6.20530        2.48390        1.71090
N         -6.15880        2.25010        0.58610
C         -4.95860        3.47090        3.40430
N         -3.98610        4.05470        3.59040
C        -11.40430        0.50670        1.70870
C        -11.52820       -1.03780        1.69350
C        -10.93470       -1.53810        2.98710
C        -11.75220       -1.18760        3.97040
C        -12.91510       -0.44520        3.35980
C        -13.02540       -1.17840        2.01310
C        -12.36170        0.91550        2.87220
H          5.92610       -2.45680       -4.75450
H          0.96480       -0.12400       -7.73770
H          5.38910       -0.91370      -10.08070
H          2.85070       -0.74160      -12.36790
H          4.16800        1.57510      -12.39930
H          2.31990        1.63410      -14.26630
H         -0.03180        2.01540      -13.08950
H          0.36440        2.19230      -10.50360
H          2.59460        3.39150      -11.29200
H          3.01990        2.19010      -10.05090
H          0.55340       -0.36850      -11.19570
H          5.50820       -5.89590       -3.69730
H          7.72650       -6.40820       -4.64850
H         10.44140       -2.73200       -5.08060
H         11.45430       -3.26090       -3.69210
H         11.92970       -3.67470       -5.35330
H          9.25870       -2.75800       -3.02530
H          7.06440       -2.25150       -2.09040
H          5.77650       -5.82030       -0.91650
H          4.38540       -7.53880        0.15950
H         -0.31680       -7.59430       -1.00230
H         -0.31950       -6.56960        0.47130
H         -0.66610       -8.30950        0.58600
H          0.86390       -5.59880       -1.30460
H          2.23870       -3.91510       -2.38480
H          4.04660        1.60010        0.63000
H          4.58400        3.53530        2.06720
H          0.92570        6.42280        3.31250
H          1.57670        7.28650        1.88060
H          2.08760        7.74810        3.51990
H          0.69160        5.14620        1.35130
H          0.16680        3.23720       -0.07780
H          0.18910       -0.39270       -2.01400
H         -0.60830       -0.10900       -4.33140
H          0.88950        4.00350       -6.77030
H          0.93270        2.80470       -8.07830
H          1.99280        2.59600       -6.66530
H          1.24580        3.74110       -4.48160
H          2.07840        3.43740       -2.20420
H          5.08960        1.43470        2.96390
H          7.12570        0.25110        2.23380
H          6.91940       -4.73890        1.75490
H          6.11850       -3.75340        0.49460
H          7.80050       -4.30050        0.27410
H          5.10760       -3.48840        2.70020
H          3.08070       -2.31070        3.37820
H          4.35470        0.89520        5.47510
H          4.28010        2.90080        6.85970
H          4.17230        6.55660        7.68940
H          4.80290        5.42070        6.47220
H          4.43350        4.85760        8.13470
H          0.92630        4.32470        4.62790
H          1.06460        2.36330        3.16840
H         -3.22010       -2.08240        4.72950
H         -5.15660       -3.14960        5.73700
H         -8.43070       -4.10760        7.05090
H         -6.87290       -4.59700        6.35200
H         -7.02590       -3.02960        7.21300
H         -7.69970       -1.25400        2.86540
H         -5.74090       -0.18560        1.84070
H         -4.03690       -1.83570        0.57910
H         -3.98690       -1.10700       -1.77910
H         -3.34960        3.56640       -2.54390
H         -1.64090        3.03870       -2.73680
H         -2.68470        3.22600       -4.15980
H         -2.38830        2.67120       -0.57190
H         -2.45420        1.95410        1.75870
H         -1.58870        1.99790        6.89280
H         -1.31160        3.48350        8.46880
H         -1.86870        5.05100        9.07410
H         -1.59510        4.37200        6.09620
H         -2.05640        5.93290        6.77310
H         -0.41810        5.30890        7.02640
H         -6.36030        3.42030        7.25200
H        -11.33510        2.38590        5.53910
H         -8.28810        1.13340        1.68920
H        -11.57830        0.94320        0.72680
H        -11.16420       -1.50940        0.78430
H         -9.98910       -2.04130        3.06660
H        -11.61570       -1.33040        5.02590
H        -13.81410       -0.37640        3.96690
H        -13.33640       -2.21620        2.12310
H        -13.67190       -0.67420        1.29580
H        -13.15140        1.63090        2.65000
