
  xtb     02162205523D
 energy: -403.770365897491 gnorm: 0.000613875431 xtb: 6.4.1 (unknown)
237260  0     0  0            999 V2000
   -7.3215    4.3490    1.2297 C   0  0  0  0  0  0  0  0  0  0  0  0
   -7.6394    5.4779    0.5165 C   0  0  0  0  0  0  0  0  0  0  0  0
   -6.8972    6.0291   -0.6200 C   0  0  0  0  0  0  0  0  0  0  0  0
   -6.0666    5.4670   -1.3161 O   0  0  0  0  0  0  0  0  0  0  0  0
   -7.3408    7.4300   -0.7542 C   0  0  0  0  0  0  0  0  0  0  0  0
   -6.8606    8.3859   -1.6468 C   0  0  0  0  0  0  0  0  0  0  0  0
   -7.4520    9.6201   -1.5198 C   0  0  0  0  0  0  0  0  0  0  0  0
   -8.4465    9.8891   -0.5713 C   0  0  0  0  0  0  0  0  0  0  0  0
   -8.9318    8.9557    0.3144 C   0  0  0  0  0  0  0  0  0  0  0  0
   -8.3469    7.6913    0.1986 C   0  0  0  0  0  0  0  0  0  0  0  0
   -8.6007    6.4654    0.9539 C   0  0  0  0  0  0  0  0  0  0  0  0
   -9.5783    6.2971    1.9032 C   0  0  0  0  0  0  0  0  0  0  0  0
  -10.4248    7.3248    2.3647 C   0  0  0  0  0  0  0  0  0  0  0  0
  -11.1215    8.1283    2.7983 N   0  0  0  0  0  0  0  0  0  0  0  0
   -9.9010    5.0730    2.5217 C   0  0  0  0  0  0  0  0  0  0  0  0
  -10.2463    4.1086    3.0431 N   0  0  0  0  0  0  0  0  0  0  0  0
   -8.5848   11.3272   -1.0050 C   0  0  0  0  0  0  0  0  0  0  0  0
   -9.8107   11.6694   -1.8775 C   0  0  0  0  0  0  0  0  0  0  0  0
   -9.4339   12.9784   -2.5331 C   0  0  0  0  0  0  0  0  0  0  0  0
   -8.4940   12.7225   -3.4341 C   0  0  0  0  0  0  0  0  0  0  0  0
   -8.2196   11.2361   -3.4024 C   0  0  0  0  0  0  0  0  0  0  0  0
   -9.6228   10.7160   -3.0647 C   0  0  0  0  0  0  0  0  0  0  0  0
   -7.4773   11.0264   -2.0656 C   0  0  0  0  0  0  0  0  0  0  0  0
   -6.2882    3.4252    1.0457 C   0  0  0  0  0  0  0  0  0  0  0  0
   -5.8105    2.5734    2.0700 C   0  0  0  0  0  0  0  0  0  0  0  0
   -6.2127    2.6238    3.3868 N   0  0  0  0  0  0  0  0  0  0  0  0
   -6.5636    3.8542    3.9734 C   0  0  0  0  0  0  0  0  0  0  0  0
   -7.6749    3.9648    4.8090 C   0  0  0  0  0  0  0  0  0  0  0  0
   -8.0810    5.2033    5.2559 C   0  0  0  0  0  0  0  0  0  0  0  0
   -7.3969    6.3540    4.8725 C   0  0  0  0  0  0  0  0  0  0  0  0
   -8.0604    7.9025    5.3991 S   0  0  0  0  0  0  0  0  0  0  0  0
   -7.3878    9.0670    4.1763 C   0  0  0  0  0  0  0  0  0  0  0  0
   -6.2407    6.2381    4.1089 C   0  0  0  0  0  0  0  0  0  0  0  0
   -5.8232    4.9975    3.6742 C   0  0  0  0  0  0  0  0  0  0  0  0
   -6.3650    1.4323    4.1099 C   0  0  0  0  0  0  0  0  0  0  0  0
   -6.7541    0.2602    3.4674 C   0  0  0  0  0  0  0  0  0  0  0  0
   -6.9589   -0.9036    4.1809 C   0  0  0  0  0  0  0  0  0  0  0  0
   -6.8062   -0.9099    5.5601 C   0  0  0  0  0  0  0  0  0  0  0  0
   -7.0989   -2.3124    6.5847 S   0  0  0  0  0  0  0  0  0  0  0  0
   -7.6555   -3.5940    5.4231 C   0  0  0  0  0  0  0  0  0  0  0  0
   -6.4102    0.2601    6.2077 C   0  0  0  0  0  0  0  0  0  0  0  0
   -6.1753    1.4116    5.4926 C   0  0  0  0  0  0  0  0  0  0  0  0
   -4.8179    1.7097    1.5799 C   0  0  0  0  0  0  0  0  0  0  0  0
   -3.7674    0.5292    2.3107 S   0  0  0  0  0  0  0  0  0  0  0  0
   -2.9543    0.2888    0.7702 C   0  0  0  0  0  0  0  0  0  0  0  0
   -3.5563    1.0055   -0.2569 C   0  0  0  0  0  0  0  0  0  0  0  0
   -3.2472    0.7839   -1.5936 N   0  0  0  0  0  0  0  0  0  0  0  0
   -3.2243    1.8675   -2.4720 C   0  0  0  0  0  0  0  0  0  0  0  0
   -3.6800    1.7540   -3.7845 C   0  0  0  0  0  0  0  0  0  0  0  0
   -3.7425    2.8683   -4.5923 C   0  0  0  0  0  0  0  0  0  0  0  0
   -3.3617    4.1108   -4.1010 C   0  0  0  0  0  0  0  0  0  0  0  0
   -3.5463    5.5351   -5.1421 S   0  0  0  0  0  0  0  0  0  0  0  0
   -4.2175    6.7302   -3.9441 C   0  0  0  0  0  0  0  0  0  0  0  0
   -2.8491    4.2200   -2.8163 C   0  0  0  0  0  0  0  0  0  0  0  0
   -2.7773    3.1045   -2.0099 C   0  0  0  0  0  0  0  0  0  0  0  0
   -3.2060   -0.5453   -2.0403 C   0  0  0  0  0  0  0  0  0  0  0  0
   -4.0381   -1.5096   -1.4764 C   0  0  0  0  0  0  0  0  0  0  0  0
   -3.9862   -2.8240   -1.8956 C   0  0  0  0  0  0  0  0  0  0  0  0
   -3.0987   -3.1990   -2.8950 C   0  0  0  0  0  0  0  0  0  0  0  0
   -2.9303   -4.8550   -3.4896 S   0  0  0  0  0  0  0  0  0  0  0  0
   -4.3112   -5.7391   -2.7079 C   0  0  0  0  0  0  0  0  0  0  0  0
   -2.2665   -2.2381   -3.4648 C   0  0  0  0  0  0  0  0  0  0  0  0
   -2.3184   -0.9275   -3.0441 C   0  0  0  0  0  0  0  0  0  0  0  0
   -4.5744    1.8583    0.2173 C   0  0  0  0  0  0  0  0  0  0  0  0
   -5.4592    3.1601   -0.4852 S   0  0  0  0  0  0  0  0  0  0  0  0
   -1.7012   -0.3755    0.5916 C   0  0  0  0  0  0  0  0  0  0  0  0
   -1.1659   -1.5494    1.0864 C   0  0  0  0  0  0  0  0  0  0  0  0
   -1.8176   -2.4722    1.9006 N   0  0  0  0  0  0  0  0  0  0  0  0
   -2.2681   -2.0757    3.1630 C   0  0  0  0  0  0  0  0  0  0  0  0
   -1.6535   -1.0145    3.8250 C   0  0  0  0  0  0  0  0  0  0  0  0
   -2.0594   -0.6382    5.0898 C   0  0  0  0  0  0  0  0  0  0  0  0
   -3.0855   -1.3241    5.7216 C   0  0  0  0  0  0  0  0  0  0  0  0
   -3.6149   -0.9798    7.3680 S   0  0  0  0  0  0  0  0  0  0  0  0
   -3.0370    0.7211    7.6382 C   0  0  0  0  0  0  0  0  0  0  0  0
   -3.7139   -2.3766    5.0590 C   0  0  0  0  0  0  0  0  0  0  0  0
   -3.3217   -2.7417    3.7914 C   0  0  0  0  0  0  0  0  0  0  0  0
   -1.6795   -3.8218    1.5469 C   0  0  0  0  0  0  0  0  0  0  0  0
   -1.6369   -4.1638    0.1967 C   0  0  0  0  0  0  0  0  0  0  0  0
   -1.4798   -5.4756   -0.2027 C   0  0  0  0  0  0  0  0  0  0  0  0
   -1.3803   -6.4815    0.7475 C   0  0  0  0  0  0  0  0  0  0  0  0
   -1.2196   -8.1951    0.3553 S   0  0  0  0  0  0  0  0  0  0  0  0
   -1.1873   -8.2251   -1.4594 C   0  0  0  0  0  0  0  0  0  0  0  0
   -1.4121   -6.1457    2.0998 C   0  0  0  0  0  0  0  0  0  0  0  0
   -1.5487   -4.8343    2.4979 C   0  0  0  0  0  0  0  0  0  0  0  0
    0.1602   -1.7449    0.6199 C   0  0  0  0  0  0  0  0  0  0  0  0
    1.3711   -2.9420    0.9048 S   0  0  0  0  0  0  0  0  0  0  0  0
    2.5468   -2.0163   -0.0243 C   0  0  0  0  0  0  0  0  0  0  0  0
    2.0090   -0.8475   -0.5361 C   0  0  0  0  0  0  0  0  0  0  0  0
    2.6301    0.0709   -1.3753 N   0  0  0  0  0  0  0  0  0  0  0  0
    1.8708    0.5011   -2.4828 C   0  0  0  0  0  0  0  0  0  0  0  0
    1.3230   -0.4440   -3.3483 C   0  0  0  0  0  0  0  0  0  0  0  0
    0.5746   -0.0364   -4.4302 C   0  0  0  0  0  0  0  0  0  0  0  0
    0.3310    1.3184   -4.6559 C   0  0  0  0  0  0  0  0  0  0  0  0
   -0.6924    1.7132   -6.0372 S   0  0  0  0  0  0  0  0  0  0  0  0
   -0.5475    3.5126   -6.1892 C   0  0  0  0  0  0  0  0  0  0  0  0
    0.8700    2.2605   -3.7896 C   0  0  0  0  0  0  0  0  0  0  0  0
    1.6408    1.8530   -2.7187 C   0  0  0  0  0  0  0  0  0  0  0  0
    3.7460    0.8163   -0.9933 C   0  0  0  0  0  0  0  0  0  0  0  0
    4.6101    1.2973   -1.9745 C   0  0  0  0  0  0  0  0  0  0  0  0
    5.6907    2.0867   -1.6399 C   0  0  0  0  0  0  0  0  0  0  0  0
    5.9311    2.4099   -0.3107 C   0  0  0  0  0  0  0  0  0  0  0  0
    7.2278    3.4809    0.2188 S   0  0  0  0  0  0  0  0  0  0  0  0
    8.2011    3.7662   -1.2839 C   0  0  0  0  0  0  0  0  0  0  0  0
    5.0887    1.9043    0.6776 C   0  0  0  0  0  0  0  0  0  0  0  0
    4.0076    1.1173    0.3446 C   0  0  0  0  0  0  0  0  0  0  0  0
    0.6437   -0.7244   -0.1752 C   0  0  0  0  0  0  0  0  0  0  0  0
   -0.5448    0.4968   -0.4297 S   0  0  0  0  0  0  0  0  0  0  0  0
    3.8530   -2.5814   -0.1796 C   0  0  0  0  0  0  0  0  0  0  0  0
    5.0797   -1.9901   -0.1444 C   0  0  0  0  0  0  0  0  0  0  0  0
    6.1536   -2.8947   -0.3288 C   0  0  0  0  0  0  0  0  0  0  0  0
    7.5281   -2.5986   -0.3397 C   0  0  0  0  0  0  0  0  0  0  0  0
    8.0266   -1.3099    0.1016 C   0  0  0  0  0  0  0  0  0  0  0  0
    7.6594   -0.6461    1.2387 C   0  0  0  0  0  0  0  0  0  0  0  0
    8.4324    0.5023    1.5209 C   0  0  0  0  0  0  0  0  0  0  0  0
    8.3000    1.3235    2.7635 C   0  0  0  0  0  0  0  0  0  0  0  0
    9.2599    0.8216    3.8433 C   0  0  0  0  0  0  0  0  0  0  0  0
    9.3766    0.7027    0.5555 C   0  0  0  0  0  0  0  0  0  0  0  0
   10.5419    1.9519    0.5136 Cl  0  0  0  0  0  0  0  0  0  0  0  0
    9.3374   -0.4943   -0.6991 S   0  0  0  0  0  0  0  0  0  0  0  0
    8.3902   -3.6378   -0.6777 C   0  0  0  0  0  0  0  0  0  0  0  0
    7.9367   -4.9610   -0.9311 C   0  0  0  0  0  0  0  0  0  0  0  0
    6.5587   -5.2786   -0.8390 C   0  0  0  0  0  0  0  0  0  0  0  0
    6.0447   -6.6178   -1.0261 C   0  0  0  0  0  0  0  0  0  0  0  0
    5.0312   -7.2162   -0.3304 C   0  0  0  0  0  0  0  0  0  0  0  0
    4.7147   -8.5235   -0.7612 C   0  0  0  0  0  0  0  0  0  0  0  0
    3.6243   -9.3487   -0.1583 C   0  0  0  0  0  0  0  0  0  0  0  0
    2.2558   -8.8438   -0.6150 C   0  0  0  0  0  0  0  0  0  0  0  0
    5.4968   -8.8976   -1.8161 C   0  0  0  0  0  0  0  0  0  0  0  0
    6.6403   -7.6789   -2.2758 S   0  0  0  0  0  0  0  0  0  0  0  0
    5.4489  -10.3870   -2.6551 Cl  0  0  0  0  0  0  0  0  0  0  0  0
    5.7072   -4.2233   -0.5434 C   0  0  0  0  0  0  0  0  0  0  0  0
    3.9699   -4.3168   -0.4321 S   0  0  0  0  0  0  0  0  0  0  0  0
    9.0135   -5.8253   -1.1722 C   0  0  0  0  0  0  0  0  0  0  0  0
   10.2553   -5.2156   -1.1236 C   0  0  0  0  0  0  0  0  0  0  0  0
   10.1219   -3.5080   -0.7621 S   0  0  0  0  0  0  0  0  0  0  0  0
   11.4401   -5.9487   -1.3369 C   0  0  0  0  0  0  0  0  0  0  0  0
   12.7491   -5.5529   -1.3222 C   0  0  0  0  0  0  0  0  0  0  0  0
   13.2361   -4.1833   -1.0747 C   0  0  0  0  0  0  0  0  0  0  0  0
   12.5716   -3.1954   -0.8383 O   0  0  0  0  0  0  0  0  0  0  0  0
   14.7059   -4.2546   -1.1702 C   0  0  0  0  0  0  0  0  0  0  0  0
   15.6496   -3.2504   -1.0236 C   0  0  0  0  0  0  0  0  0  0  0  0
   15.1765   -1.6380   -0.6784 Cl  0  0  0  0  0  0  0  0  0  0  0  0
   16.9978   -3.5736   -1.1622 C   0  0  0  0  0  0  0  0  0  0  0  0
   17.3745   -4.8753   -1.4413 C   0  0  0  0  0  0  0  0  0  0  0  0
   16.4373   -5.8912   -1.5905 C   0  0  0  0  0  0  0  0  0  0  0  0
   15.0956   -5.5776   -1.4535 C   0  0  0  0  0  0  0  0  0  0  0  0
   13.8962   -6.4111   -1.5486 C   0  0  0  0  0  0  0  0  0  0  0  0
   13.8930   -7.7588   -1.7977 C   0  0  0  0  0  0  0  0  0  0  0  0
   12.7519   -8.5856   -1.8795 C   0  0  0  0  0  0  0  0  0  0  0  0
   11.8856   -9.3356   -1.9606 N   0  0  0  0  0  0  0  0  0  0  0  0
   15.0544   -8.5337   -2.0051 C   0  0  0  0  0  0  0  0  0  0  0  0
   15.9509   -9.2283   -2.1831 N   0  0  0  0  0  0  0  0  0  0  0  0
   -7.9065    4.1823    2.1245 H   0  0  0  0  0  0  0  0  0  0  0  0
   -6.0871    8.1446   -2.3585 H   0  0  0  0  0  0  0  0  0  0  0  0
   -9.6950    9.1780    1.0414 H   0  0  0  0  0  0  0  0  0  0  0  0
   -8.3843   12.0752   -0.2401 H   0  0  0  0  0  0  0  0  0  0  0  0
  -10.7631   11.6390   -1.3554 H   0  0  0  0  0  0  0  0  0  0  0  0
   -9.8368   13.9315   -2.2450 H   0  0  0  0  0  0  0  0  0  0  0  0
   -7.9550   13.4191   -4.0490 H   0  0  0  0  0  0  0  0  0  0  0  0
   -7.7233   10.8118   -4.2712 H   0  0  0  0  0  0  0  0  0  0  0  0
  -10.3363   10.9086   -3.8639 H   0  0  0  0  0  0  0  0  0  0  0  0
   -9.6529    9.6615   -2.7963 H   0  0  0  0  0  0  0  0  0  0  0  0
   -6.5390   11.5756   -2.0093 H   0  0  0  0  0  0  0  0  0  0  0  0
   -8.2482    3.0872    5.0625 H   0  0  0  0  0  0  0  0  0  0  0  0
   -8.9613    5.2948    5.8723 H   0  0  0  0  0  0  0  0  0  0  0  0
   -7.4989    8.6534    3.1781 H   0  0  0  0  0  0  0  0  0  0  0  0
   -7.9860    9.9677    4.2709 H   0  0  0  0  0  0  0  0  0  0  0  0
   -6.3475    9.2922    4.3937 H   0  0  0  0  0  0  0  0  0  0  0  0
   -5.6600    7.1090    3.8489 H   0  0  0  0  0  0  0  0  0  0  0  0
   -4.9330    4.9137    3.0681 H   0  0  0  0  0  0  0  0  0  0  0  0
   -6.9255    0.2641    2.4014 H   0  0  0  0  0  0  0  0  0  0  0  0
   -7.2621   -1.7897    3.6479 H   0  0  0  0  0  0  0  0  0  0  0  0
   -7.8527   -4.4711    6.0317 H   0  0  0  0  0  0  0  0  0  0  0  0
   -6.8726   -3.8147    4.7031 H   0  0  0  0  0  0  0  0  0  0  0  0
   -8.5689   -3.2762    4.9290 H   0  0  0  0  0  0  0  0  0  0  0  0
   -6.2916    0.2483    7.2795 H   0  0  0  0  0  0  0  0  0  0  0  0
   -5.8640    2.3113    6.0025 H   0  0  0  0  0  0  0  0  0  0  0  0
   -4.0141    0.7988   -4.1592 H   0  0  0  0  0  0  0  0  0  0  0  0
   -4.1126    2.7888   -5.6025 H   0  0  0  0  0  0  0  0  0  0  0  0
   -4.8168    7.4304   -4.5189 H   0  0  0  0  0  0  0  0  0  0  0  0
   -3.4088    7.2597   -3.4467 H   0  0  0  0  0  0  0  0  0  0  0  0
   -4.8315    6.1923   -3.2269 H   0  0  0  0  0  0  0  0  0  0  0  0
   -2.5125    5.1735   -2.4398 H   0  0  0  0  0  0  0  0  0  0  0  0
   -2.3733    3.1847   -1.0115 H   0  0  0  0  0  0  0  0  0  0  0  0
   -4.7382   -1.2314   -0.7026 H   0  0  0  0  0  0  0  0  0  0  0  0
   -4.6413   -3.5428   -1.4309 H   0  0  0  0  0  0  0  0  0  0  0  0
   -5.2469   -5.2438   -2.9493 H   0  0  0  0  0  0  0  0  0  0  0  0
   -4.1603   -5.7981   -1.6328 H   0  0  0  0  0  0  0  0  0  0  0  0
   -4.3041   -6.7356   -3.1398 H   0  0  0  0  0  0  0  0  0  0  0  0
   -1.5744   -2.5342   -4.2379 H   0  0  0  0  0  0  0  0  0  0  0  0
   -1.6689   -0.1888   -3.4850 H   0  0  0  0  0  0  0  0  0  0  0  0
   -0.8327   -0.4940    3.3538 H   0  0  0  0  0  0  0  0  0  0  0  0
   -1.5500    0.1761    5.5792 H   0  0  0  0  0  0  0  0  0  0  0  0
   -3.3326    1.3369    6.7940 H   0  0  0  0  0  0  0  0  0  0  0  0
   -3.5326    1.0625    8.5417 H   0  0  0  0  0  0  0  0  0  0  0  0
   -1.9608    0.7391    7.7848 H   0  0  0  0  0  0  0  0  0  0  0  0
   -4.5071   -2.9056    5.5626 H   0  0  0  0  0  0  0  0  0  0  0  0
   -3.8207   -3.5504    3.2787 H   0  0  0  0  0  0  0  0  0  0  0  0
   -1.7271   -3.3919   -0.5530 H   0  0  0  0  0  0  0  0  0  0  0  0
   -1.4373   -5.6920   -1.2573 H   0  0  0  0  0  0  0  0  0  0  0  0
   -1.0726   -9.2695   -1.7316 H   0  0  0  0  0  0  0  0  0  0  0  0
   -2.1223   -7.8420   -1.8563 H   0  0  0  0  0  0  0  0  0  0  0  0
   -0.3402   -7.6533   -1.8253 H   0  0  0  0  0  0  0  0  0  0  0  0
   -1.3147   -6.9281    2.8368 H   0  0  0  0  0  0  0  0  0  0  0  0
   -1.5415   -4.5902    3.5491 H   0  0  0  0  0  0  0  0  0  0  0  0
    1.4976   -1.4947   -3.1698 H   0  0  0  0  0  0  0  0  0  0  0  0
    0.1695   -0.7612   -5.1197 H   0  0  0  0  0  0  0  0  0  0  0  0
   -1.0989    3.7773   -7.0859 H   0  0  0  0  0  0  0  0  0  0  0  0
    0.4973    3.7874   -6.2994 H   0  0  0  0  0  0  0  0  0  0  0  0
   -1.0024    3.9985   -5.3317 H   0  0  0  0  0  0  0  0  0  0  0  0
    0.6864    3.3130   -3.9311 H   0  0  0  0  0  0  0  0  0  0  0  0
    2.0583    2.5887   -2.0472 H   0  0  0  0  0  0  0  0  0  0  0  0
    4.4205    1.0553   -3.0094 H   0  0  0  0  0  0  0  0  0  0  0  0
    6.3333    2.4475   -2.4260 H   0  0  0  0  0  0  0  0  0  0  0  0
    8.5319    2.8166   -1.6938 H   0  0  0  0  0  0  0  0  0  0  0  0
    9.0603    4.3489   -0.9665 H   0  0  0  0  0  0  0  0  0  0  0  0
    7.6196    4.3318   -2.0065 H   0  0  0  0  0  0  0  0  0  0  0  0
    5.2814    2.1573    1.7086 H   0  0  0  0  0  0  0  0  0  0  0  0
    3.3505    0.7403    1.1149 H   0  0  0  0  0  0  0  0  0  0  0  0
    5.2291   -0.9399    0.0147 H   0  0  0  0  0  0  0  0  0  0  0  0
    6.8837   -0.9997    1.8946 H   0  0  0  0  0  0  0  0  0  0  0  0
    8.5194    2.3675    2.5370 H   0  0  0  0  0  0  0  0  0  0  0  0
    7.2738    1.2570    3.1271 H   0  0  0  0  0  0  0  0  0  0  0  0
    9.1506    1.4136    4.7485 H   0  0  0  0  0  0  0  0  0  0  0  0
    9.0558   -0.2202    4.0804 H   0  0  0  0  0  0  0  0  0  0  0  0
   10.2883    0.9003    3.5000 H   0  0  0  0  0  0  0  0  0  0  0  0
    4.5396   -6.7534    0.5063 H   0  0  0  0  0  0  0  0  0  0  0  0
    3.7490  -10.3916   -0.4514 H   0  0  0  0  0  0  0  0  0  0  0  0
    3.6892   -9.2845    0.9297 H   0  0  0  0  0  0  0  0  0  0  0  0
    2.1662   -8.9310   -1.6956 H   0  0  0  0  0  0  0  0  0  0  0  0
    1.4661   -9.4267   -0.1485 H   0  0  0  0  0  0  0  0  0  0  0  0
    2.1262   -7.7995   -0.3390 H   0  0  0  0  0  0  0  0  0  0  0  0
    8.9095   -6.8775   -1.3664 H   0  0  0  0  0  0  0  0  0  0  0  0
   11.2495   -6.9953   -1.5418 H   0  0  0  0  0  0  0  0  0  0  0  0
   17.7410   -2.8003   -1.0498 H   0  0  0  0  0  0  0  0  0  0  0  0
   18.4229   -5.1093   -1.5456 H   0  0  0  0  0  0  0  0  0  0  0  0
   16.7649   -6.8939   -1.8078 H   0  0  0  0  0  0  0  0  0  0  0  0
  1  2  2  0  0  0  0
  2  3  1  0  0  0  0
  3  4  2  0  0  0  0
  3  5  1  0  0  0  0
  5  6  2  0  0  0  0
  6  7  1  0  0  0  0
  7  8  2  0  0  0  0
  8  9  1  0  0  0  0
  9 10  2  0  0  0  0
 10 11  1  0  0  0  0
 11 12  2  0  0  0  0
 12 13  1  0  0  0  0
 13 14  3  0  0  0  0
 12 15  1  0  0  0  0
 15 16  3  0  0  0  0
  8 17  1  0  0  0  0
 17 18  1  0  0  0  0
 18 19  1  0  0  0  0
 19 20  2  0  0  0  0
 20 21  1  0  0  0  0
 21 22  1  0  0  0  0
 21 23  1  0  0  0  0
  1 24  1  0  0  0  0
 24 25  2  0  0  0  0
 25 26  1  0  0  0  0
 26 27  1  0  0  0  0
 27 28  2  0  0  0  0
 28 29  1  0  0  0  0
 29 30  2  0  0  0  0
 30 31  1  0  0  0  0
 31 32  1  0  0  0  0
 30 33  1  0  0  0  0
 33 34  2  0  0  0  0
 26 35  1  0  0  0  0
 35 36  2  0  0  0  0
 36 37  1  0  0  0  0
 37 38  2  0  0  0  0
 38 39  1  0  0  0  0
 39 40  1  0  0  0  0
 38 41  1  0  0  0  0
 41 42  2  0  0  0  0
 25 43  1  0  0  0  0
 43 44  1  0  0  0  0
 44 45  1  0  0  0  0
 45 46  2  0  0  0  0
 46 47  1  0  0  0  0
 47 48  1  0  0  0  0
 48 49  2  0  0  0  0
 49 50  1  0  0  0  0
 50 51  2  0  0  0  0
 51 52  1  0  0  0  0
 52 53  1  0  0  0  0
 51 54  1  0  0  0  0
 54 55  2  0  0  0  0
 47 56  1  0  0  0  0
 56 57  2  0  0  0  0
 57 58  1  0  0  0  0
 58 59  2  0  0  0  0
 59 60  1  0  0  0  0
 60 61  1  0  0  0  0
 59 62  1  0  0  0  0
 62 63  2  0  0  0  0
 46 64  1  0  0  0  0
 64 65  1  0  0  0  0
 45 66  1  0  0  0  0
 66 67  2  0  0  0  0
 67 68  1  0  0  0  0
 68 69  1  0  0  0  0
 69 70  2  0  0  0  0
 70 71  1  0  0  0  0
 71 72  2  0  0  0  0
 72 73  1  0  0  0  0
 73 74  1  0  0  0  0
 72 75  1  0  0  0  0
 75 76  2  0  0  0  0
 68 77  1  0  0  0  0
 77 78  2  0  0  0  0
 78 79  1  0  0  0  0
 79 80  2  0  0  0  0
 80 81  1  0  0  0  0
 81 82  1  0  0  0  0
 80 83  1  0  0  0  0
 83 84  2  0  0  0  0
 67 85  1  0  0  0  0
 85 86  1  0  0  0  0
 86 87  1  0  0  0  0
 87 88  2  0  0  0  0
 88 89  1  0  0  0  0
 89 90  1  0  0  0  0
 90 91  2  0  0  0  0
 91 92  1  0  0  0  0
 92 93  2  0  0  0  0
 93 94  1  0  0  0  0
 94 95  1  0  0  0  0
 93 96  1  0  0  0  0
 96 97  2  0  0  0  0
 89 98  1  0  0  0  0
 98 99  2  0  0  0  0
 99100  1  0  0  0  0
100101  2  0  0  0  0
101102  1  0  0  0  0
102103  1  0  0  0  0
101104  1  0  0  0  0
104105  2  0  0  0  0
 88106  1  0  0  0  0
106107  1  0  0  0  0
 87108  1  0  0  0  0
108109  2  0  0  0  0
109110  1  0  0  0  0
110111  2  0  0  0  0
111112  1  0  0  0  0
112113  2  0  0  0  0
113114  1  0  0  0  0
114115  1  0  0  0  0
115116  1  0  0  0  0
114117  2  0  0  0  0
117118  1  0  0  0  0
117119  1  0  0  0  0
111120  1  0  0  0  0
120121  2  0  0  0  0
121122  1  0  0  0  0
122123  1  0  0  0  0
123124  2  0  0  0  0
124125  1  0  0  0  0
125126  1  0  0  0  0
126127  1  0  0  0  0
125128  2  0  0  0  0
128129  1  0  0  0  0
128130  1  0  0  0  0
122131  2  0  0  0  0
131132  1  0  0  0  0
121133  1  0  0  0  0
133134  2  0  0  0  0
134135  1  0  0  0  0
134136  1  0  0  0  0
136137  2  0  0  0  0
137138  1  0  0  0  0
138139  2  0  0  0  0
138140  1  0  0  0  0
140141  2  0  0  0  0
141142  1  0  0  0  0
141143  1  0  0  0  0
143144  2  0  0  0  0
144145  1  0  0  0  0
145146  2  0  0  0  0
146147  1  0  0  0  0
147148  2  0  0  0  0
148149  1  0  0  0  0
149150  3  0  0  0  0
148151  1  0  0  0  0
151152  3  0  0  0  0
 11  2  1  0  0  0  0
 23 17  1  0  0  0  0
 65 24  1  0  0  0  0
107 66  1  0  0  0  0
132108  1  0  0  0  0
147137  1  0  0  0  0
 10  5  1  0  0  0  0
 22 18  1  0  0  0  0
 34 27  1  0  0  0  0
 42 35  1  0  0  0  0
 64 43  2  0  0  0  0
 76 69  1  0  0  0  0
 84 77  1  0  0  0  0
106 85  2  0  0  0  0
131110  1  0  0  0  0
146140  1  0  0  0  0
 23  7  1  0  0  0  0
 55 48  1  0  0  0  0
 63 56  1  0  0  0  0
 97 90  1  0  0  0  0
105 98  1  0  0  0  0
119112  1  0  0  0  0
135120  1  0  0  0  0
129123  1  0  0  0  0
  1153  1  0  0  0  0
  6154  1  0  0  0  0
  9155  1  0  0  0  0
 17156  1  0  0  0  0
 18157  1  0  0  0  0
 19158  1  0  0  0  0
 20159  1  0  0  0  0
 21160  1  0  0  0  0
 22161  1  0  0  0  0
 22162  1  0  0  0  0
 23163  1  0  0  0  0
 28164  1  0  0  0  0
 29165  1  0  0  0  0
 32166  1  0  0  0  0
 32167  1  0  0  0  0
 32168  1  0  0  0  0
 33169  1  0  0  0  0
 34170  1  0  0  0  0
 36171  1  0  0  0  0
 37172  1  0  0  0  0
 40173  1  0  0  0  0
 40174  1  0  0  0  0
 40175  1  0  0  0  0
 41176  1  0  0  0  0
 42177  1  0  0  0  0
 49178  1  0  0  0  0
 50179  1  0  0  0  0
 53180  1  0  0  0  0
 53181  1  0  0  0  0
 53182  1  0  0  0  0
 54183  1  0  0  0  0
 55184  1  0  0  0  0
 57185  1  0  0  0  0
 58186  1  0  0  0  0
 61187  1  0  0  0  0
 61188  1  0  0  0  0
 61189  1  0  0  0  0
 62190  1  0  0  0  0
 63191  1  0  0  0  0
 70192  1  0  0  0  0
 71193  1  0  0  0  0
 74194  1  0  0  0  0
 74195  1  0  0  0  0
 74196  1  0  0  0  0
 75197  1  0  0  0  0
 76198  1  0  0  0  0
 78199  1  0  0  0  0
 79200  1  0  0  0  0
 82201  1  0  0  0  0
 82202  1  0  0  0  0
 82203  1  0  0  0  0
 83204  1  0  0  0  0
 84205  1  0  0  0  0
 91206  1  0  0  0  0
 92207  1  0  0  0  0
 95208  1  0  0  0  0
 95209  1  0  0  0  0
 95210  1  0  0  0  0
 96211  1  0  0  0  0
 97212  1  0  0  0  0
 99213  1  0  0  0  0
100214  1  0  0  0  0
103215  1  0  0  0  0
103216  1  0  0  0  0
103217  1  0  0  0  0
104218  1  0  0  0  0
105219  1  0  0  0  0
109220  1  0  0  0  0
113221  1  0  0  0  0
115222  1  0  0  0  0
115223  1  0  0  0  0
116224  1  0  0  0  0
116225  1  0  0  0  0
116226  1  0  0  0  0
124227  1  0  0  0  0
126228  1  0  0  0  0
126229  1  0  0  0  0
127230  1  0  0  0  0
127231  1  0  0  0  0
127232  1  0  0  0  0
133233  1  0  0  0  0
136234  1  0  0  0  0
143235  1  0  0  0  0
144236  1  0  0  0  0
145237  1  0  0  0  0
M  END
