184

C          1.93330       -2.21370        7.60330
C          2.85990       -3.18810        7.90410
C          3.84320       -3.71230        6.94220
O          3.95610       -3.41710        5.76630
C          4.75440       -4.57050        7.72750
C          5.84690       -5.29010        7.25330
C          6.49740       -6.02120        8.21960
C          6.09660       -6.02960        9.56090
C          5.02210       -5.31980       10.04340
C          4.34610       -4.57440        9.07540
C          3.15460       -3.73870        9.19680
C          2.35070       -3.63550       10.30640
C          2.61220       -4.24540       11.54700
N          2.75230       -4.71990       12.58440
C          1.10560       -2.97790       10.31260
N          0.05670       -2.51330       10.38490
C          7.20430       -6.96850        9.97060
C          8.41470       -6.33680       10.68970
C          9.50800       -7.36870       10.53260
C          9.88680       -7.36470        9.26090
C          9.05620       -6.32950        8.53740
C          8.88140       -5.29910        9.66040
C          7.64990       -6.96210        8.47300
C          1.41550       -1.94660        6.33190
C          1.27220       -2.76840        5.19560
N          1.45810       -4.11920        5.12940
C          1.39070       -4.95640        6.24900
C          0.43480       -4.76300        7.24410
C          0.41930       -5.55640        8.37290
C          1.36910       -6.56020        8.53310
S          1.51530       -7.56880        9.96760
C          0.19700       -6.98270       11.06700
C          2.28880       -6.79640        7.51170
C          2.29780       -6.01050        6.38150
C          1.73780       -4.71080        3.87870
C          1.03170       -5.83620        3.47110
C          1.28670       -6.41530        2.24290
C          2.25630       -5.87360        1.40900
S          2.66560       -6.51570       -0.18030
C          1.44010       -7.82610       -0.45670
C          2.98150       -4.75880        1.82950
C          2.72650       -4.18020        3.05170
C          0.77130       -2.01810        4.10380
S          0.35080       -2.41590        2.47390
C         -0.15220       -0.76620        2.18040
C         -0.06760        0.03460        3.30950
N         -0.50790        1.34240        3.42120
C          0.23540        2.22830        4.21360
C          1.62610        2.12800        4.27390
C          2.34910        2.97750        5.08120
C          1.70310        3.95200        5.83820
S          2.72870        4.98930        6.83370
C          1.55560        5.79260        7.96250
C          0.32140        4.07160        5.76140
C         -0.40500        3.21270        4.96000
C         -1.54540        1.81140        2.60720
C         -2.63830        0.99290        2.31320
C         -3.56050        1.37490        1.36570
C         -3.42590        2.59100        0.69860
S         -4.56910        2.91940       -0.60430
C         -3.83000        4.33920       -1.45970
C         -2.41290        3.46140        1.07690
C         -1.48430        3.07440        2.02300
C          0.47230       -0.69520        4.39670
S          0.78780       -0.31470        6.04900
C         -0.60600       -0.36480        0.86990
C         -1.50790       -1.10180        0.12530
F         -1.95990       -2.27720        0.59800
C         -2.03460       -0.65530       -1.09040
F         -2.91720       -1.47120       -1.69590
C         -1.69600        0.57220       -1.64390
C         -0.72670        1.32380       -0.91650
N         -0.35970        2.51920       -1.38860
C          0.57260        3.21880       -0.78980
C          0.89250        4.54470       -1.40750
C          2.09480        4.42480       -2.34710
C          1.23130        2.68210        0.35170
N          0.83790        1.54290        0.86880
C         -0.15540        0.85340        0.28900
C          2.38960        3.34210        1.03760
C          3.64480        2.47670        0.91460
C         -2.21480        1.08600       -2.87670
S         -1.50980        2.54480       -3.55790
C         -2.53200        2.39370       -4.94540
C         -2.80520        2.98940       -6.17250
C         -3.82560        2.21230       -6.78780
N         -4.16780        1.17160       -5.96480
C         -5.22250        0.21800       -6.19520
C         -6.55510        0.71530       -5.63900
C         -3.39430        1.27770       -4.84090
C         -3.20880        0.54460       -3.66930
C         -4.18330        2.65290       -8.05340
C         -3.44720        3.76520       -8.43860
S         -2.31020        4.28810       -7.17840
C         -3.42960        4.52270       -9.62190
C         -4.02940        4.32350      -10.83830
C         -4.81490        3.16300      -11.30970
O         -5.28620        2.24380      -10.66710
C         -4.92690        3.31860      -12.77230
C         -5.51300        2.41920      -13.66100
C         -5.44720        2.81010      -14.97630
C         -4.84420        4.00910      -15.37950
C         -4.27320        4.91000      -14.51260
C         -4.32970        4.53050      -13.16760
C         -3.84060        5.21270      -11.97260
C         -3.35780        6.49580      -11.94080
C         -2.99520        7.21550      -10.78220
N         -2.70250        7.88960       -9.89920
C         -3.19910        7.31540      -13.07800
N         -3.03410        8.03770      -13.95560
C         -5.11680        3.74870      -16.84010
C         -3.92240        3.25970      -17.68680
C         -4.57100        2.64180      -18.90440
C         -5.14530        1.50770      -18.52380
C         -4.89420        1.34000      -17.04250
C         -3.50780        1.98810      -16.93510
C         -5.79200        2.41330      -16.39060
H          1.59380       -1.55780        8.39660
H          6.12110       -5.26080        6.21000
H          4.72400       -5.33380       11.07860
H          6.88720       -7.90940       10.41600
H          8.21310       -5.98680       11.69840
H          9.84300       -8.01320       11.32400
H         10.60150       -8.00530        8.77800
H          9.44000       -5.97270        7.58520
H          8.14540       -4.52740        9.44320
H          9.82460       -4.83420        9.94310
H          7.62980       -7.89980        7.92050
H         -0.29970       -3.97840        7.14130
H         -0.33030       -5.37160        9.12510
H         -0.77240       -7.14670       10.60570
H          0.34920       -5.93630       11.31360
H          0.28570       -7.58340       11.96690
H          3.00970       -7.59060        7.62970
H          3.02210       -6.18890        5.60140
H          0.27430       -6.25540        4.11720
H          0.71860       -7.28280        1.94930
H          1.57820       -8.62720        0.26370
H          0.43850       -7.41020       -0.40170
H          1.63180       -8.19710       -1.45870
H          3.74780       -4.35850        1.18400
H          3.30070       -3.33480        3.39550
H          2.13110        1.38110        3.68120
H          3.42410        2.89800        5.13340
H          0.94640        6.51430        7.42590
H          2.16390        6.30500        8.70120
H          0.94210        5.03820        8.44560
H         -0.20350        4.82460        6.32660
H         -1.48040        3.30090        4.91360
H         -2.74210        0.04140        2.81260
H         -4.38700        0.72730        1.11660
H         -3.93780        5.23810       -0.85940
H         -2.78740        4.12580       -1.67720
H         -4.38640        4.44830       -2.38560
H         -2.31850        4.43520        0.62410
H         -0.67780        3.74450        2.28220
H          0.02540        4.86020       -1.98870
H          1.09080        5.28910       -0.63500
H          2.30120        5.38650       -2.80940
H          1.87820        3.70290       -3.13030
H          2.98210        4.10000       -1.80950
H          2.14320        3.44540        2.09750
H          2.57780        4.33150        0.62500
H          4.46230        2.92110        1.47610
H          3.94770        2.38210       -0.12630
H          3.44650        1.48260        1.30570
H         -5.30240        0.05410       -7.27280
H         -4.94230       -0.72370       -5.71590
H         -7.32900       -0.02750       -5.80940
H         -6.47400        0.89800       -4.56980
H         -6.84590        1.64120       -6.12950
H         -3.76710       -0.33370       -3.40950
H         -4.92300        2.20750       -8.69190
H         -2.77960        5.38780       -9.55410
H         -5.96630        1.50660      -13.30650
H         -3.81390        5.82760      -14.83950
H         -5.72350        4.49410      -17.35080
H         -3.15570        4.00830      -17.86710
H         -4.59220        3.10540      -19.87320
H         -5.74230        0.83480      -19.11110
H         -5.01250        0.33880      -16.63640
H         -3.17800        2.16410      -15.91290
H         -2.74680        1.42300      -17.47090
H         -6.85020        2.26850      -16.60050
