164

C         -0.51140        3.11070       -7.26070
C         -1.73560        2.85940       -7.81520
C         -2.95770        2.53140       -7.04290
O         -3.06060        2.31850       -5.85300
C         -4.07640        2.67350       -7.99870
C         -5.43160        2.50370       -7.72580
C         -6.25370        2.74150       -8.80140
C         -5.76680        3.12750      -10.05710
C         -4.43260        3.29780      -10.34120
C         -3.57940        3.05760       -9.26000
C         -2.12430        3.12970       -9.17870
C         -1.26020        3.30380      -10.23160
C          0.13910        3.18540      -10.12540
N          1.28080        3.05330      -10.12560
C         -1.65730        3.55560      -11.55920
N         -1.91640        3.77340      -12.65690
C         -7.14910        3.21730      -10.65510
C         -7.73560        4.63480      -10.82460
C         -9.22200        4.39730      -10.96300
C         -9.68400        4.02820       -9.77510
C         -8.51750        4.01050       -8.81380
C         -7.68640        5.16600       -9.38610
C         -7.69200        2.78330       -9.25580
C         -0.08030        2.66150       -5.98800
C          0.79560        3.43670       -5.19690
C          1.26220        3.02490       -3.88900
N          1.97190        3.98780       -3.29670
S          2.06520        5.25560       -4.27980
N          1.21060        4.66530       -5.50510
C          0.93140        1.76900       -3.33360
C          0.02180        1.01330       -4.11330
N         -0.43680       -0.19480       -3.78270
S         -1.35580       -0.75180       -4.97940
N         -1.19680        0.48210       -5.98650
C         -0.45260        1.42780       -5.41300
C          1.40710        1.25110       -2.10270
C          2.55810        1.53960       -1.34890
N          3.65670        2.27570       -1.72740
C          4.38540        2.91390       -0.70550
C          3.71460        3.66430        0.26050
C          4.41510        4.24630        1.29170
C          5.79900        4.09460        1.38000
S          6.57720        4.84860        2.76900
C          8.34030        4.48220        2.54500
C          6.47210        3.37180        0.40250
C          5.76840        2.78650       -0.63160
C          4.06900        2.40180       -3.05080
C          4.76920        3.53890       -3.46660
C          5.04790        3.73540       -4.79860
C          4.64080        2.80380       -5.75480
S          4.89920        3.20800       -7.44490
C          3.70600        2.14630       -8.30340
C          4.05090        1.61640       -5.33100
C          3.78410        1.41350       -3.99420
C          2.52490        0.84350       -0.11540
S          3.56610        0.78840        1.26570
C          2.53360       -0.41870        2.03820
C          1.41320       -0.72190        1.26350
N          0.36160       -1.55810        1.57980
C         -0.27550       -2.20420        0.50110
C          0.48780       -2.85790       -0.46110
C         -0.10650       -3.39950       -1.58370
C         -1.47910       -3.29240       -1.75760
S         -2.33800       -3.87680       -3.18250
C         -1.00630       -4.32020       -4.33420
C         -2.25310       -2.69100       -0.76610
C         -1.66050       -2.15310        0.35380
C         -0.14160       -1.71300        2.87160
C         -0.68770       -2.93670        3.25540
C         -1.09260       -3.15210        4.55590
C         -0.95540       -2.14530        5.50180
S         -1.30460       -2.35470        7.22000
C         -2.25610       -3.89950        7.28560
C         -0.47200       -0.89850        5.11010
C         -0.08110       -0.67870        3.80830
C          1.43980       -0.00090        0.04270
S          0.40790        0.01840       -1.34340
C          2.92710       -0.87960        3.31970
C          3.75350       -0.18410        4.19010
C          3.88040       -0.80710        5.42210
S          4.81240       -0.19880        6.77470
C          4.25070        1.54210        6.83580
C          2.76540        1.62270        7.12400
C          3.15040       -2.00700        5.52020
S          2.43000       -2.40710        3.98440
C          2.83320       -2.59830        6.74170
C          2.00930       -3.66790        6.99130
C          1.56450       -4.64450        5.99920
O          1.74380       -4.61540        4.79150
C          0.87650       -5.70870        6.75400
C          0.32000       -6.88000        6.24310
C         -0.24630       -7.69300        7.19620
C         -0.25210       -7.37030        8.55930
C          0.29020       -6.21690        9.07690
C          0.86380       -5.37150        8.12360
C          1.50040       -4.06430        8.28220
C          1.48380       -3.29390        9.41770
C          0.92750       -3.70490       10.64440
N          0.49280       -3.98990       11.66880
C          1.93460       -1.95970        9.48190
N          2.24250       -0.85930        9.60250
C         -0.96860       -8.64270        8.93960
C         -2.47290       -8.52270        9.26200
C         -2.98670       -9.93730        9.12040
C         -2.98600      -10.23960        7.82850
C         -2.47110       -9.03450        7.07470
C         -3.02100       -7.91290        7.96540
C         -0.96680       -9.00010        7.41850
H          0.18430        3.75620       -7.78450
H         -5.76580        2.20700       -6.74390
H         -4.06960        3.59940      -11.30980
H         -7.33970        2.57280      -11.51110
H         -7.26150        5.23410      -11.59700
H         -9.75660        4.46550      -11.89230
H        -10.68140        3.72650       -9.51390
H         -8.75610        4.04160       -7.75400
H         -8.19070        6.12560       -9.28440
H         -6.68190        5.23700       -8.97310
H         -8.24390        1.84830       -9.17880
H          2.64450        3.78460        0.18700
H          3.90230        4.82580        2.04370
H          8.84300        4.94720        3.38740
H          8.69570        4.92030        1.61700
H          8.50330        3.40870        2.56630
H          7.54160        3.24470        0.44030
H          6.29210        2.21300       -1.38190
H          5.03030        4.29720       -2.74490
H          5.55070        4.63270       -5.12450
H          2.75530        2.17750       -7.78000
H          3.58150        2.56840       -9.29520
H          4.08470        1.13070       -8.37610
H          3.79550        0.84470       -6.03960
H          3.33070        0.48540       -3.68040
H          1.55790       -2.92760       -0.33100
H          0.51290       -3.89380       -2.31380
H         -0.47890       -5.20030       -3.97750
H         -1.49550       -4.54410       -5.27700
H         -0.33490       -3.47530       -4.45560
H         -3.32210       -2.63080       -0.90050
H         -2.25920       -1.66520        1.10820
H         -0.75400       -3.73820        2.53630
H         -1.48100       -4.12080        4.82540
H         -1.62800       -4.74020        7.00410
H         -2.56940       -4.00540        8.31990
H         -3.12480       -3.82140        6.63880
H         -0.39770       -0.11110        5.84480
H          0.29660        0.28960        3.51530
H          4.20380        0.75930        3.93450
H          4.83460        1.97670        7.64600
H          4.51950        2.02800        5.89870
H          2.47140        2.66220        7.25270
H          2.52610        1.07400        8.03270
H          2.19120        1.19760        6.30180
H          3.26820       -2.08960        7.59490
H          0.35570       -7.09470        5.18620
H          0.28710       -5.98550       10.12890
H         -0.43700       -9.29700        9.62780
H         -2.69980       -8.00940       10.19230
H         -3.23610      -10.57080        9.95120
H         -3.23420      -11.17600        7.36440
H         -2.69810       -8.98850        6.01280
H         -2.62160       -6.92650        7.73700
H         -4.10910       -7.87500        7.95550
H         -0.43680       -9.89400        7.09470
