
  xtb     02052207273D
 energy: -321.179066590022 gnorm: 0.000721047529 xtb: 6.4.1 (unknown)
190209  0     0  0            999 V2000
   -0.9729   -2.1731   -8.1450 C   0  0  0  0  0  0  0  0  0  0  0  0
   -0.5458   -3.3511   -8.6582 C   0  0  0  0  0  0  0  0  0  0  0  0
    0.5219   -4.2219   -8.0925 C   0  0  0  0  0  0  0  0  0  0  0  0
    1.3075   -3.9566   -7.2098 O   0  0  0  0  0  0  0  0  0  0  0  0
    0.3950   -5.5104   -8.7958 C   0  0  0  0  0  0  0  0  0  0  0  0
    1.1349   -6.6648   -8.5494 C   0  0  0  0  0  0  0  0  0  0  0  0
    0.7652   -7.7410   -9.3174 C   0  0  0  0  0  0  0  0  0  0  0  0
   -0.2654   -7.6767  -10.2663 C   0  0  0  0  0  0  0  0  0  0  0  0
   -0.9947   -6.5433  -10.5285 C   0  0  0  0  0  0  0  0  0  0  0  0
   -0.6362   -5.4334   -9.7535 C   0  0  0  0  0  0  0  0  0  0  0  0
   -1.2002   -4.0909   -9.7295 C   0  0  0  0  0  0  0  0  0  0  0  0
   -2.1573   -3.6038  -10.5792 C   0  0  0  0  0  0  0  0  0  0  0  0
   -2.7555   -4.3484  -11.6181 C   0  0  0  0  0  0  0  0  0  0  0  0
   -3.2899   -4.8921  -12.4766 N   0  0  0  0  0  0  0  0  0  0  0  0
   -2.6836   -2.2939  -10.5611 C   0  0  0  0  0  0  0  0  0  0  0  0
   -3.1724   -1.2566  -10.6277 N   0  0  0  0  0  0  0  0  0  0  0  0
   -0.1169   -9.1298  -10.6431 C   0  0  0  0  0  0  0  0  0  0  0  0
   -1.1696  -10.0985  -10.0632 C   0  0  0  0  0  0  0  0  0  0  0  0
   -0.5178  -11.4568  -10.1868 C   0  0  0  0  0  0  0  0  0  0  0  0
    0.4610  -11.5174   -9.2928 C   0  0  0  0  0  0  0  0  0  0  0  0
    0.4865  -10.2014   -8.5499 C   0  0  0  0  0  0  0  0  0  0  0  0
   -1.0105   -9.8655   -8.5549 C   0  0  0  0  0  0  0  0  0  0  0  0
    1.0343   -9.1998   -9.5893 C   0  0  0  0  0  0  0  0  0  0  0  0
   -0.4345   -1.4646   -7.0161 C   0  0  0  0  0  0  0  0  0  0  0  0
    0.9069   -1.3234   -6.6883 C   0  0  0  0  0  0  0  0  0  0  0  0
    1.8606   -1.5895   -7.5825 F   0  0  0  0  0  0  0  0  0  0  0  0
    1.2970   -0.8046   -5.4479 C   0  0  0  0  0  0  0  0  0  0  0  0
    2.6074   -0.7940   -5.1481 F   0  0  0  0  0  0  0  0  0  0  0  0
    0.3921   -0.2863   -4.5362 C   0  0  0  0  0  0  0  0  0  0  0  0
   -0.9651   -0.1970   -4.9554 C   0  0  0  0  0  0  0  0  0  0  0  0
   -1.8598    0.4359   -4.1838 N   0  0  0  0  0  0  0  0  0  0  0  0
   -3.1200    0.4617   -4.5467 C   0  0  0  0  0  0  0  0  0  0  0  0
   -4.0494    1.2167   -3.6487 C   0  0  0  0  0  0  0  0  0  0  0  0
   -4.6982    0.2804   -2.6267 C   0  0  0  0  0  0  0  0  0  0  0  0
   -3.5479   -0.2396   -5.7084 C   0  0  0  0  0  0  0  0  0  0  0  0
   -2.6811   -0.8699   -6.4656 N   0  0  0  0  0  0  0  0  0  0  0  0
   -1.3757   -0.8318   -6.1496 C   0  0  0  0  0  0  0  0  0  0  0  0
   -4.9671   -0.2714   -6.1868 C   0  0  0  0  0  0  0  0  0  0  0  0
   -5.1777    0.8188   -7.2417 C   0  0  0  0  0  0  0  0  0  0  0  0
    0.7753    0.0928   -3.2017 C   0  0  0  0  0  0  0  0  0  0  0  0
    1.5636   -0.6555   -2.3387 C   0  0  0  0  0  0  0  0  0  0  0  0
    1.9842   -1.9527   -2.5671 N   0  0  0  0  0  0  0  0  0  0  0  0
    3.2167   -2.3501   -2.0238 C   0  0  0  0  0  0  0  0  0  0  0  0
    3.3600   -3.5858   -1.4019 C   0  0  0  0  0  0  0  0  0  0  0  0
    4.5690   -3.9554   -0.8456 C   0  0  0  0  0  0  0  0  0  0  0  0
    5.6522   -3.0873   -0.8941 C   0  0  0  0  0  0  0  0  0  0  0  0
    7.2400   -3.4445   -0.2155 S   0  0  0  0  0  0  0  0  0  0  0  0
    6.9993   -5.0166    0.6609 C   0  0  0  0  0  0  0  0  0  0  0  0
    5.5123   -1.8509   -1.5224 C   0  0  0  0  0  0  0  0  0  0  0  0
    4.3104   -1.4861   -2.0841 C   0  0  0  0  0  0  0  0  0  0  0  0
    1.1703   -2.8556   -3.2590 C   0  0  0  0  0  0  0  0  0  0  0  0
   -0.2207   -2.7388   -3.2153 C   0  0  0  0  0  0  0  0  0  0  0  0
   -1.0227   -3.5320   -4.0082 C   0  0  0  0  0  0  0  0  0  0  0  0
   -0.4521   -4.5006   -4.8227 C   0  0  0  0  0  0  0  0  0  0  0  0
   -1.3874   -5.4812   -5.9585 S   0  0  0  0  0  0  0  0  0  0  0  0
   -2.9171   -4.5243   -6.1792 C   0  0  0  0  0  0  0  0  0  0  0  0
    0.9217   -4.7155   -4.7660 C   0  0  0  0  0  0  0  0  0  0  0  0
    1.7273   -3.8864   -4.0147 C   0  0  0  0  0  0  0  0  0  0  0  0
    1.7556    0.0340   -1.1154 C   0  0  0  0  0  0  0  0  0  0  0  0
    2.6693   -0.2839    0.3134 S   0  0  0  0  0  0  0  0  0  0  0  0
    2.0523    1.1811    1.0502 C   0  0  0  0  0  0  0  0  0  0  0  0
    1.2232    1.9019    0.2064 C   0  0  0  0  0  0  0  0  0  0  0  0
    0.6781    3.1476    0.4715 N   0  0  0  0  0  0  0  0  0  0  0  0
   -0.6261    3.4098    0.0421 C   0  0  0  0  0  0  0  0  0  0  0  0
   -1.5776    2.3889    0.0031 C   0  0  0  0  0  0  0  0  0  0  0  0
   -2.8554    2.6473   -0.4381 C   0  0  0  0  0  0  0  0  0  0  0  0
   -3.2148    3.9272   -0.8542 C   0  0  0  0  0  0  0  0  0  0  0  0
   -4.8790    4.1308   -1.4173 S   0  0  0  0  0  0  0  0  0  0  0  0
   -4.9153    5.8221   -2.0718 C   0  0  0  0  0  0  0  0  0  0  0  0
   -2.2781    4.9502   -0.7999 C   0  0  0  0  0  0  0  0  0  0  0  0
   -0.9956    4.6912   -0.3564 C   0  0  0  0  0  0  0  0  0  0  0  0
    1.3434    4.0337    1.3287 C   0  0  0  0  0  0  0  0  0  0  0  0
    0.6494    4.7536    2.3022 C   0  0  0  0  0  0  0  0  0  0  0  0
    1.3374    5.4731    3.2525 C   0  0  0  0  0  0  0  0  0  0  0  0
    2.7309    5.5026    3.2523 C   0  0  0  0  0  0  0  0  0  0  0  0
    3.5049    6.3064    4.6183 S   0  0  0  0  0  0  0  0  0  0  0  0
    5.2759    6.0157    4.3536 C   0  0  0  0  0  0  0  0  0  0  0  0
    3.4191    4.8866    2.2151 C   0  0  0  0  0  0  0  0  0  0  0  0
    2.7285    4.1632    1.2632 C   0  0  0  0  0  0  0  0  0  0  0  0
    1.0624    1.2322   -1.0334 C   0  0  0  0  0  0  0  0  0  0  0  0
    0.1450    1.5485   -2.4675 S   0  0  0  0  0  0  0  0  0  0  0  0
    2.4493    1.5464    2.3923 C   0  0  0  0  0  0  0  0  0  0  0  0
    3.7723    1.5461    2.7941 C   0  0  0  0  0  0  0  0  0  0  0  0
    4.7349    1.1725    1.9342 F   0  0  0  0  0  0  0  0  0  0  0  0
    4.1629    2.0034    4.0569 C   0  0  0  0  0  0  0  0  0  0  0  0
    5.4742    2.0249    4.3501 F   0  0  0  0  0  0  0  0  0  0  0  0
    3.2511    2.4348    5.0002 C   0  0  0  0  0  0  0  0  0  0  0  0
    1.8761    2.4185    4.6290 C   0  0  0  0  0  0  0  0  0  0  0  0
    0.9540    2.8842    5.4840 N   0  0  0  0  0  0  0  0  0  0  0  0
   -0.3137    2.8132    5.1737 C   0  0  0  0  0  0  0  0  0  0  0  0
   -1.2711    3.3758    6.1806 C   0  0  0  0  0  0  0  0  0  0  0  0
   -1.5747    4.8442    5.8750 C   0  0  0  0  0  0  0  0  0  0  0  0
   -0.7190    2.2572    3.9262 C   0  0  0  0  0  0  0  0  0  0  0  0
    0.1732    1.8749    3.0478 N   0  0  0  0  0  0  0  0  0  0  0  0
    1.4792    1.9566    3.3517 C   0  0  0  0  0  0  0  0  0  0  0  0
   -2.1541    2.0606    3.5430 C   0  0  0  0  0  0  0  0  0  0  0  0
   -2.6089    0.6531    3.9368 C   0  0  0  0  0  0  0  0  0  0  0  0
    3.6512    2.9843    6.2722 C   0  0  0  0  0  0  0  0  0  0  0  0
    2.9580    2.7681    7.4116 C   0  0  0  0  0  0  0  0  0  0  0  0
    1.9488    1.6820    7.5839 C   0  0  0  0  0  0  0  0  0  0  0  0
    1.7684    0.7197    6.8698 O   0  0  0  0  0  0  0  0  0  0  0  0
    1.3412    1.9177    8.9062 C   0  0  0  0  0  0  0  0  0  0  0  0
    0.2980    1.1979    9.4852 C   0  0  0  0  0  0  0  0  0  0  0  0
   -0.0318    1.6076   10.7540 C   0  0  0  0  0  0  0  0  0  0  0  0
    0.6279    2.6610   11.4035 C   0  0  0  0  0  0  0  0  0  0  0  0
    1.6603    3.3762   10.8478 C   0  0  0  0  0  0  0  0  0  0  0  0
    2.0177    2.9706    9.5567 C   0  0  0  0  0  0  0  0  0  0  0  0
    3.0643    3.4796    8.6763 C   0  0  0  0  0  0  0  0  0  0  0  0
    3.9595    4.4679    8.9829 C   0  0  0  0  0  0  0  0  0  0  0  0
    4.0240    5.1340   10.2262 C   0  0  0  0  0  0  0  0  0  0  0  0
    4.1379    5.7142   11.2102 N   0  0  0  0  0  0  0  0  0  0  0  0
    4.9657    4.9562    8.1228 C   0  0  0  0  0  0  0  0  0  0  0  0
    5.8112    5.4144    7.4954 N   0  0  0  0  0  0  0  0  0  0  0  0
   -0.2049    2.5178   12.6527 C   0  0  0  0  0  0  0  0  0  0  0  0
    0.4456    1.8220   13.8739 C   0  0  0  0  0  0  0  0  0  0  0  0
    1.5023    0.8950   13.3260 C   0  0  0  0  0  0  0  0  0  0  0  0
    0.8843   -0.1049   12.7115 C   0  0  0  0  0  0  0  0  0  0  0  0
   -0.6017    0.1276   12.8336 C   0  0  0  0  0  0  0  0  0  0  0  0
   -0.6568    0.8056   14.2119 C   0  0  0  0  0  0  0  0  0  0  0  0
   -0.9359    1.3418   11.9312 C   0  0  0  0  0  0  0  0  0  0  0  0
   -1.9057   -1.7551   -8.5022 H   0  0  0  0  0  0  0  0  0  0  0  0
    1.9210   -6.6717   -7.8111 H   0  0  0  0  0  0  0  0  0  0  0  0
   -1.7839   -6.5092  -11.2609 H   0  0  0  0  0  0  0  0  0  0  0  0
    0.1175   -9.3304  -11.6867 H   0  0  0  0  0  0  0  0  0  0  0  0
   -2.1655   -9.9936  -10.4850 H   0  0  0  0  0  0  0  0  0  0  0  0
   -0.7898  -12.1880  -10.9252 H   0  0  0  0  0  0  0  0  0  0  0  0
    1.1695  -12.3096   -9.1356 H   0  0  0  0  0  0  0  0  0  0  0  0
    0.9989  -10.1892   -7.5918 H   0  0  0  0  0  0  0  0  0  0  0  0
   -1.5922  -10.5733   -7.9666 H   0  0  0  0  0  0  0  0  0  0  0  0
   -1.2379   -8.8511   -8.2322 H   0  0  0  0  0  0  0  0  0  0  0  0
    2.0385   -9.4449   -9.9297 H   0  0  0  0  0  0  0  0  0  0  0  0
   -3.4623    1.9653   -3.1162 H   0  0  0  0  0  0  0  0  0  0  0  0
   -4.8208    1.7195   -4.2316 H   0  0  0  0  0  0  0  0  0  0  0  0
   -3.9307   -0.1963   -2.0215 H   0  0  0  0  0  0  0  0  0  0  0  0
   -5.3589    0.8498   -1.9776 H   0  0  0  0  0  0  0  0  0  0  0  0
   -5.2801   -0.4980   -3.1162 H   0  0  0  0  0  0  0  0  0  0  0  0
   -5.1523   -1.2433   -6.6470 H   0  0  0  0  0  0  0  0  0  0  0  0
   -5.6626   -0.1300   -5.3610 H   0  0  0  0  0  0  0  0  0  0  0  0
   -4.5166    0.6488   -8.0874 H   0  0  0  0  0  0  0  0  0  0  0  0
   -4.9676    1.8030   -6.8279 H   0  0  0  0  0  0  0  0  0  0  0  0
   -6.2055    0.8015   -7.5944 H   0  0  0  0  0  0  0  0  0  0  0  0
    2.5171   -4.2593   -1.3498 H   0  0  0  0  0  0  0  0  0  0  0  0
    4.6483   -4.9201   -0.3713 H   0  0  0  0  0  0  0  0  0  0  0  0
    6.7739   -5.8104   -0.0455 H   0  0  0  0  0  0  0  0  0  0  0  0
    6.2120   -4.9086    1.4011 H   0  0  0  0  0  0  0  0  0  0  0  0
    7.9439   -5.2224    1.1546 H   0  0  0  0  0  0  0  0  0  0  0  0
    6.3602   -1.1854   -1.5656 H   0  0  0  0  0  0  0  0  0  0  0  0
    4.2102   -0.5360   -2.5860 H   0  0  0  0  0  0  0  0  0  0  0  0
   -0.6807   -2.0035   -2.5718 H   0  0  0  0  0  0  0  0  0  0  0  0
   -2.0919   -3.3910   -3.9764 H   0  0  0  0  0  0  0  0  0  0  0  0
   -3.5537   -4.6242   -5.3046 H   0  0  0  0  0  0  0  0  0  0  0  0
   -2.6773   -3.4824   -6.3754 H   0  0  0  0  0  0  0  0  0  0  0  0
   -3.4140   -4.9600   -7.0409 H   0  0  0  0  0  0  0  0  0  0  0  0
    1.3568   -5.5169   -5.3392 H   0  0  0  0  0  0  0  0  0  0  0  0
    2.7978   -4.0161   -4.0367 H   0  0  0  0  0  0  0  0  0  0  0  0
   -1.3061    1.3975    0.3316 H   0  0  0  0  0  0  0  0  0  0  0  0
   -3.5942    1.8620   -0.4563 H   0  0  0  0  0  0  0  0  0  0  0  0
   -5.9007    5.9461   -2.5103 H   0  0  0  0  0  0  0  0  0  0  0  0
   -4.1528    5.9362   -2.8366 H   0  0  0  0  0  0  0  0  0  0  0  0
   -4.7793    6.5390   -1.2671 H   0  0  0  0  0  0  0  0  0  0  0  0
   -2.5289    5.9534   -1.1046 H   0  0  0  0  0  0  0  0  0  0  0  0
   -0.2690    5.4893   -0.3224 H   0  0  0  0  0  0  0  0  0  0  0  0
   -0.4290    4.7073    2.3336 H   0  0  0  0  0  0  0  0  0  0  0  0
    0.8045    5.9996    4.0288 H   0  0  0  0  0  0  0  0  0  0  0  0
    5.4622    4.9563    4.2068 H   0  0  0  0  0  0  0  0  0  0  0  0
    5.7629    6.3467    5.2662 H   0  0  0  0  0  0  0  0  0  0  0  0
    5.6265    6.5987    3.5069 H   0  0  0  0  0  0  0  0  0  0  0  0
    4.4924    4.9524    2.1416 H   0  0  0  0  0  0  0  0  0  0  0  0
    3.2728    3.6675    0.4730 H   0  0  0  0  0  0  0  0  0  0  0  0
   -2.1948    2.7969    6.1932 H   0  0  0  0  0  0  0  0  0  0  0  0
   -0.8021    3.3072    7.1637 H   0  0  0  0  0  0  0  0  0  0  0  0
   -1.9925    4.9571    4.8767 H   0  0  0  0  0  0  0  0  0  0  0  0
   -2.2869    5.2371    6.5963 H   0  0  0  0  0  0  0  0  0  0  0  0
   -0.6610    5.4299    5.9354 H   0  0  0  0  0  0  0  0  0  0  0  0
   -2.2374    2.1734    2.4610 H   0  0  0  0  0  0  0  0  0  0  0  0
   -2.7893    2.8044    4.0227 H   0  0  0  0  0  0  0  0  0  0  0  0
   -3.6457    0.4999    3.6476 H   0  0  0  0  0  0  0  0  0  0  0  0
   -1.9915   -0.0885    3.4365 H   0  0  0  0  0  0  0  0  0  0  0  0
   -2.5199    0.5037    5.0109 H   0  0  0  0  0  0  0  0  0  0  0  0
    4.5126    3.6383    6.2642 H   0  0  0  0  0  0  0  0  0  0  0  0
   -0.1808    0.3930    8.9493 H   0  0  0  0  0  0  0  0  0  0  0  0
    2.1595    4.1793   11.3635 H   0  0  0  0  0  0  0  0  0  0  0  0
   -0.7943    3.3876   12.9356 H   0  0  0  0  0  0  0  0  0  0  0  0
    0.7627    2.4986   14.6627 H   0  0  0  0  0  0  0  0  0  0  0  0
    2.5575    1.0855   13.3904 H   0  0  0  0  0  0  0  0  0  0  0  0
    1.3202   -0.9166   12.1591 H   0  0  0  0  0  0  0  0  0  0  0  0
   -1.2375   -0.7399   12.6764 H   0  0  0  0  0  0  0  0  0  0  0  0
   -1.6193    1.2656   14.4315 H   0  0  0  0  0  0  0  0  0  0  0  0
   -0.3763    0.1347   15.0223 H   0  0  0  0  0  0  0  0  0  0  0  0
   -2.0043    1.4398   11.7478 H   0  0  0  0  0  0  0  0  0  0  0  0
  1  2  2  0  0  0  0
  2  3  1  0  0  0  0
  3  4  2  0  0  0  0
  3  5  1  0  0  0  0
  5  6  2  0  0  0  0
  6  7  1  0  0  0  0
  7  8  2  0  0  0  0
  8  9  1  0  0  0  0
  9 10  2  0  0  0  0
 10 11  1  0  0  0  0
 11 12  2  0  0  0  0
 12 13  1  0  0  0  0
 13 14  3  0  0  0  0
 12 15  1  0  0  0  0
 15 16  3  0  0  0  0
  8 17  1  0  0  0  0
 17 18  1  0  0  0  0
 18 19  1  0  0  0  0
 19 20  2  0  0  0  0
 20 21  1  0  0  0  0
 21 22  1  0  0  0  0
 21 23  1  0  0  0  0
  1 24  1  0  0  0  0
 24 25  2  0  0  0  0
 25 26  1  0  0  0  0
 25 27  1  0  0  0  0
 27 28  1  0  0  0  0
 27 29  2  0  0  0  0
 29 30  1  0  0  0  0
 30 31  2  0  0  0  0
 31 32  1  0  0  0  0
 32 33  1  0  0  0  0
 33 34  1  0  0  0  0
 32 35  2  0  0  0  0
 35 36  1  0  0  0  0
 36 37  2  0  0  0  0
 35 38  1  0  0  0  0
 38 39  1  0  0  0  0
 29 40  1  0  0  0  0
 40 41  2  0  0  0  0
 41 42  1  0  0  0  0
 42 43  1  0  0  0  0
 43 44  2  0  0  0  0
 44 45  1  0  0  0  0
 45 46  2  0  0  0  0
 46 47  1  0  0  0  0
 47 48  1  0  0  0  0
 46 49  1  0  0  0  0
 49 50  2  0  0  0  0
 42 51  1  0  0  0  0
 51 52  2  0  0  0  0
 52 53  1  0  0  0  0
 53 54  2  0  0  0  0
 54 55  1  0  0  0  0
 55 56  1  0  0  0  0
 54 57  1  0  0  0  0
 57 58  2  0  0  0  0
 41 59  1  0  0  0  0
 59 60  1  0  0  0  0
 60 61  1  0  0  0  0
 61 62  2  0  0  0  0
 62 63  1  0  0  0  0
 63 64  1  0  0  0  0
 64 65  2  0  0  0  0
 65 66  1  0  0  0  0
 66 67  2  0  0  0  0
 67 68  1  0  0  0  0
 68 69  1  0  0  0  0
 67 70  1  0  0  0  0
 70 71  2  0  0  0  0
 63 72  1  0  0  0  0
 72 73  2  0  0  0  0
 73 74  1  0  0  0  0
 74 75  2  0  0  0  0
 75 76  1  0  0  0  0
 76 77  1  0  0  0  0
 75 78  1  0  0  0  0
 78 79  2  0  0  0  0
 62 80  1  0  0  0  0
 80 81  1  0  0  0  0
 61 82  1  0  0  0  0
 82 83  2  0  0  0  0
 83 84  1  0  0  0  0
 83 85  1  0  0  0  0
 85 86  1  0  0  0  0
 85 87  2  0  0  0  0
 87 88  1  0  0  0  0
 88 89  2  0  0  0  0
 89 90  1  0  0  0  0
 90 91  1  0  0  0  0
 91 92  1  0  0  0  0
 90 93  2  0  0  0  0
 93 94  1  0  0  0  0
 94 95  2  0  0  0  0
 93 96  1  0  0  0  0
 96 97  1  0  0  0  0
 87 98  1  0  0  0  0
 98 99  2  0  0  0  0
 99100  1  0  0  0  0
100101  2  0  0  0  0
100102  1  0  0  0  0
102103  2  0  0  0  0
103104  1  0  0  0  0
104105  2  0  0  0  0
105106  1  0  0  0  0
106107  2  0  0  0  0
107108  1  0  0  0  0
108109  2  0  0  0  0
109110  1  0  0  0  0
110111  3  0  0  0  0
109112  1  0  0  0  0
112113  3  0  0  0  0
105114  1  0  0  0  0
114115  1  0  0  0  0
115116  1  0  0  0  0
116117  2  0  0  0  0
117118  1  0  0  0  0
118119  1  0  0  0  0
118120  1  0  0  0  0
 11  2  1  0  0  0  0
 23 17  1  0  0  0  0
 37 24  1  0  0  0  0
 81 40  1  0  0  0  0
 95 82  1  0  0  0  0
108 99  1  0  0  0  0
120114  1  0  0  0  0
 10  5  1  0  0  0  0
 22 18  1  0  0  0  0
 37 30  1  0  0  0  0
 50 43  1  0  0  0  0
 58 51  1  0  0  0  0
 80 59  2  0  0  0  0
 95 88  1  0  0  0  0
107102  1  0  0  0  0
119115  1  0  0  0  0
 23  7  1  0  0  0  0
 71 64  1  0  0  0  0
 79 72  1  0  0  0  0
120104  1  0  0  0  0
  1121  1  0  0  0  0
  6122  1  0  0  0  0
  9123  1  0  0  0  0
 17124  1  0  0  0  0
 18125  1  0  0  0  0
 19126  1  0  0  0  0
 20127  1  0  0  0  0
 21128  1  0  0  0  0
 22129  1  0  0  0  0
 22130  1  0  0  0  0
 23131  1  0  0  0  0
 33132  1  0  0  0  0
 33133  1  0  0  0  0
 34134  1  0  0  0  0
 34135  1  0  0  0  0
 34136  1  0  0  0  0
 38137  1  0  0  0  0
 38138  1  0  0  0  0
 39139  1  0  0  0  0
 39140  1  0  0  0  0
 39141  1  0  0  0  0
 44142  1  0  0  0  0
 45143  1  0  0  0  0
 48144  1  0  0  0  0
 48145  1  0  0  0  0
 48146  1  0  0  0  0
 49147  1  0  0  0  0
 50148  1  0  0  0  0
 52149  1  0  0  0  0
 53150  1  0  0  0  0
 56151  1  0  0  0  0
 56152  1  0  0  0  0
 56153  1  0  0  0  0
 57154  1  0  0  0  0
 58155  1  0  0  0  0
 65156  1  0  0  0  0
 66157  1  0  0  0  0
 69158  1  0  0  0  0
 69159  1  0  0  0  0
 69160  1  0  0  0  0
 70161  1  0  0  0  0
 71162  1  0  0  0  0
 73163  1  0  0  0  0
 74164  1  0  0  0  0
 77165  1  0  0  0  0
 77166  1  0  0  0  0
 77167  1  0  0  0  0
 78168  1  0  0  0  0
 79169  1  0  0  0  0
 91170  1  0  0  0  0
 91171  1  0  0  0  0
 92172  1  0  0  0  0
 92173  1  0  0  0  0
 92174  1  0  0  0  0
 96175  1  0  0  0  0
 96176  1  0  0  0  0
 97177  1  0  0  0  0
 97178  1  0  0  0  0
 97179  1  0  0  0  0
 98180  1  0  0  0  0
103181  1  0  0  0  0
106182  1  0  0  0  0
114183  1  0  0  0  0
115184  1  0  0  0  0
116185  1  0  0  0  0
117186  1  0  0  0  0
118187  1  0  0  0  0
119188  1  0  0  0  0
119189  1  0  0  0  0
120190  1  0  0  0  0
M  END
