168

C         -0.53780        5.39550        6.23490
C         -1.52950        6.20300        6.71900
C         -2.96150        5.83100        6.80400
O         -3.50110        4.82830        6.38740
C         -3.58350        6.86580        7.65970
C         -4.91770        6.93280        8.05330
C         -5.20760        7.99600        8.87530
C         -4.24130        8.92400        9.28480
C         -2.92060        8.86960        8.90760
C         -2.60690        7.79610        8.06890
C         -1.33540        7.42590        7.45850
C         -0.18130        8.17130        7.45980
C          0.94600        7.85780        6.67620
N          1.87540        7.69360        6.01960
C         -0.00120        9.36890        8.17770
N          0.21230       10.34030        8.75270
C         -5.22990        9.71300       10.10700
C         -5.18050        9.50270       11.63500
C         -6.52540       10.00090       12.11230
C         -7.44170        9.12310       11.72410
C         -6.73120        8.01680       10.97800
C         -5.40440        7.98920       11.74770
C         -6.30830        8.67910        9.64950
C         -0.69420        4.36140        5.28190
C         -1.62840        4.39250        4.22390
C         -1.65420        3.39210        3.17480
N         -2.63600        3.62520        2.29890
S         -3.40810        4.96650        2.72560
N         -2.54260        5.33870        4.01910
C         -0.74430        2.31410        3.12860
C          0.10530        2.21870        4.25610
N          0.99030        1.24700        4.47630
S          1.80330        1.57480        5.82570
N          1.09340        2.96890        6.19190
C          0.16740        3.24260        5.27290
C         -0.62290        1.38470        2.06370
C         -0.90220        1.52530        0.69680
N         -1.23240        2.67220        0.01520
C         -0.78370        3.93870        0.37150
C         -1.53210        5.06930        0.02890
C         -1.14280        6.31650        0.45490
C          0.00890        6.48030        1.22850
S          0.36010        8.11040        1.78020
C          1.87590        7.94230        2.76000
C          0.79450        5.36810        1.51130
C          0.40820        4.11790        1.07470
C         -2.04990        2.50090       -1.12060
C         -1.67630        3.01770       -2.35610
C         -2.43480        2.75120       -3.47750
C         -3.57560        1.96450       -3.37540
S         -4.57060        1.53270       -4.76210
C         -3.39760        1.67720       -6.14120
C         -3.98120        1.49380       -2.12900
C         -3.22370        1.75660       -1.01050
C         -0.68120        0.30310        0.01240
S         -0.85570       -0.18520       -1.63880
C         -0.21150       -1.76990       -1.24690
C          0.03830       -1.93020        0.12620
N          0.37850       -3.09860        0.75770
C          1.14910       -3.01700        1.92820
C          2.23840       -2.15160        1.97980
C          2.95860       -1.99200        3.14650
C          2.59790       -2.70170        4.28360
S          3.40530       -2.53740        5.84150
C          4.51770       -1.12300        5.60050
C          1.53960       -3.60800        4.22080
C          0.82170       -3.76690        3.05720
C         -0.08380       -4.34070        0.30180
C         -1.36120       -4.46230       -0.25180
C         -1.78680       -5.66900       -0.75420
C         -0.95880       -6.79140       -0.70250
S         -1.59950       -8.26120       -1.42570
C         -0.29500       -9.49500       -1.17410
C          0.28860       -6.68730       -0.09720
C          0.71600       -5.47650        0.40680
C         -0.20390       -0.71990        0.81580
S          0.01890       -0.20510        2.45320
C          0.07800       -2.73110       -2.25060
N          0.92230       -3.72700       -1.87490
N          1.23680       -4.70480       -2.62000
C          0.71190       -4.87340       -3.84680
C         -0.17700       -3.90470       -4.32440
C         -1.01400       -3.83910       -5.55050
O         -1.20380       -4.66530       -6.40570
N         -1.62250       -2.59580       -5.49980
C         -2.50360       -2.10510       -6.53810
C         -3.95070       -2.05590       -6.06320
C         -1.31260       -1.88420       -4.35590
O         -1.67980       -0.75600       -4.12740
C         -0.44070       -2.77820       -3.55640
C          1.13900       -6.03160       -4.58780
C          1.46750       -6.02160       -5.89980
C          1.62560       -4.79430       -6.73190
O          1.47280       -3.63890       -6.39050
C          2.08740       -5.26000       -8.04610
C          2.37550       -4.46520       -9.15420
C          2.77840       -5.17140      -10.26090
C          2.89560       -6.56900      -10.26480
C          2.62440       -7.36420       -9.17750
C          2.20680       -6.66590       -8.03960
C          1.84450       -7.16400       -6.71810
C          1.84260       -8.47670       -6.32840
C          1.51490       -8.94910       -5.04050
N          1.28160       -9.42630       -4.02200
C          2.18830       -9.56130       -7.16330
N          2.45710      -10.49100       -7.78050
C          3.33510       -6.60710      -11.70650
C          2.28890       -7.03630      -12.76500
C          0.93530       -6.68870      -12.19630
C          0.82460       -5.36700      -12.19330
C          2.10160       -4.79680      -12.75990
C          2.45960       -5.89210      -13.77710
C          3.20440       -5.05120      -11.70230
H          0.46920        5.51100        6.61970
H         -5.63240        6.19890        7.71500
H         -2.18360        9.58580        9.23160
H         -5.35590       10.75660        9.82480
H         -4.30300        9.91780       12.12350
H         -6.67370       10.93750       12.61710
H         -8.50820        9.18020       11.83980
H         -7.26700        7.07760       10.86910
H         -5.53390        7.66800       12.78000
H         -4.62950        7.38950       11.27400
H         -7.15360        9.03420        9.06280
H         -2.44600        4.95060       -0.53230
H         -1.73620        7.18490        0.21370
H          1.70240        7.30250        3.62030
H          2.11170        8.94460        3.10370
H          2.68210        7.56960        2.13520
H          1.70870        5.46400        2.07450
H          1.03710        3.26740        1.29100
H         -0.77740        3.61070       -2.43750
H         -2.12070        3.15060       -4.42790
H         -2.47140        1.19050       -5.85130
H         -3.85500        1.16100       -6.97940
H         -3.23690        2.72020       -6.39880
H         -4.88550        0.90970       -2.05480
H         -3.52170        1.38430       -0.04200
H          2.51910       -1.60140        1.09430
H          3.79470       -1.31260        3.15310
H          5.32350       -1.39090        4.92300
H          3.95100       -0.27390        5.22950
H          4.92410       -0.89800        6.58160
H          1.27800       -4.16930        5.10460
H         -0.01070       -4.45330        3.01940
H         -2.01070       -3.60050       -0.29900
H         -2.76730       -5.76180       -1.19660
H         -0.10100       -9.61730       -0.11260
H         -0.68990      -10.41800       -1.58720
H          0.59720       -9.20940       -1.72190
H          0.94390       -7.54010       -0.03160
H          1.69700       -5.39450        0.84740
H         -2.39500       -2.78970       -7.38280
H         -2.16410       -1.10800       -6.83190
H         -4.05140       -1.37220       -5.22400
H         -4.59100       -1.71240       -6.87070
H         -4.28040       -3.04550       -5.75530
H          1.24360       -6.93280       -4.00060
H          2.27420       -3.39230       -9.10560
H          2.72540       -8.43630       -9.19670
H          4.31670       -7.03700      -11.89470
H          2.40920       -8.05200      -13.13150
H          0.24240       -7.41440      -11.81290
H          0.02080       -4.76880      -11.80610
H          2.05190       -3.77350      -13.12280
H          1.74970       -5.94940      -14.60070
H          3.47210       -5.80650      -14.16900
H          4.10140       -4.46330      -11.88740
