189

C         -4.47480       -3.56720        6.23650
C         -4.43850       -2.75640        7.35170
C         -3.32300       -1.84890        7.65620
O         -2.33800       -1.62360        6.97550
C         -3.56870       -1.34990        9.02400
C         -2.75430       -0.49400        9.75790
C         -3.23780       -0.19870       11.01020
C         -4.43860       -0.72450       11.50110
C         -5.24310       -1.58600       10.78970
C         -4.77420       -1.89070        9.50930
C         -5.34560       -2.74600        8.46730
C         -6.59900       -3.30800        8.48550
C         -7.50860       -3.17170        9.55040
N         -8.28370       -3.07580       10.39300
C         -7.14840       -4.02940        7.40750
N         -7.65720       -4.61020        6.55740
C         -4.29690       -0.01640       12.82760
C         -5.14480        1.25610       13.07610
C         -5.42640        1.85980       11.72360
C         -4.28760        2.34940       11.25190
C         -3.21600        2.09200       12.28200
C         -4.04520        2.21000       13.57100
C         -2.95640        0.56610       12.27880
C         -3.79330       -3.31880        5.04000
C         -3.36130       -2.10600        4.46640
N         -3.73260       -0.85260        4.85950
C         -4.92580       -0.62810        5.56130
C         -4.94810        0.25210        6.63960
C         -6.10190        0.42660        7.38180
C         -7.25530       -0.27020        7.04540
S         -8.76570       -0.18190        7.94390
C         -8.27050        0.56640        9.51990
C         -7.25310       -1.09940        5.92090
C         -6.10380       -1.28020        5.19060
C         -2.94900        0.26150        4.50600
C         -3.55860        1.40190        3.98550
C         -2.79010        2.47760        3.60090
C         -1.40260        2.43810        3.73220
S         -0.52010        3.85970        3.17350
C          1.22060        3.35510        3.27240
C         -0.79900        1.31870        4.29000
C         -1.56840        0.23810        4.67320
C         -2.59500       -2.35150        3.30360
S         -1.80500       -1.31590        2.16770
C         -1.29350       -2.70700        1.24370
C         -1.79160       -3.90630        1.73000
N         -1.69160       -5.11960        1.07740
C         -1.58550       -5.13420       -0.32400
C         -2.37830       -4.28600       -1.09910
C         -2.14480       -4.15940       -2.45000
C         -1.12500       -4.88680       -3.05990
S         -0.81120       -4.55880       -4.76660
C          0.90710       -5.11330       -4.97490
C         -0.40920       -5.81320       -2.31330
C         -0.63800       -5.93440       -0.95660
C         -1.59090       -6.30950        1.80810
C         -2.15750       -7.48370        1.31120
C         -2.07020       -8.65210        2.03230
C         -1.42510       -8.67560        3.26800
S         -1.38140      -10.23220        4.10030
C         -0.70490       -9.83100        5.73670
C         -0.85060       -7.51250        3.75980
C         -0.92850       -6.34130        3.03120
C         -2.51240       -3.68730        2.93240
S         -3.38110       -4.70840        4.01990
C         -0.49330       -2.48020        0.06570
C         -0.81840       -1.45280       -0.84210
N         -1.80750       -0.55090       -0.81400
N         -1.64560        0.13410       -1.90980
C         -2.55200        1.18270       -2.27840
C         -3.75580        0.60100       -3.01290
N         -0.65430       -0.21320       -2.67930
C         -0.08490       -1.24540       -2.04270
C          1.03470       -2.03480       -2.39520
C          1.32960       -3.02980       -1.48290
C          0.61250       -3.22850       -0.28930
F          1.05650       -4.19230        0.54210
F          2.31960       -3.90930       -1.73560
C          1.75280       -1.70180       -3.60960
C          3.10140       -1.42410       -3.78470
C          4.14760       -1.68560       -2.74510
C          4.91680       -2.98160       -3.01410
C          3.33180       -0.81860       -5.03190
C          2.17060       -0.70640       -5.79500
S          0.77590       -1.29110       -4.99580
C          2.44650        0.01300       -6.97890
C          3.78790        0.40530       -6.96300
C          4.49100       -0.13780       -5.74200
C          5.08630        1.02320       -4.92420
C          4.03670        2.01720       -4.44260
C          5.58030       -1.16620       -6.11640
C          6.55810       -0.69990       -7.18760
C          4.10110        1.28560       -7.98340
C          3.01360        1.55470       -8.80660
S          1.58440        0.64280       -8.31170
C          2.89620        2.42790       -9.90350
C          3.61010        3.57560      -10.12590
C          4.38500        4.32510       -9.11040
O          4.78140        3.94980       -8.02550
C          4.52740        5.69000       -9.65430
C          5.06780        6.79320       -8.99650
C          5.04220        7.95150       -9.73500
C          4.52460        8.00930      -11.03590
C          3.98880        6.92850      -11.69660
C          3.99550        5.74200      -10.95750
C          3.47940        4.41920      -11.29560
C          3.02360        4.02020      -12.52540
C          2.94700        4.85630      -13.65690
N          2.85840        5.48340      -14.61460
C          2.62790        2.70260      -12.83690
N          2.32160        1.64760      -13.17030
C          4.80860        9.48550      -11.16820
C          6.04220        9.88580      -12.00490
C          6.33220       11.30250      -11.56310
C          6.81840       11.24940      -10.32970
C          6.86580        9.79600       -9.91660
C          7.16900        9.14550      -11.27270
C          5.38240        9.42110       -9.71620
H         -5.02330       -4.50000        6.28590
H         -1.83100       -0.11690        9.34580
H         -6.14960       -2.00900       11.19170
H         -4.25120       -0.65790       13.70550
H         -6.00590        1.10610       13.72170
H         -6.38810        1.82620       11.24680
H         -4.10150        2.79970       10.29390
H         -2.32070        2.70360       12.20470
H         -4.41190        3.22050       13.74570
H         -3.52360        1.84980       14.45660
H         -2.03760        0.30170       12.79890
H         -4.05140        0.79240        6.90400
H         -6.08180        1.09910        8.22440
H         -8.06510        1.62480        9.38340
H         -9.11820        0.43530       10.18510
H         -7.40730        0.03690        9.91380
H         -8.16260       -1.60850        5.64240
H         -6.10890       -1.93570        4.33330
H         -4.63210        1.43110        3.87140
H         -3.25290        3.35850        3.18290
H          1.51120        3.21020        4.30860
H          1.78830        4.17520        2.84440
H          1.37420        2.45270        2.68800
H          0.26770        1.27480        4.43670
H         -1.11090       -0.62460        5.13060
H         -3.15200       -3.69780       -0.62850
H         -2.73560       -3.48150       -3.04700
H          1.51010       -4.74710       -4.15000
H          0.95210       -6.19650       -5.04170
H          1.24750       -4.67390       -5.90720
H          0.35080       -6.42540       -2.77150
H         -0.04550       -6.62110       -0.37130
H         -2.66950       -7.46850        0.36080
H         -2.50930       -9.56200        1.65300
H         -0.75070      -10.75440        6.30550
H          0.32780       -9.50620        5.64790
H         -1.31950       -9.07230        6.21180
H         -0.32860       -7.50240        4.70280
H         -0.45390       -5.44740        3.40700
H         -2.86780        1.68320       -1.36120
H         -2.00640        1.87440       -2.92180
H         -3.43490        0.10350       -3.92440
H         -4.44840        1.39590       -3.27150
H         -4.26840       -0.11850       -2.37890
H          4.84920       -0.85030       -2.72930
H          3.67940       -1.74470       -1.76110
H          5.40050       -2.95240       -3.98540
H          4.25040       -3.83760       -2.99430
H          5.67690       -3.12270       -2.24970
H          5.62860        0.61670       -4.06860
H          5.80180        1.55200       -5.55400
H          4.50910        2.78870       -3.83940
H          3.55270        2.49860       -5.28860
H          3.27660        1.52520       -3.83940
H          5.08800       -2.07800       -6.46340
H          6.14060       -1.40430       -5.21100
H          7.04130        0.23060       -6.90290
H          6.05430       -0.55710       -8.13960
H          7.33080       -1.45400       -7.32250
H          5.06440        1.72750       -8.14660
H          2.09130        2.19690      -10.59240
H          5.45230        6.70580       -7.99220
H          3.57890        6.98900      -12.69120
H          3.94240       10.11710      -11.35820
H          5.94240        9.71660      -13.07350
H          6.10810       12.17220      -12.15250
H          7.08080       12.06580       -9.68240
H          7.51650        9.54530       -9.08300
H          8.15350        9.41870      -11.64900
H          7.06430        8.06210      -11.27810
H          4.89630       10.00830       -8.93880
