
  xtb     02162212453D
 energy: -344.117829946746 gnorm: 0.000315341857 xtb: 6.4.1 (unknown)
207225  0     0  0            999 V2000
    2.2149    6.9720    0.6486 C   0  0  0  0  0  0  0  0  0  0  0  0
    3.4671    7.4155    1.0119 C   0  0  0  0  0  0  0  0  0  0  0  0
    4.6870    6.6167    1.1250 C   0  0  0  0  0  0  0  0  0  0  0  0
    4.7914    5.3990    1.1041 O   0  0  0  0  0  0  0  0  0  0  0  0
    5.7945    7.5701    1.3054 C   0  0  0  0  0  0  0  0  0  0  0  0
    7.1509    7.2727    1.4149 C   0  0  0  0  0  0  0  0  0  0  0  0
    7.9539    8.3789    1.5598 C   0  0  0  0  0  0  0  0  0  0  0  0
    7.4456    9.6837    1.5930 C   0  0  0  0  0  0  0  0  0  0  0  0
    6.1087    9.9899    1.4871 C   0  0  0  0  0  0  0  0  0  0  0  0
    5.2741    8.8791    1.3407 C   0  0  0  0  0  0  0  0  0  0  0  0
    3.8181    8.7999    1.2262 C   0  0  0  0  0  0  0  0  0  0  0  0
    2.9567    9.8647    1.3396 C   0  0  0  0  0  0  0  0  0  0  0  0
    1.5557    9.7765    1.4303 C   0  0  0  0  0  0  0  0  0  0  0  0
    0.4137    9.8055    1.5669 N   0  0  0  0  0  0  0  0  0  0  0  0
    3.3514   11.2134    1.4394 C   0  0  0  0  0  0  0  0  0  0  0  0
    3.5779   12.3381    1.5000 N   0  0  0  0  0  0  0  0  0  0  0  0
    8.8126   10.2976    1.7662 C   0  0  0  0  0  0  0  0  0  0  0  0
    9.1808   10.7704    3.1885 C   0  0  0  0  0  0  0  0  0  0  0  0
   10.6891   10.8671    3.1580 C   0  0  0  0  0  0  0  0  0  0  0  0
   11.1720    9.6317    3.1245 C   0  0  0  0  0  0  0  0  0  0  0  0
    9.9983    8.6791    3.1323 C   0  0  0  0  0  0  0  0  0  0  0  0
    9.0160    9.4780    3.9987 C   0  0  0  0  0  0  0  0  0  0  0  0
    9.3798    8.8422    1.7278 C   0  0  0  0  0  0  0  0  0  0  0  0
    1.7679    5.6996    0.2959 C   0  0  0  0  0  0  0  0  0  0  0  0
    0.4463    5.4191   -0.1360 C   0  0  0  0  0  0  0  0  0  0  0  0
   -0.5190    6.3425   -0.4324 N   0  0  0  0  0  0  0  0  0  0  0  0
   -0.2280    7.5890   -1.0115 C   0  0  0  0  0  0  0  0  0  0  0  0
   -0.9829    8.7067   -0.6684 C   0  0  0  0  0  0  0  0  0  0  0  0
   -0.6647    9.9500   -1.1791 C   0  0  0  0  0  0  0  0  0  0  0  0
    0.4278   10.0965   -2.0220 C   0  0  0  0  0  0  0  0  0  0  0  0
    0.9847   11.6565   -2.6270 S   0  0  0  0  0  0  0  0  0  0  0  0
    0.2796   12.8291   -1.4332 C   0  0  0  0  0  0  0  0  0  0  0  0
    1.1419    8.9669   -2.4228 C   0  0  0  0  0  0  0  0  0  0  0  0
    0.8116    7.7243   -1.9345 C   0  0  0  0  0  0  0  0  0  0  0  0
   -1.8693    5.9889   -0.2402 C   0  0  0  0  0  0  0  0  0  0  0  0
   -2.2697    5.4005    0.9552 C   0  0  0  0  0  0  0  0  0  0  0  0
   -3.5869    5.0395    1.1574 C   0  0  0  0  0  0  0  0  0  0  0  0
   -4.5263    5.2655    0.1594 C   0  0  0  0  0  0  0  0  0  0  0  0
   -6.2293    4.8479    0.2923 S   0  0  0  0  0  0  0  0  0  0  0  0
   -6.3702    4.0611    1.9206 C   0  0  0  0  0  0  0  0  0  0  0  0
   -4.1291    5.8720   -1.0331 C   0  0  0  0  0  0  0  0  0  0  0  0
   -2.8165    6.2317   -1.2334 C   0  0  0  0  0  0  0  0  0  0  0  0
    0.2421    4.0303   -0.2566 C   0  0  0  0  0  0  0  0  0  0  0  0
   -1.1052    3.0560   -0.7411 S   0  0  0  0  0  0  0  0  0  0  0  0
   -0.1281    1.6119   -0.5799 C   0  0  0  0  0  0  0  0  0  0  0  0
    1.1897    1.8799   -0.2376 C   0  0  0  0  0  0  0  0  0  0  0  0
    2.2165    0.9549   -0.2050 N   0  0  0  0  0  0  0  0  0  0  0  0
    2.1734   -0.1960   -1.0017 C   0  0  0  0  0  0  0  0  0  0  0  0
    1.6750   -0.1515   -2.3050 C   0  0  0  0  0  0  0  0  0  0  0  0
    1.4812   -1.3143   -3.0182 C   0  0  0  0  0  0  0  0  0  0  0  0
    1.7982   -2.5449   -2.4517 C   0  0  0  0  0  0  0  0  0  0  0  0
    1.4053   -4.0062   -3.3653 S   0  0  0  0  0  0  0  0  0  0  0  0
    1.0583   -5.1948   -2.0309 C   0  0  0  0  0  0  0  0  0  0  0  0
    2.4098   -2.5843   -1.2057 C   0  0  0  0  0  0  0  0  0  0  0  0
    2.5936   -1.4212   -0.4872 C   0  0  0  0  0  0  0  0  0  0  0  0
    3.3139    1.1841    0.6360 C   0  0  0  0  0  0  0  0  0  0  0  0
    4.6050    0.8862    0.2022 C   0  0  0  0  0  0  0  0  0  0  0  0
    5.6903    1.2111    0.9859 C   0  0  0  0  0  0  0  0  0  0  0  0
    5.5054    1.8431    2.2103 C   0  0  0  0  0  0  0  0  0  0  0  0
    6.9319    2.3436    3.1302 S   0  0  0  0  0  0  0  0  0  0  0  0
    6.3902    3.9830    3.7070 C   0  0  0  0  0  0  0  0  0  0  0  0
    4.2208    2.0756    2.6793 C   0  0  0  0  0  0  0  0  0  0  0  0
    3.1318    1.7450    1.8984 C   0  0  0  0  0  0  0  0  0  0  0  0
    1.3796    3.2695   -0.0230 C   0  0  0  0  0  0  0  0  0  0  0  0
    2.7458    4.2326    0.4147 S   0  0  0  0  0  0  0  0  0  0  0  0
   -0.7032    0.3119   -0.8424 C   0  0  0  0  0  0  0  0  0  0  0  0
   -1.4623    0.0515   -1.9670 C   0  0  0  0  0  0  0  0  0  0  0  0
   -1.7347    1.0368   -2.8388 F   0  0  0  0  0  0  0  0  0  0  0  0
   -1.9299   -1.2304   -2.2678 C   0  0  0  0  0  0  0  0  0  0  0  0
   -2.6739   -1.3803   -3.3798 F   0  0  0  0  0  0  0  0  0  0  0  0
   -1.6719   -2.3186   -1.4574 C   0  0  0  0  0  0  0  0  0  0  0  0
   -0.8760   -2.0887   -0.3019 C   0  0  0  0  0  0  0  0  0  0  0  0
   -0.5218   -3.1294    0.4725 N   0  0  0  0  0  0  0  0  0  0  0  0
    0.1575   -2.9104    1.5715 C   0  0  0  0  0  0  0  0  0  0  0  0
    0.5206   -4.1183    2.3827 C   0  0  0  0  0  0  0  0  0  0  0  0
    1.8913   -4.6692    1.9836 C   0  0  0  0  0  0  0  0  0  0  0  0
    0.5060   -1.5845    1.9553 C   0  0  0  0  0  0  0  0  0  0  0  0
    0.2043   -0.5664    1.1872 N   0  0  0  0  0  0  0  0  0  0  0  0
   -0.4477   -0.7824    0.0308 C   0  0  0  0  0  0  0  0  0  0  0  0
    1.2291   -1.2666    3.2300 C   0  0  0  0  0  0  0  0  0  0  0  0
    0.2549   -1.0666    4.3931 C   0  0  0  0  0  0  0  0  0  0  0  0
   -2.1943   -3.6357   -1.7446 C   0  0  0  0  0  0  0  0  0  0  0  0
   -2.8349   -4.5018   -0.8693 C   0  0  0  0  0  0  0  0  0  0  0  0
   -3.2179   -4.2000    0.4228 N   0  0  0  0  0  0  0  0  0  0  0  0
   -3.3034   -5.2234    1.3792 C   0  0  0  0  0  0  0  0  0  0  0  0
   -4.3216   -5.2005    2.3322 C   0  0  0  0  0  0  0  0  0  0  0  0
   -4.4429   -6.2274    3.2402 C   0  0  0  0  0  0  0  0  0  0  0  0
   -3.5610   -7.3064    3.2105 C   0  0  0  0  0  0  0  0  0  0  0  0
   -3.8120   -8.5882    4.3935 S   0  0  0  0  0  0  0  0  0  0  0  0
   -3.0632  -10.0323    3.5857 C   0  0  0  0  0  0  0  0  0  0  0  0
   -2.5250   -7.3155    2.2866 C   0  0  0  0  0  0  0  0  0  0  0  0
   -2.3942   -6.2781    1.3832 C   0  0  0  0  0  0  0  0  0  0  0  0
   -3.4418   -2.8701    0.8012 C   0  0  0  0  0  0  0  0  0  0  0  0
   -4.0968   -1.9848   -0.0566 C   0  0  0  0  0  0  0  0  0  0  0  0
   -4.1496   -0.6393    0.2357 C   0  0  0  0  0  0  0  0  0  0  0  0
   -3.5629   -0.1560    1.4000 C   0  0  0  0  0  0  0  0  0  0  0  0
   -3.5237    1.5933    1.6503 S   0  0  0  0  0  0  0  0  0  0  0  0
   -1.9568    1.8107    2.5471 C   0  0  0  0  0  0  0  0  0  0  0  0
   -3.0296   -1.0483    2.3201 C   0  0  0  0  0  0  0  0  0  0  0  0
   -2.9696   -2.3939    2.0230 C   0  0  0  0  0  0  0  0  0  0  0  0
   -3.1444   -5.7213   -1.5250 C   0  0  0  0  0  0  0  0  0  0  0  0
   -3.8250   -7.2219   -1.0095 S   0  0  0  0  0  0  0  0  0  0  0  0
   -3.6555   -7.8848   -2.6402 C   0  0  0  0  0  0  0  0  0  0  0  0
   -3.0599   -6.9704   -3.5238 C   0  0  0  0  0  0  0  0  0  0  0  0
   -2.7320   -7.2060   -4.8330 N   0  0  0  0  0  0  0  0  0  0  0  0
   -2.3095   -8.4625   -5.3007 C   0  0  0  0  0  0  0  0  0  0  0  0
   -1.5163   -9.2948   -4.5155 C   0  0  0  0  0  0  0  0  0  0  0  0
   -1.1245  -10.5346   -4.9787 C   0  0  0  0  0  0  0  0  0  0  0  0
   -1.5077  -10.9581   -6.2459 C   0  0  0  0  0  0  0  0  0  0  0  0
   -1.0744  -12.5185   -6.9383 S   0  0  0  0  0  0  0  0  0  0  0  0
   -0.4029  -13.4463   -5.5300 C   0  0  0  0  0  0  0  0  0  0  0  0
   -2.2690  -10.1093   -7.0484 C   0  0  0  0  0  0  0  0  0  0  0  0
   -2.6673   -8.8762   -6.5833 C   0  0  0  0  0  0  0  0  0  0  0  0
   -2.6470   -6.0958   -5.6991 C   0  0  0  0  0  0  0  0  0  0  0  0
   -1.5334   -5.9103   -6.5159 C   0  0  0  0  0  0  0  0  0  0  0  0
   -1.4264   -4.7714   -7.2817 C   0  0  0  0  0  0  0  0  0  0  0  0
   -2.4240   -3.7979   -7.2458 C   0  0  0  0  0  0  0  0  0  0  0  0
   -2.1621   -2.3390   -8.1971 S   0  0  0  0  0  0  0  0  0  0  0  0
   -3.2643   -1.1331   -7.4012 C   0  0  0  0  0  0  0  0  0  0  0  0
   -3.5639   -4.0121   -6.4812 C   0  0  0  0  0  0  0  0  0  0  0  0
   -3.6728   -5.1550   -5.7153 C   0  0  0  0  0  0  0  0  0  0  0  0
   -2.7905   -5.7468   -2.8672 C   0  0  0  0  0  0  0  0  0  0  0  0
   -2.0690   -4.2621   -3.3706 S   0  0  0  0  0  0  0  0  0  0  0  0
   -4.1179   -9.1731   -2.9522 C   0  0  0  0  0  0  0  0  0  0  0  0
   -4.4800  -10.1525   -2.0645 C   0  0  0  0  0  0  0  0  0  0  0  0
   -4.9312  -11.3995   -2.5418 C   0  0  0  0  0  0  0  0  0  0  0  0
   -5.2795  -12.4182   -2.9392 N   0  0  0  0  0  0  0  0  0  0  0  0
   -4.3522  -10.0698   -0.6676 C   0  0  0  0  0  0  0  0  0  0  0  0
   -4.2170  -10.0806    0.4740 N   0  0  0  0  0  0  0  0  0  0  0  0
    1.4490    7.7351    0.6011 H   0  0  0  0  0  0  0  0  0  0  0  0
    7.5021    6.2533    1.3768 H   0  0  0  0  0  0  0  0  0  0  0  0
    5.7341   10.9997    1.5081 H   0  0  0  0  0  0  0  0  0  0  0  0
    9.1204   10.9978    0.9920 H   0  0  0  0  0  0  0  0  0  0  0  0
    8.6403   11.6488    3.5302 H   0  0  0  0  0  0  0  0  0  0  0  0
   11.2298   11.7939    3.1086 H   0  0  0  0  0  0  0  0  0  0  0  0
   12.1968    9.3202    3.0416 H   0  0  0  0  0  0  0  0  0  0  0  0
   10.2040    7.6523    3.4235 H   0  0  0  0  0  0  0  0  0  0  0  0
    9.3661    9.5875    5.0238 H   0  0  0  0  0  0  0  0  0  0  0  0
    8.0020    9.0819    4.0004 H   0  0  0  0  0  0  0  0  0  0  0  0
   10.0649    8.5714    0.9266 H   0  0  0  0  0  0  0  0  0  0  0  0
   -1.8062    8.6063    0.0211 H   0  0  0  0  0  0  0  0  0  0  0  0
   -1.2583   10.7994   -0.8855 H   0  0  0  0  0  0  0  0  0  0  0  0
    0.8079   13.7641   -1.5906 H   0  0  0  0  0  0  0  0  0  0  0  0
    0.4582   12.4673   -0.4249 H   0  0  0  0  0  0  0  0  0  0  0  0
   -0.7810   12.9696   -1.6209 H   0  0  0  0  0  0  0  0  0  0  0  0
    1.9611    9.0817   -3.1159 H   0  0  0  0  0  0  0  0  0  0  0  0
    1.3734    6.8547   -2.2413 H   0  0  0  0  0  0  0  0  0  0  0  0
   -1.5387    5.2416    1.7354 H   0  0  0  0  0  0  0  0  0  0  0  0
   -3.8691    4.5863    2.0931 H   0  0  0  0  0  0  0  0  0  0  0  0
   -7.4096    3.7608    2.0091 H   0  0  0  0  0  0  0  0  0  0  0  0
   -5.7257    3.1881    1.9627 H   0  0  0  0  0  0  0  0  0  0  0  0
   -6.1271    4.7770    2.7004 H   0  0  0  0  0  0  0  0  0  0  0  0
   -4.8661    6.0478   -1.8012 H   0  0  0  0  0  0  0  0  0  0  0  0
   -2.5115    6.6935   -2.1603 H   0  0  0  0  0  0  0  0  0  0  0  0
    1.4168    0.7998   -2.7455 H   0  0  0  0  0  0  0  0  0  0  0  0
    1.0684   -1.2832   -4.0148 H   0  0  0  0  0  0  0  0  0  0  0  0
    0.4710   -5.9874   -2.4846 H   0  0  0  0  0  0  0  0  0  0  0  0
    1.9850   -5.6074   -1.6410 H   0  0  0  0  0  0  0  0  0  0  0  0
    0.4840   -4.6995   -1.2516 H   0  0  0  0  0  0  0  0  0  0  0  0
    2.7313   -3.5221   -0.7824 H   0  0  0  0  0  0  0  0  0  0  0  0
    3.0412   -1.4584    0.4953 H   0  0  0  0  0  0  0  0  0  0  0  0
    4.7502    0.4330   -0.7672 H   0  0  0  0  0  0  0  0  0  0  0  0
    6.6929    1.0106    0.6413 H   0  0  0  0  0  0  0  0  0  0  0  0
    5.7923    3.8916    4.6094 H   0  0  0  0  0  0  0  0  0  0  0  0
    5.8262    4.4559    2.9082 H   0  0  0  0  0  0  0  0  0  0  0  0
    7.2927    4.5462    3.9231 H   0  0  0  0  0  0  0  0  0  0  0  0
    4.0645    2.5245    3.6477 H   0  0  0  0  0  0  0  0  0  0  0  0
    2.1304    1.9345    2.2564 H   0  0  0  0  0  0  0  0  0  0  0  0
   -0.2358   -4.8847    2.2045 H   0  0  0  0  0  0  0  0  0  0  0  0
    0.5211   -3.8720    3.4443 H   0  0  0  0  0  0  0  0  0  0  0  0
    1.8689   -5.0109    0.9525 H   0  0  0  0  0  0  0  0  0  0  0  0
    2.1522   -5.5108    2.6203 H   0  0  0  0  0  0  0  0  0  0  0  0
    2.6635   -3.9087    2.0805 H   0  0  0  0  0  0  0  0  0  0  0  0
    1.7939   -0.3457    3.0766 H   0  0  0  0  0  0  0  0  0  0  0  0
    1.9293   -2.0659    3.4729 H   0  0  0  0  0  0  0  0  0  0  0  0
   -0.3749   -1.9427    4.5340 H   0  0  0  0  0  0  0  0  0  0  0  0
    0.8070   -0.8859    5.3120 H   0  0  0  0  0  0  0  0  0  0  0  0
   -0.3832   -0.2085    4.2006 H   0  0  0  0  0  0  0  0  0  0  0  0
   -5.0247   -4.3807    2.3395 H   0  0  0  0  0  0  0  0  0  0  0  0
   -5.2375   -6.2196    3.9700 H   0  0  0  0  0  0  0  0  0  0  0  0
   -3.4335  -10.8968    4.1278 H   0  0  0  0  0  0  0  0  0  0  0  0
   -1.9801   -9.9902    3.6627 H   0  0  0  0  0  0  0  0  0  0  0  0
   -3.3927  -10.0690    2.5517 H   0  0  0  0  0  0  0  0  0  0  0  0
   -1.8149   -8.1262    2.2624 H   0  0  0  0  0  0  0  0  0  0  0  0
   -1.5794   -6.2817    0.6735 H   0  0  0  0  0  0  0  0  0  0  0  0
   -4.5369   -2.3545   -0.9707 H   0  0  0  0  0  0  0  0  0  0  0  0
   -4.6253    0.0515   -0.4434 H   0  0  0  0  0  0  0  0  0  0  0  0
   -2.1011    1.6216    3.6077 H   0  0  0  0  0  0  0  0  0  0  0  0
   -1.6682    2.8455    2.3946 H   0  0  0  0  0  0  0  0  0  0  0  0
   -1.2071    1.1480    2.1222 H   0  0  0  0  0  0  0  0  0  0  0  0
   -2.6395   -0.6969    3.2619 H   0  0  0  0  0  0  0  0  0  0  0  0
   -2.5229   -3.0821    2.7252 H   0  0  0  0  0  0  0  0  0  0  0  0
   -1.2082   -8.9708   -3.5320 H   0  0  0  0  0  0  0  0  0  0  0  0
   -0.5116  -11.1558   -4.3461 H   0  0  0  0  0  0  0  0  0  0  0  0
   -0.2543  -14.4585   -5.8929 H   0  0  0  0  0  0  0  0  0  0  0  0
    0.5493  -13.0255   -5.2196 H   0  0  0  0  0  0  0  0  0  0  0  0
   -1.1225  -13.4476   -4.7166 H   0  0  0  0  0  0  0  0  0  0  0  0
   -2.5527  -10.4371   -8.0362 H   0  0  0  0  0  0  0  0  0  0  0  0
   -3.2669   -8.2273   -7.2038 H   0  0  0  0  0  0  0  0  0  0  0  0
   -0.7445   -6.6471   -6.5217 H   0  0  0  0  0  0  0  0  0  0  0  0
   -0.5547   -4.6076   -7.8955 H   0  0  0  0  0  0  0  0  0  0  0  0
   -3.1349   -1.1830   -6.3242 H   0  0  0  0  0  0  0  0  0  0  0  0
   -4.2965   -1.3157   -7.6858 H   0  0  0  0  0  0  0  0  0  0  0  0
   -2.9517   -0.1607   -7.7690 H   0  0  0  0  0  0  0  0  0  0  0  0
   -4.3686   -3.2956   -6.4705 H   0  0  0  0  0  0  0  0  0  0  0  0
   -4.5551   -5.3172   -5.1130 H   0  0  0  0  0  0  0  0  0  0  0  0
   -4.1914   -9.4211   -4.0040 H   0  0  0  0  0  0  0  0  0  0  0  0
  1  2  2  0  0  0  0
  2  3  1  0  0  0  0
  3  4  2  0  0  0  0
  3  5  1  0  0  0  0
  5  6  2  0  0  0  0
  6  7  1  0  0  0  0
  7  8  2  0  0  0  0
  8  9  1  0  0  0  0
  9 10  2  0  0  0  0
 10 11  1  0  0  0  0
 11 12  2  0  0  0  0
 12 13  1  0  0  0  0
 13 14  3  0  0  0  0
 12 15  1  0  0  0  0
 15 16  3  0  0  0  0
  8 17  1  0  0  0  0
 17 18  1  0  0  0  0
 18 19  1  0  0  0  0
 19 20  2  0  0  0  0
 20 21  1  0  0  0  0
 21 22  1  0  0  0  0
 21 23  1  0  0  0  0
  1 24  1  0  0  0  0
 24 25  2  0  0  0  0
 25 26  1  0  0  0  0
 26 27  1  0  0  0  0
 27 28  2  0  0  0  0
 28 29  1  0  0  0  0
 29 30  2  0  0  0  0
 30 31  1  0  0  0  0
 31 32  1  0  0  0  0
 30 33  1  0  0  0  0
 33 34  2  0  0  0  0
 26 35  1  0  0  0  0
 35 36  2  0  0  0  0
 36 37  1  0  0  0  0
 37 38  2  0  0  0  0
 38 39  1  0  0  0  0
 39 40  1  0  0  0  0
 38 41  1  0  0  0  0
 41 42  2  0  0  0  0
 25 43  1  0  0  0  0
 43 44  1  0  0  0  0
 44 45  1  0  0  0  0
 45 46  2  0  0  0  0
 46 47  1  0  0  0  0
 47 48  1  0  0  0  0
 48 49  2  0  0  0  0
 49 50  1  0  0  0  0
 50 51  2  0  0  0  0
 51 52  1  0  0  0  0
 52 53  1  0  0  0  0
 51 54  1  0  0  0  0
 54 55  2  0  0  0  0
 47 56  1  0  0  0  0
 56 57  2  0  0  0  0
 57 58  1  0  0  0  0
 58 59  2  0  0  0  0
 59 60  1  0  0  0  0
 60 61  1  0  0  0  0
 59 62  1  0  0  0  0
 62 63  2  0  0  0  0
 46 64  1  0  0  0  0
 64 65  1  0  0  0  0
 45 66  1  0  0  0  0
 66 67  2  0  0  0  0
 67 68  1  0  0  0  0
 67 69  1  0  0  0  0
 69 70  1  0  0  0  0
 69 71  2  0  0  0  0
 71 72  1  0  0  0  0
 72 73  2  0  0  0  0
 73 74  1  0  0  0  0
 74 75  1  0  0  0  0
 75 76  1  0  0  0  0
 74 77  2  0  0  0  0
 77 78  1  0  0  0  0
 78 79  2  0  0  0  0
 77 80  1  0  0  0  0
 80 81  1  0  0  0  0
 71 82  1  0  0  0  0
 82 83  2  0  0  0  0
 83 84  1  0  0  0  0
 84 85  1  0  0  0  0
 85 86  2  0  0  0  0
 86 87  1  0  0  0  0
 87 88  2  0  0  0  0
 88 89  1  0  0  0  0
 89 90  1  0  0  0  0
 88 91  1  0  0  0  0
 91 92  2  0  0  0  0
 84 93  1  0  0  0  0
 93 94  2  0  0  0  0
 94 95  1  0  0  0  0
 95 96  2  0  0  0  0
 96 97  1  0  0  0  0
 97 98  1  0  0  0  0
 96 99  1  0  0  0  0
 99100  2  0  0  0  0
 83101  1  0  0  0  0
101102  1  0  0  0  0
102103  1  0  0  0  0
103104  2  0  0  0  0
104105  1  0  0  0  0
105106  1  0  0  0  0
106107  2  0  0  0  0
107108  1  0  0  0  0
108109  2  0  0  0  0
109110  1  0  0  0  0
110111  1  0  0  0  0
109112  1  0  0  0  0
112113  2  0  0  0  0
105114  1  0  0  0  0
114115  2  0  0  0  0
115116  1  0  0  0  0
116117  2  0  0  0  0
117118  1  0  0  0  0
118119  1  0  0  0  0
117120  1  0  0  0  0
120121  2  0  0  0  0
104122  1  0  0  0  0
122123  1  0  0  0  0
103124  1  0  0  0  0
124125  2  0  0  0  0
125126  1  0  0  0  0
126127  3  0  0  0  0
125128  1  0  0  0  0
128129  3  0  0  0  0
 11  2  1  0  0  0  0
 23 17  1  0  0  0  0
 65 24  1  0  0  0  0
 79 66  1  0  0  0  0
123 82  1  0  0  0  0
 10  5  1  0  0  0  0
 22 18  1  0  0  0  0
 34 27  1  0  0  0  0
 42 35  1  0  0  0  0
 64 43  2  0  0  0  0
 79 72  1  0  0  0  0
 92 85  1  0  0  0  0
100 93  1  0  0  0  0
122101  2  0  0  0  0
 23  7  1  0  0  0  0
 55 48  1  0  0  0  0
 63 56  1  0  0  0  0
113106  1  0  0  0  0
121114  1  0  0  0  0
  1130  1  0  0  0  0
  6131  1  0  0  0  0
  9132  1  0  0  0  0
 17133  1  0  0  0  0
 18134  1  0  0  0  0
 19135  1  0  0  0  0
 20136  1  0  0  0  0
 21137  1  0  0  0  0
 22138  1  0  0  0  0
 22139  1  0  0  0  0
 23140  1  0  0  0  0
 28141  1  0  0  0  0
 29142  1  0  0  0  0
 32143  1  0  0  0  0
 32144  1  0  0  0  0
 32145  1  0  0  0  0
 33146  1  0  0  0  0
 34147  1  0  0  0  0
 36148  1  0  0  0  0
 37149  1  0  0  0  0
 40150  1  0  0  0  0
 40151  1  0  0  0  0
 40152  1  0  0  0  0
 41153  1  0  0  0  0
 42154  1  0  0  0  0
 49155  1  0  0  0  0
 50156  1  0  0  0  0
 53157  1  0  0  0  0
 53158  1  0  0  0  0
 53159  1  0  0  0  0
 54160  1  0  0  0  0
 55161  1  0  0  0  0
 57162  1  0  0  0  0
 58163  1  0  0  0  0
 61164  1  0  0  0  0
 61165  1  0  0  0  0
 61166  1  0  0  0  0
 62167  1  0  0  0  0
 63168  1  0  0  0  0
 75169  1  0  0  0  0
 75170  1  0  0  0  0
 76171  1  0  0  0  0
 76172  1  0  0  0  0
 76173  1  0  0  0  0
 80174  1  0  0  0  0
 80175  1  0  0  0  0
 81176  1  0  0  0  0
 81177  1  0  0  0  0
 81178  1  0  0  0  0
 86179  1  0  0  0  0
 87180  1  0  0  0  0
 90181  1  0  0  0  0
 90182  1  0  0  0  0
 90183  1  0  0  0  0
 91184  1  0  0  0  0
 92185  1  0  0  0  0
 94186  1  0  0  0  0
 95187  1  0  0  0  0
 98188  1  0  0  0  0
 98189  1  0  0  0  0
 98190  1  0  0  0  0
 99191  1  0  0  0  0
100192  1  0  0  0  0
107193  1  0  0  0  0
108194  1  0  0  0  0
111195  1  0  0  0  0
111196  1  0  0  0  0
111197  1  0  0  0  0
112198  1  0  0  0  0
113199  1  0  0  0  0
115200  1  0  0  0  0
116201  1  0  0  0  0
119202  1  0  0  0  0
119203  1  0  0  0  0
119204  1  0  0  0  0
120205  1  0  0  0  0
121206  1  0  0  0  0
124207  1  0  0  0  0
M  END
