106

C          5.54790       -1.87100       -4.80490
C          5.82210       -1.11620       -5.90040
C          6.53300       -1.73570       -7.05660
O          7.12480       -2.79040       -7.06200
C          6.30840       -0.81620       -8.18840
C          6.66250       -1.01630       -9.52100
C          6.29460        0.00900      -10.35870
C          5.61980        1.15230       -9.90840
C          5.27240        1.36840       -8.59630
C          5.64120        0.33870       -7.72730
C          5.47050        0.23280       -6.28130
C          5.24360        1.28000       -5.42760
C          4.94360        2.59320       -5.83930
N          4.66620        3.67470       -6.10810
C          5.34180        1.17880       -4.02560
N          5.43240        1.15750       -2.88120
C          5.54830        1.75180      -11.29020
C          4.19790        1.66920      -12.04400
C          3.47610        0.46090      -11.50120
C          4.11680       -0.61910      -11.92790
C          5.28390       -0.16050      -12.76680
C          4.68600        1.11090      -13.39030
C          6.30270        0.48020      -11.79170
C          4.60600       -1.65570       -3.75940
C          4.76880       -2.30640       -2.51950
C          3.87400       -2.09910       -1.39770
N          4.24250       -2.83020       -0.33760
S          5.56940       -3.63980       -0.69840
N          5.75980       -3.14670       -2.21200
C          2.75140       -1.26020       -1.47350
C          2.52420       -0.69610       -2.74110
N          1.49170        0.08620       -3.07870
S          1.63290        0.52150       -4.60800
N          3.00170       -0.24180       -4.94980
C          3.43520       -0.87740       -3.85670
C          1.90370       -0.97680       -0.33360
C          0.53520       -0.82410       -0.47010
C         -0.28040       -0.50960        0.61160
C          0.23210       -0.34380        1.88550
C          1.63010       -0.53800        2.07900
N          2.15010       -0.54590        3.31750
C          3.43960       -0.65750        3.45580
C          4.29020       -0.70320        2.33150
N          3.80530       -0.81060        1.12910
C          2.47360       -0.80180        0.96130
C         -0.62260        0.01370        2.99830
C         -0.22580        0.91440        3.99840
C         -1.09560        1.28830        5.09660
N         -0.51260        2.17380        5.90910
S          0.94730        2.51330        5.34170
N          0.93840        1.57420        4.05280
C         -2.41920        0.82110        5.21890
C         -2.80200       -0.11070        4.23370
N         -3.96820       -0.76120        4.17550
S         -3.96640       -1.73090        2.89730
N         -2.50380       -1.40110        2.34710
C         -1.92320       -0.49690        3.14550
C         -3.23770        1.27040        6.29380
C         -4.59140        1.32980        6.38690
C         -5.22810        1.45610        7.72970
O         -4.67840        1.74550        8.76740
C         -6.64510        1.10110        7.52310
C         -7.62700        0.94930        8.49970
C         -8.85780        0.58970        8.00570
C         -9.09950        0.39350        6.63890
C         -8.14310        0.54550        5.66360
C         -6.88400        0.91250        6.14500
C         -5.65180        1.19420        5.41430
C         -5.57130        1.49310        4.07930
C         -4.42040        2.01400        3.45650
N         -3.52280        2.46060        2.89620
C         -6.63830        1.36990        3.16760
N         -7.45140        1.26110        2.36360
C        -10.54630        0.03290        6.86490
C        -10.93630       -1.46410        6.79320
C         -9.69770       -2.24630        7.15330
C         -9.46540       -2.06360        8.44620
C        -10.54330       -1.15540        8.98410
C        -11.72700       -1.59010        8.10520
C        -10.27650        0.24890        8.38740
H          6.09780       -2.80460       -4.73270
H          7.18070       -1.91100       -9.82880
H          4.74890        2.24840       -8.26030
H          6.03500        2.71680      -11.41620
H          3.63370        2.59790      -12.06170
H          2.63440        0.51480      -10.83580
H          3.91730       -1.64760      -11.69030
H          5.70820       -0.89780      -13.44320
H          5.42550        1.74320      -13.87970
H          3.86980        0.89840      -14.07920
H          7.28280        0.61520      -12.24490
H          0.09070       -0.94720       -1.44480
H         -1.33840       -0.37400        0.45290
H          3.82370       -0.70330        4.46560
H          5.36660       -0.66640        2.42650
H         -2.69430        1.58170        7.18080
H         -7.40190        1.11150        9.54210
H         -8.33720        0.38500        4.61590
H        -11.27790        0.67650        6.38060
H        -11.43930       -1.75600        5.87530
H         -9.10290       -2.78740        6.44110
H         -8.63750       -2.42170        9.02960
H        -10.68820       -1.16830       10.06110
H        -12.04890       -2.61070        8.30670
H        -12.58090       -0.91670        8.16350
H        -10.83600        1.02960        8.89880
