237

C          3.53140       -4.96030        5.61640
C          4.77920       -5.49950        5.71410
C          5.05470       -6.49620        6.77350
O          4.23370       -7.04250        7.48380
C          6.51710       -6.67810        6.77950
C          7.27090       -7.43900        7.67050
C          8.62420       -7.40460        7.43310
C          9.18940       -6.66860        6.38390
C          8.45770       -5.92310        5.49010
C          7.07870       -5.94100        5.71510
C          5.99370       -5.31790        4.95500
C          6.09280       -4.89170        3.65210
C          4.98890       -4.63670        2.81520
N          4.12970       -4.50570        2.06330
C          7.30340       -4.77840        2.94600
N          8.26460       -4.61940        2.33540
C         10.59370       -7.09210        6.73570
C         11.22600       -8.18490        5.84800
C         12.35780       -8.72580        6.69160
C         11.82260       -9.42580        7.68360
C         10.32000       -9.36980        7.52720
C         10.21540       -9.32950        5.99720
C          9.96330       -7.91610        7.90410
C          3.09240       -3.84770        4.86770
C          1.83710       -3.69230        4.27410
N          0.83380       -4.62630        4.30630
C         -0.50820       -4.25290        4.16980
C         -0.98650       -3.06310        4.72420
C         -2.30870       -2.71020        4.57680
C         -3.18980       -3.54370        3.89000
S         -4.85760       -2.98850        3.76900
C         -5.69410       -4.29620        2.82650
C         -2.72550       -4.74210        3.36330
C         -1.39660       -5.09020        3.50110
C          1.15940       -5.99370        4.46870
C          2.09400       -6.58560        3.62280
C          2.53950       -7.86410        3.88090
C          2.05330       -8.56440        4.97980
S          2.75700      -10.14540        5.34020
C          2.80660      -10.09770        7.15850
C          1.04500       -8.01230        5.76010
C          0.59550       -6.73260        5.50310
C          1.78070       -2.48540        3.54320
S          0.59800       -1.80150        2.50090
C          1.64360       -0.42240        2.17270
C          2.83840       -0.48100        2.88010
N          3.77820        0.53260        2.95510
C          3.39380        1.88080        2.89270
C          2.15700        2.31410        3.36130
C          1.80430        3.65040        3.30440
C          2.69590        4.58600        2.80130
S          2.35010        6.31070        2.63890
C          0.65690        6.48040        3.27000
C          3.94890        4.16220        2.35770
C          4.28650        2.82990        2.38920
C          5.09770        0.22930        3.33240
C          5.74100       -0.89880        2.83070
C          7.03930       -1.19430        3.20310
C          7.71720       -0.36750        4.08610
S          9.38730       -0.64550        4.59380
C          9.54570       -2.45030        4.47340
C          7.07750        0.76060        4.59360
C          5.78270        1.05110        4.22970
C          2.91710       -1.69410        3.61700
S          4.13540       -2.45190        4.58650
C          1.04000        0.55020        1.31150
C          1.49010        1.30060        0.23420
N          2.77890        1.36890       -0.25870
C          3.63810        0.26040       -0.25720
C          3.14620       -1.04350       -0.33040
C          4.01110       -2.11530       -0.35780
C          5.39080       -1.91630       -0.34250
S          6.39520       -3.36500       -0.36680
C          8.09360       -2.72650       -0.38650
C          5.88660       -0.61920       -0.28510
C          5.01770        0.45130       -0.22530
C          3.16480        2.54680       -0.92320
C          2.75940        3.78510       -0.43370
C          3.13960        4.95900       -1.05260
C          3.93230        4.91500       -2.18990
S          4.49830        6.34230       -3.05700
C          3.72490        7.72420       -2.16970
C          4.31990        3.67710       -2.70250
C          3.94020        2.50840       -2.08290
C          0.40590        1.98890       -0.38170
S          0.26030        2.96480       -1.80590
C         -1.47850        3.07010       -1.58230
C         -1.92430        2.33640       -0.49110
N         -3.24570        2.09780       -0.15820
C         -3.56190        1.84930        1.18480
C         -2.96030        2.59630        2.19410
C         -3.19660        2.30780        3.52440
C         -4.04920        1.26760        3.86500
S         -4.38930        0.76320        5.52110
C         -3.25380        1.76790        6.52330
C         -4.69450        0.55100        2.85780
C         -4.45400        0.83480        1.53360
C         -4.21950        1.94190       -1.15760
C         -5.50060        2.46420       -0.97680
C         -6.42100        2.41160       -1.99930
C         -6.08450        1.85070       -3.23020
S         -7.30190        1.96040       -4.50240
C         -6.48740        1.25830       -5.96110
C         -4.83460        1.26700       -3.39070
C         -3.91750        1.30660       -2.35940
C         -0.82980        1.75350        0.19250
S         -0.70840        0.68560        1.53730
C         -2.31690        3.74940       -2.51660
C         -3.45340        4.44760       -2.22750
C         -4.24250        4.74300       -3.36140
C         -5.51110        5.35170       -3.39390
C         -6.06820        5.96720       -2.20520
S         -7.69650        5.65480       -1.68410
C         -7.53720        6.68120       -0.30100
C         -8.64610        6.82380        0.68170
C         -8.65830        5.65200        1.66660
C         -6.29000        7.23020       -0.25940
Cl        -5.75750        8.30840        0.96560
C         -5.45720        6.83400       -1.33860
Cl        -3.87820        7.46990       -1.55810
C         -6.20340        5.28930       -4.59660
C         -5.64470        4.72430       -5.77340
C         -4.31520        4.24750       -5.77160
C         -3.70500        3.74790       -6.98900
S         -2.90590        2.20280       -7.04350
C         -2.52930        2.36650       -8.72260
C         -1.74390        1.32590       -9.43990
C         -0.24260        1.53850       -9.22930
C         -2.98520        3.56100       -9.19610
C         -3.65990        4.34260       -8.22100
Cl        -4.27020        5.91000       -8.56040
Cl        -2.78300        4.08690      -10.81640
C         -3.66330        4.23050       -4.55040
S         -2.10430        3.51830       -4.24170
C         -6.57820        4.64080       -6.82170
C         -7.81140        5.15470       -6.50250
S         -7.83380        5.81000       -4.86710
C         -8.99340        5.27330       -7.26470
C         -9.37300        4.59790       -8.39260
C         -8.77300        3.36180       -8.94560
O         -7.75440        2.79060       -8.61130
C         -9.71620        2.89080       -9.97840
C         -9.63540        1.75300      -10.75930
C        -10.64820        1.50290      -11.67080
C        -11.71190        2.39030      -11.77270
Br       -13.09430        2.02020      -13.02190
C        -11.80790        3.53860      -10.99560
C        -10.79120        3.78840      -10.08860
C        -10.58310        4.88470       -9.14410
C        -11.35720        6.01100       -9.05910
C        -12.51240        6.23560       -9.83860
N        -13.46020        6.47520      -10.43990
C        -11.10590        7.12110       -8.22310
N        -10.97000        8.07210       -7.59420
H          2.78690       -5.44830        6.23710
H          6.79660       -7.99280        8.46550
H          8.90870       -5.36520        4.68630
H         11.28570       -6.28820        6.97990
H         11.47550       -7.86460        4.84010
H         13.39460       -8.50510        6.51760
H         12.32300       -9.90650        8.50370
H          9.74520      -10.13010        8.04920
H          9.21990       -9.09410        5.62570
H         10.56700      -10.25120        5.53660
H         10.23610       -7.66230        8.92680
H         -0.31810       -2.42570        5.28370
H         -2.68270       -1.79040        4.99930
H         -5.24420       -4.39090        1.84260
H         -6.72530       -3.97080        2.73020
H         -5.65460       -5.23380        3.37310
H         -3.38440       -5.41280        2.83640
H         -1.03830       -6.01830        3.08110
H          2.49660       -6.02150        2.79510
H          3.28380       -8.32190        3.24780
H          3.50920      -10.86890        7.45790
H          3.16240       -9.12000        7.47180
H          1.82680      -10.31460        7.57360
H          0.62500       -8.56710        6.58360
H         -0.16550       -6.28550        6.12620
H          1.46430        1.60960        3.79560
H          0.83250        3.94290        3.66890
H          0.41130        7.53310        3.16930
H         -0.02520        5.88510        2.66970
H          0.61930        6.19270        4.31670
H          4.64320        4.89100        1.96950
H          5.25360        2.51250        2.03200
H          5.22650       -1.54340        2.13620
H          7.51190       -2.07330        2.79540
H          8.70310       -2.90840        4.98310
H          9.59610       -2.77160        3.43700
H         10.47140       -2.70200        4.98160
H          7.60470        1.39690        5.28730
H          5.29050        1.91540        4.64960
H          2.08300       -1.21830       -0.38990
H          3.62900       -3.12340       -0.39460
H          8.72870       -3.60550       -0.34260
H          8.27060       -2.10590        0.48640
H          8.27390       -2.17670       -1.30570
H          6.94680       -0.42700       -0.26900
H          5.41630        1.45270       -0.16720
H          2.13740        3.82950        0.44540
H          2.81380        5.89370       -0.62710
H          4.03160        8.61990       -2.70080
H          4.08580        7.76060       -1.14590
H          2.64390        7.62570       -2.20490
H          4.91860        3.64650       -3.59990
H          4.23730        1.55770       -2.49900
H         -2.29490        3.40620        1.93110
H         -2.70890        2.90140        4.28080
H         -2.23080        1.60470        6.19710
H         -3.52660        2.81750        6.46220
H         -3.37680        1.41710        7.54320
H         -5.36370       -0.24860        3.13310
H         -4.93710        0.26030        0.75800
H         -5.75960        2.92960       -0.03720
H         -7.40670        2.83050       -1.86950
H         -6.40370        0.18040       -5.85750
H         -5.51390        1.71820       -6.09370
H         -7.12160        1.50880       -6.80650
H         -4.55710        0.78260       -4.31300
H         -2.94580        0.85560       -2.49690
H         -3.73660        4.70170       -1.22340
H         -9.59810        6.85930        0.14970
H         -8.51410        7.76010        1.22680
H         -7.72100        5.60980        2.21590
H         -8.79230        4.71340        1.13400
H         -9.47250        5.77000        2.37620
H         -1.97660        1.38280      -10.50470
H         -2.02640        0.33840       -9.07080
H          0.31980        0.77280       -9.75650
H          0.05650        2.51290       -9.60700
H          0.00140        1.48620       -8.17080
H         -6.35960        4.19890       -7.77430
H         -9.70240        5.98600       -6.85970
H         -8.79740        1.08140      -10.65540
H        -10.61950        0.62660      -12.29960
H        -12.65490        4.19550      -11.10700
