250

C          8.33040       -0.29770       -3.57720
C          9.56550       -0.40910       -2.97050
C          9.99330        0.38820       -1.81150
O          9.34200        1.22080       -1.20530
C         11.41900        0.05800       -1.60160
C         12.25830        0.54810       -0.60670
C         13.52380        0.00940       -0.62540
C         13.92810       -0.93830       -1.57270
C         13.11500       -1.41590       -2.57350
C         11.82430       -0.88600       -2.56500
C         10.68010       -1.19130       -3.42020
C         10.62710       -2.18290       -4.37130
C         11.71410       -2.98800       -4.75530
N         12.54510       -3.69730       -5.11300
C          9.44400       -2.58660       -5.01970
N          8.51930       -3.01600       -5.55060
C         15.30820       -1.06240       -0.97930
C         15.60300       -2.30570       -0.10440
C         14.28410       -2.74860        0.47990
C         13.91770       -1.84380        1.37810
C         14.97690       -0.77050        1.41150
C         16.22630       -1.61670        1.12030
C         14.86200        0.00080        0.07330
C          7.15310        0.12250       -2.96020
C          6.76620        0.13790       -1.60120
N          7.39570       -0.48430       -0.56340
C          7.09640       -0.08290        0.75840
C          7.26720        1.24190        1.15120
C          6.98540        1.61010        2.44820
C          6.49980        0.67310        3.35900
S          6.11050        1.25960        4.97730
C          6.09890       -0.25180        5.98260
C          6.32650       -0.64730        2.96570
C          6.64070       -1.02410        1.67490
C          8.27850       -1.55960       -0.72140
C          8.05670       -2.55780       -1.66750
C          8.97090       -3.57590       -1.84760
C         10.13270       -3.61290       -1.08390
S         11.41540       -4.79920       -1.28830
C         10.82850       -5.87580       -2.62400
C         10.32730       -2.65220       -0.09210
C          9.41090       -1.64210        0.09250
C          5.49860        0.74470       -1.45710
S          4.48710        1.10760       -0.09430
C          3.17480        1.57410       -1.16850
C          3.55080        1.53700       -2.50750
N          2.71210        1.85090       -3.57150
C          2.04240        3.07080       -3.61320
C          0.83220        3.19360       -4.30220
C          0.15640        4.39090       -4.31690
C          0.66540        5.50050       -3.64410
S         -0.29180        6.98380       -3.73250
C          0.58450        8.13530       -2.63630
C          1.86590        5.38500       -2.95870
C          2.54550        4.18270       -2.94170
C          2.62590        0.91010       -4.61070
C          2.59140        1.29800       -5.94560
C          2.51860        0.35230       -6.94940
C          2.48440       -0.99970       -6.63440
S          2.39130       -2.29190       -7.82880
C          1.87490       -1.43380       -9.34200
C          2.53610       -1.39120       -5.29890
C          2.60170       -0.44900       -4.29880
C          4.86980        1.06350       -2.65440
S          5.85170        0.69390       -4.02100
C          1.85800        1.66930       -0.66380
C          1.49060        1.66940        0.67890
N          2.35600        2.04020        1.70060
C          2.41020        1.24970        2.85420
C          2.47290        1.81410        4.12410
C          2.53460        1.01340        5.24720
C          2.51900       -0.36810        5.11720
S          2.61860       -1.49290        6.48090
C          2.46670       -0.42380        7.93890
C          2.44180       -0.93810        3.84860
C          2.38930       -0.13930        2.72930
C          3.03020        3.26170        1.59620
C          2.53000        4.28440        0.79220
C          3.21380        5.47570        0.65410
C          4.41510        5.67350        1.31880
S          5.36960        7.15650        1.20560
C          4.68610        7.98530       -0.26010
C          4.90650        4.66510        2.14410
C          4.22800        3.47530        2.27980
C          0.12880        1.33840        0.83470
S         -0.90620        1.06170        2.19370
C         -2.25160        0.74020        1.11330
C         -1.93600        0.93860       -0.22820
N         -2.83140        0.99490       -1.27580
C         -4.17010        1.36500       -1.07760
C         -5.18000        0.77850       -1.84170
C         -6.50280        0.99540       -1.53000
C         -6.85160        1.80340       -0.44980
S         -8.56190        1.86440       -0.02220
C         -8.57720        2.74280        1.56620
C         -5.85560        2.49250        0.22860
C         -4.52900        2.28400       -0.09350
C         -2.37920        0.73620       -2.58070
C         -1.57380       -0.36910       -2.85560
C         -1.11530       -0.59140       -4.13690
C         -1.46400        0.27570       -5.16920
S         -0.84770       -0.10420       -6.77820
C         -1.07520        1.44950       -7.69540
C         -2.28790        1.36270       -4.90400
C         -2.73420        1.59280       -3.61890
C         -0.55380        1.20910       -0.36770
S          0.48120        1.44370       -1.73070
C         -3.51670        0.30830        1.61480
C         -4.23520        0.65110        2.73030
C         -5.51090        0.04290        2.59410
C         -6.70930        0.09490        3.33670
C         -6.89430        0.86980        4.53710
C         -7.90810        0.77300        5.45390
C         -7.80410        1.72460        6.48770
Cl        -8.94280        1.81740        7.77560
C         -6.73690        2.56950        6.37720
C         -6.30590        3.64840        7.30740
C         -5.32110        3.11210        8.34960
S         -5.81450        2.17080        4.97060
C         -7.75330       -0.64610        2.77470
C         -7.66960       -1.38430        1.56100
C         -6.47830       -1.41060        0.80270
C         -6.31620       -2.05050       -0.47230
S         -4.71500       -2.33750       -1.10340
C         -5.33670       -3.00810       -2.56700
C         -4.43920       -3.44650       -3.67150
C         -4.28440       -2.34460       -4.72370
C         -6.70450       -2.98740       -2.54830
C         -7.26710       -2.45790       -1.37280
Cl        -7.66450       -3.56260       -3.85630
C         -5.44210       -0.68640        1.38030
O         -4.23020       -0.52700        0.81220
C         -8.94270       -1.96120        1.38370
C         -9.72630       -1.54420        2.43840
O         -8.99520       -0.74740        3.28360
C        -11.06290       -1.77350        2.83720
C        -12.08370       -2.41600        2.20050
C        -12.11160       -2.95110        0.81650
O        -11.19120       -3.08460        0.03700
C        -13.51960       -3.29120        0.54580
C        -14.04130       -3.76660       -0.65540
C        -15.39610       -3.99130       -0.62680
C        -16.17840       -3.75160        0.51150
C        -15.67660       -3.28260        1.70180
C        -14.29650       -3.05770        1.69750
C        -13.41730       -2.58050        2.76010
C        -13.78520       -2.39770        4.06750
C        -12.92830       -2.02400        5.12540
N        -12.30910       -1.74330        6.05120
C        -15.08890       -2.60650        4.56570
N        -16.12250       -2.74940        5.04460
C        -17.44840       -4.19420       -0.17050
C        -17.99840       -5.60000        0.17520
C        -16.81360       -6.43050        0.60260
C        -16.07190       -6.66110       -0.47250
C        -16.74190       -5.99080       -1.64650
C        -18.21660       -6.14970       -1.24360
C        -16.57630       -4.46500       -1.43700
H          8.25030       -0.52550       -4.63370
H         11.90680        1.27560        0.10860
H         13.44170       -2.13940       -3.30190
H         16.13870       -0.81290       -1.63690
H         16.18860       -3.07590       -0.59870
H         13.74410       -3.61600        0.14650
H         13.01290       -1.80370        1.95710
H         14.99470       -0.13990        2.29700
H         16.45930       -2.31410        1.92370
H         17.10740       -1.02220        0.88200
H         15.39480        0.94980        0.09390
H          7.65730        1.95380        0.44110
H          7.14600        2.62610        2.77220
H          7.00230       -0.82110        5.78700
H          6.09060        0.08140        7.01590
H          5.20950       -0.84000        5.77680
H          5.94060       -1.38500        3.65040
H          6.51800       -2.05240        1.36750
H          7.16660       -2.53640       -2.27810
H          8.77020       -4.32350       -2.59790
H         10.71030       -5.30670       -3.54120
H         11.60730       -6.62010       -2.75780
H          9.90090       -6.35870       -2.33100
H         11.22130       -2.69690        0.50930
H          9.57540       -0.88990        0.84890
H          0.41820        2.32820       -4.79530
H         -0.78470        4.48080       -4.83800
H          0.63670        7.72150       -1.63330
H         -0.01200        9.04230       -2.62950
H          1.57380        8.35010       -3.03060
H          2.29170        6.22770       -2.43860
H          3.47740        4.10720       -2.40050
H          2.63190        2.34730       -6.19840
H          2.50020        0.68300       -7.97520
H          0.97970       -0.85590       -9.13350
H          2.67880       -0.80720       -9.71730
H          1.65320       -2.21490      -10.06240
H          2.51380       -2.44330       -5.06000
H          2.62130       -0.75690       -3.26350
H          2.47320        2.88760        4.23520
H          2.59260        1.48300        6.21530
H          3.32260        0.24110        8.00950
H          2.45050       -1.09490        8.79210
H          1.53610        0.13350        7.88800
H          2.43120       -2.01330        3.75450
H          2.34310       -0.58330        1.74610
H          1.59400        4.15600        0.26890
H          2.78820        6.24750        0.03350
H          5.36230        8.80670       -0.47530
H          3.69420        8.37540       -0.04810
H          4.67010        7.29070       -1.09480
H          5.83310        4.82650        2.67260
H          4.62720        2.69690        2.90860
H         -4.92190        0.12050       -2.65660
H         -7.28210        0.50830       -2.09510
H         -7.88970        2.26350        2.25680
H         -9.59340        2.65790        1.93850
H         -8.32620        3.78950        1.42010
H         -6.09440        3.18460        1.01980
H         -3.76470        2.82200        0.44680
H         -1.31880       -1.05220       -2.05950
H         -0.48550       -1.43980       -4.35500
H         -0.63090        2.26990       -7.13970
H         -2.12930        1.62610       -7.88830
H         -0.55260        1.31820       -8.63790
H         -2.58480        2.04020       -5.68800
H         -3.36480        2.44500       -3.41300
H         -3.88820        1.28410        3.51950
H         -8.69220        0.04220        5.40840
H         -7.18810        4.04720        7.81220
H         -5.83310        4.45310        6.74070
H         -4.43590        2.71060        7.86140
H         -5.78560        2.32070        8.93250
H         -5.01770        3.90910        9.02340
H         -4.86340       -4.33590       -4.14280
H         -3.45940       -3.69930       -3.26400
H         -5.25280       -2.08870       -5.14660
H         -3.63140       -2.68050       -5.52480
H         -3.84830       -1.45270       -4.27910
H         -8.32530       -2.35330       -1.23120
H         -9.26810       -2.61740        0.60670
H        -11.27960       -1.32920        3.80130
H        -13.40280       -3.92980       -1.50950
H        -16.29380       -3.09690        2.56480
H        -18.23570       -3.44660       -0.24370
H        -18.85100       -5.59780        0.84890
H        -16.61300       -6.70710        1.62110
H        -15.12710       -7.16890       -0.53200
H        -16.45100       -6.34510       -2.63200
H        -18.54450       -7.18800       -1.24700
H        -18.89770       -5.54670       -1.84270
H        -16.79550       -3.89640       -2.33880
