
  xtb     02062212253D
 energy: -309.119199600025 gnorm: 0.000433942885 xtb: 6.4.1 (unknown)
184204  0     0  0            999 V2000
    0.9433   -7.4430   -2.8441 C   0  0  0  0  0  0  0  0  0  0  0  0
    0.9384   -7.8465   -4.1437 C   0  0  0  0  0  0  0  0  0  0  0  0
    1.0032   -6.9932   -5.3527 C   0  0  0  0  0  0  0  0  0  0  0  0
    1.2284   -5.8020   -5.4329 O   0  0  0  0  0  0  0  0  0  0  0  0
    0.6610   -7.8767   -6.4850 C   0  0  0  0  0  0  0  0  0  0  0  0
    0.5728   -7.5109   -7.8276 C   0  0  0  0  0  0  0  0  0  0  0  0
    0.1778   -8.5280   -8.6617 C   0  0  0  0  0  0  0  0  0  0  0  0
   -0.1053   -9.8193   -8.1969 C   0  0  0  0  0  0  0  0  0  0  0  0
   -0.0025  -10.1996   -6.8806 C   0  0  0  0  0  0  0  0  0  0  0  0
    0.3981   -9.1770   -6.0141 C   0  0  0  0  0  0  0  0  0  0  0  0
    0.6309   -9.2018   -4.5743 C   0  0  0  0  0  0  0  0  0  0  0  0
    0.6407  -10.3234   -3.7887 C   0  0  0  0  0  0  0  0  0  0  0  0
    0.3451  -11.6230   -4.2510 C   0  0  0  0  0  0  0  0  0  0  0  0
    0.1135  -12.7047   -4.5588 N   0  0  0  0  0  0  0  0  0  0  0  0
    0.9949  -10.3636   -2.4223 C   0  0  0  0  0  0  0  0  0  0  0  0
    1.2995  -10.4989   -1.3232 N   0  0  0  0  0  0  0  0  0  0  0  0
   -0.4639  -10.3225   -9.5732 C   0  0  0  0  0  0  0  0  0  0  0  0
   -1.9691  -10.4726   -9.8790 C   0  0  0  0  0  0  0  0  0  0  0  0
   -2.0305  -10.5037  -11.3889 C   0  0  0  0  0  0  0  0  0  0  0  0
   -1.7619   -9.2811  -11.8290 C   0  0  0  0  0  0  0  0  0  0  0  0
   -1.5142   -8.4031  -10.6236 C   0  0  0  0  0  0  0  0  0  0  0  0
   -2.4813   -9.0492   -9.6231 C   0  0  0  0  0  0  0  0  0  0  0  0
   -0.1468   -8.8829  -10.0914 C   0  0  0  0  0  0  0  0  0  0  0  0
    1.2002   -6.1544   -2.2855 C   0  0  0  0  0  0  0  0  0  0  0  0
    2.1281   -5.2077   -2.7670 C   0  0  0  0  0  0  0  0  0  0  0  0
    3.1455   -5.3694   -3.7450 C   0  0  0  0  0  0  0  0  0  0  0  0
    3.8552   -4.2420   -3.9892 C   0  0  0  0  0  0  0  0  0  0  0  0
    4.9849   -4.0546   -4.9395 C   0  0  0  0  0  0  0  0  0  0  0  0
    6.3015   -3.8062   -4.2014 C   0  0  0  0  0  0  0  0  0  0  0  0
    3.3310   -2.9061   -3.0005 S   0  0  0  0  0  0  0  0  0  0  0  0
    2.1516   -3.9107   -2.2098 C   0  0  0  0  0  0  0  0  0  0  0  0
    1.3730   -3.5217   -1.1262 C   0  0  0  0  0  0  0  0  0  0  0  0
    0.5565   -4.5077   -0.5473 C   0  0  0  0  0  0  0  0  0  0  0  0
    0.4788   -5.7811   -1.1409 C   0  0  0  0  0  0  0  0  0  0  0  0
   -0.7063   -6.7654   -0.3424 S   0  0  0  0  0  0  0  0  0  0  0  0
   -1.0627   -5.4893    0.8002 C   0  0  0  0  0  0  0  0  0  0  0  0
   -2.0807   -5.7379    1.8628 C   0  0  0  0  0  0  0  0  0  0  0  0
   -2.8442   -4.4764    2.2551 C   0  0  0  0  0  0  0  0  0  0  0  0
   -0.3319   -4.3787    0.5603 C   0  0  0  0  0  0  0  0  0  0  0  0
    1.3731   -2.1511   -0.6525 C   0  0  0  0  0  0  0  0  0  0  0  0
    1.0854   -1.0255   -1.3987 C   0  0  0  0  0  0  0  0  0  0  0  0
    0.6894   -1.0195   -2.7252 N   0  0  0  0  0  0  0  0  0  0  0  0
    1.0778    0.0614   -3.5302 C   0  0  0  0  0  0  0  0  0  0  0  0
    2.3480    0.6227   -3.3926 C   0  0  0  0  0  0  0  0  0  0  0  0
    2.7091    1.7154   -4.1475 C   0  0  0  0  0  0  0  0  0  0  0  0
    1.8169    2.2665   -5.0648 C   0  0  0  0  0  0  0  0  0  0  0  0
    2.3898    3.6689   -5.9714 S   0  0  0  0  0  0  0  0  0  0  0  0
    0.9171    4.2408   -6.8659 C   0  0  0  0  0  0  0  0  0  0  0  0
    0.5623    1.6933   -5.2252 C   0  0  0  0  0  0  0  0  0  0  0  0
    0.1960    0.6038   -4.4595 C   0  0  0  0  0  0  0  0  0  0  0  0
   -0.0515   -2.0812   -3.2579 C   0  0  0  0  0  0  0  0  0  0  0  0
   -1.0163   -2.7331   -2.4888 C   0  0  0  0  0  0  0  0  0  0  0  0
   -1.6671   -3.8419   -2.9827 C   0  0  0  0  0  0  0  0  0  0  0  0
   -1.3944   -4.3034   -4.2661 C   0  0  0  0  0  0  0  0  0  0  0  0
   -2.2008   -5.7942   -4.7758 S   0  0  0  0  0  0  0  0  0  0  0  0
   -2.2560   -5.6262   -6.5843 C   0  0  0  0  0  0  0  0  0  0  0  0
   -0.4926   -3.6147   -5.0642 C   0  0  0  0  0  0  0  0  0  0  0  0
    0.1794   -2.5205   -4.5587 C   0  0  0  0  0  0  0  0  0  0  0  0
    1.1703    0.1449   -0.5996 C   0  0  0  0  0  0  0  0  0  0  0  0
    0.9633    1.8290   -0.9113 S   0  0  0  0  0  0  0  0  0  0  0  0
    1.2733    2.1975    0.7733 C   0  0  0  0  0  0  0  0  0  0  0  0
    1.5860    1.0711    1.5213 C   0  0  0  0  0  0  0  0  0  0  0  0
    2.0345    1.0678    2.8297 N   0  0  0  0  0  0  0  0  0  0  0  0
    2.7385    2.1709    3.3321 C   0  0  0  0  0  0  0  0  0  0  0  0
    2.4871    2.6529    4.6136 C   0  0  0  0  0  0  0  0  0  0  0  0
    3.0415    3.8442    5.0390 C   0  0  0  0  0  0  0  0  0  0  0  0
    3.8664    4.5711    4.1905 C   0  0  0  0  0  0  0  0  0  0  0  0
    4.5167    6.1641    4.5710 S   0  0  0  0  0  0  0  0  0  0  0  0
    3.5206    6.6915    5.9915 C   0  0  0  0  0  0  0  0  0  0  0  0
    4.2106    4.0329    2.9515 C   0  0  0  0  0  0  0  0  0  0  0  0
    3.6586    2.8463    2.5287 C   0  0  0  0  0  0  0  0  0  0  0  0
    1.6826    0.0063    3.6679 C   0  0  0  0  0  0  0  0  0  0  0  0
    2.5835   -0.4677    4.6223 C   0  0  0  0  0  0  0  0  0  0  0  0
    2.2519   -1.5443    5.4138 C   0  0  0  0  0  0  0  0  0  0  0  0
    1.0187   -2.1746    5.2673 C   0  0  0  0  0  0  0  0  0  0  0  0
    0.6868   -3.5641    6.3096 S   0  0  0  0  0  0  0  0  0  0  0  0
   -0.4924   -4.5258    5.3138 C   0  0  0  0  0  0  0  0  0  0  0  0
    0.1041   -1.6830    4.3461 C   0  0  0  0  0  0  0  0  0  0  0  0
    0.4331   -0.6002    3.5550 C   0  0  0  0  0  0  0  0  0  0  0  0
    1.5050   -0.0966    0.7219 C   0  0  0  0  0  0  0  0  0  0  0  0
    1.7109   -1.7853    1.0290 S   0  0  0  0  0  0  0  0  0  0  0  0
    1.1767    3.5450    1.2764 C   0  0  0  0  0  0  0  0  0  0  0  0
    0.5230    3.7858    2.5044 C   0  0  0  0  0  0  0  0  0  0  0  0
   -0.1339    2.9477    3.3197 N   0  0  0  0  0  0  0  0  0  0  0  0
   -0.4799    3.6929    4.3283 N   0  0  0  0  0  0  0  0  0  0  0  0
   -1.2658    3.1749    5.4099 C   0  0  0  0  0  0  0  0  0  0  0  0
   -2.7341    3.5326    5.2008 C   0  0  0  0  0  0  0  0  0  0  0  0
   -0.1322    4.9477    4.2849 N   0  0  0  0  0  0  0  0  0  0  0  0
    0.4960    5.0725    3.1087 C   0  0  0  0  0  0  0  0  0  0  0  0
    1.0822    6.1931    2.4840 C   0  0  0  0  0  0  0  0  0  0  0  0
    1.7085    5.9380    1.2691 C   0  0  0  0  0  0  0  0  0  0  0  0
    1.7334    4.6642    0.6706 C   0  0  0  0  0  0  0  0  0  0  0  0
    2.5527    4.4935   -0.8360 Cl  0  0  0  0  0  0  0  0  0  0  0  0
    2.4553    7.2452    0.4375 Cl  0  0  0  0  0  0  0  0  0  0  0  0
    1.0596    7.5023    3.0815 C   0  0  0  0  0  0  0  0  0  0  0  0
   -0.0239    8.0472    3.6859 C   0  0  0  0  0  0  0  0  0  0  0  0
   -1.4161    7.5289    3.5615 C   0  0  0  0  0  0  0  0  0  0  0  0
   -1.8015    6.5606    2.9439 O   0  0  0  0  0  0  0  0  0  0  0  0
   -2.2712    8.5157    4.2454 C   0  0  0  0  0  0  0  0  0  0  0  0
   -3.6572    8.4610    4.3791 C   0  0  0  0  0  0  0  0  0  0  0  0
   -4.2008    9.5381    5.0353 C   0  0  0  0  0  0  0  0  0  0  0  0
   -3.4239   10.6040    5.5108 C   0  0  0  0  0  0  0  0  0  0  0  0
   -2.0584   10.6755    5.3782 C   0  0  0  0  0  0  0  0  0  0  0  0
   -1.4823    9.5804    4.7250 C   0  0  0  0  0  0  0  0  0  0  0  0
   -0.0843    9.3096    4.4076 C   0  0  0  0  0  0  0  0  0  0  0  0
    0.9800   10.0879    4.7748 C   0  0  0  0  0  0  0  0  0  0  0  0
    0.8791   11.2941    5.5010 C   0  0  0  0  0  0  0  0  0  0  0  0
    0.8794   12.2786    6.0916 N   0  0  0  0  0  0  0  0  0  0  0  0
    2.3373    9.8021    4.5144 C   0  0  0  0  0  0  0  0  0  0  0  0
    3.4673    9.6509    4.3768 N   0  0  0  0  0  0  0  0  0  0  0  0
   -4.6225   11.3374    6.0582 C   0  0  0  0  0  0  0  0  0  0  0  0
   -4.8609   11.2870    7.5876 C   0  0  0  0  0  0  0  0  0  0  0  0
   -4.2277   10.0085    8.0776 C   0  0  0  0  0  0  0  0  0  0  0  0
   -4.9611    8.9971    7.6322 C   0  0  0  0  0  0  0  0  0  0  0  0
   -6.1035    9.5734    6.8327 C   0  0  0  0  0  0  0  0  0  0  0  0
   -6.3430   10.8799    7.6062 C   0  0  0  0  0  0  0  0  0  0  0  0
   -5.4869   10.1481    5.5329 C   0  0  0  0  0  0  0  0  0  0  0  0
    0.6043   -8.1671   -2.1098 H   0  0  0  0  0  0  0  0  0  0  0  0
    0.8156   -6.5090   -8.1493 H   0  0  0  0  0  0  0  0  0  0  0  0
   -0.2174  -11.1983   -6.5398 H   0  0  0  0  0  0  0  0  0  0  0  0
    0.1315  -11.1537   -9.9456 H   0  0  0  0  0  0  0  0  0  0  0  0
   -2.4616  -11.2849   -9.3517 H   0  0  0  0  0  0  0  0  0  0  0  0
   -2.2018  -11.3945  -11.9641 H   0  0  0  0  0  0  0  0  0  0  0  0
   -1.6636   -8.9466  -12.8451 H   0  0  0  0  0  0  0  0  0  0  0  0
   -1.5934   -7.3297  -10.7758 H   0  0  0  0  0  0  0  0  0  0  0  0
   -2.3515   -8.7102   -8.5968 H   0  0  0  0  0  0  0  0  0  0  0  0
   -3.5221   -8.9268   -9.9187 H   0  0  0  0  0  0  0  0  0  0  0  0
    0.6597   -8.7539  -10.8110 H   0  0  0  0  0  0  0  0  0  0  0  0
    3.3605   -6.3063   -4.2246 H   0  0  0  0  0  0  0  0  0  0  0  0
    4.7735   -3.2012   -5.5892 H   0  0  0  0  0  0  0  0  0  0  0  0
    5.0693   -4.9466   -5.5633 H   0  0  0  0  0  0  0  0  0  0  0  0
    6.2266   -2.9105   -3.5892 H   0  0  0  0  0  0  0  0  0  0  0  0
    7.1123   -3.6749   -4.9132 H   0  0  0  0  0  0  0  0  0  0  0  0
    6.5382   -4.6485   -3.5552 H   0  0  0  0  0  0  0  0  0  0  0  0
   -2.7823   -6.4948    1.5052 H   0  0  0  0  0  0  0  0  0  0  0  0
   -1.5822   -6.1531    2.7456 H   0  0  0  0  0  0  0  0  0  0  0  0
   -3.6018   -4.7170    2.9969 H   0  0  0  0  0  0  0  0  0  0  0  0
   -2.1740   -3.7319    2.6757 H   0  0  0  0  0  0  0  0  0  0  0  0
   -3.3349   -4.0450    1.3859 H   0  0  0  0  0  0  0  0  0  0  0  0
   -0.4065   -3.4778    1.1411 H   0  0  0  0  0  0  0  0  0  0  0  0
    3.0490    0.1904   -2.6945 H   0  0  0  0  0  0  0  0  0  0  0  0
    3.6879    2.1561   -4.0376 H   0  0  0  0  0  0  0  0  0  0  0  0
    0.1143    4.4397   -6.1623 H   0  0  0  0  0  0  0  0  0  0  0  0
    0.6196    3.5070   -7.6098 H   0  0  0  0  0  0  0  0  0  0  0  0
    1.2138    5.1618   -7.3580 H   0  0  0  0  0  0  0  0  0  0  0  0
   -0.1452    2.0902   -5.9353 H   0  0  0  0  0  0  0  0  0  0  0  0
   -0.7863    0.1702   -4.5773 H   0  0  0  0  0  0  0  0  0  0  0  0
   -1.2465   -2.3710   -1.4980 H   0  0  0  0  0  0  0  0  0  0  0  0
   -2.3931   -4.3636   -2.3774 H   0  0  0  0  0  0  0  0  0  0  0  0
   -2.6452   -4.6456   -6.8404 H   0  0  0  0  0  0  0  0  0  0  0  0
   -2.9308   -6.4004   -6.9364 H   0  0  0  0  0  0  0  0  0  0  0  0
   -1.2683   -5.7796   -7.0070 H   0  0  0  0  0  0  0  0  0  0  0  0
   -0.2749   -3.9424   -6.0662 H   0  0  0  0  0  0  0  0  0  0  0  0
    0.9117   -2.0139   -5.1693 H   0  0  0  0  0  0  0  0  0  0  0  0
    1.8221    2.1071    5.2671 H   0  0  0  0  0  0  0  0  0  0  0  0
    2.8043    4.2059    6.0266 H   0  0  0  0  0  0  0  0  0  0  0  0
    3.7943    6.1262    6.8780 H   0  0  0  0  0  0  0  0  0  0  0  0
    3.7597    7.7409    6.1333 H   0  0  0  0  0  0  0  0  0  0  0  0
    2.4654    6.5767    5.7569 H   0  0  0  0  0  0  0  0  0  0  0  0
    4.8993    4.5714    2.3195 H   0  0  0  0  0  0  0  0  0  0  0  0
    3.9139    2.4487    1.5582 H   0  0  0  0  0  0  0  0  0  0  0  0
    3.5492    0.0045    4.7232 H   0  0  0  0  0  0  0  0  0  0  0  0
    2.9512   -1.9221    6.1435 H   0  0  0  0  0  0  0  0  0  0  0  0
   -0.5045   -5.5213    5.7463 H   0  0  0  0  0  0  0  0  0  0  0  0
   -1.4863   -4.0911    5.3717 H   0  0  0  0  0  0  0  0  0  0  0  0
   -0.1375   -4.5670    4.2886 H   0  0  0  0  0  0  0  0  0  0  0  0
   -0.8733   -2.1294    4.2484 H   0  0  0  0  0  0  0  0  0  0  0  0
   -0.2855   -0.2033    2.8538 H   0  0  0  0  0  0  0  0  0  0  0  0
   -0.8954    3.6194    6.3362 H   0  0  0  0  0  0  0  0  0  0  0  0
   -1.1242    2.0925    5.4260 H   0  0  0  0  0  0  0  0  0  0  0  0
   -3.1085    3.0656    4.2935 H   0  0  0  0  0  0  0  0  0  0  0  0
   -2.8387    4.6105    5.1041 H   0  0  0  0  0  0  0  0  0  0  0  0
   -3.3253    3.1902    6.0453 H   0  0  0  0  0  0  0  0  0  0  0  0
    1.9781    8.0711    3.0010 H   0  0  0  0  0  0  0  0  0  0  0  0
   -4.2179    7.6276    3.9850 H   0  0  0  0  0  0  0  0  0  0  0  0
   -1.4786   11.5081    5.7393 H   0  0  0  0  0  0  0  0  0  0  0  0
   -4.8076   12.3253    5.6417 H   0  0  0  0  0  0  0  0  0  0  0  0
   -4.5833   12.1939    8.1177 H   0  0  0  0  0  0  0  0  0  0  0  0
   -3.3082    9.9701    8.6317 H   0  0  0  0  0  0  0  0  0  0  0  0
   -4.7766    7.9441    7.7398 H   0  0  0  0  0  0  0  0  0  0  0  0
   -6.9580    8.9203    6.6765 H   0  0  0  0  0  0  0  0  0  0  0  0
   -6.7204   10.7099    8.6133 H   0  0  0  0  0  0  0  0  0  0  0  0
   -6.9921   11.5809    7.0834 H   0  0  0  0  0  0  0  0  0  0  0  0
   -6.2393   10.3594    4.7755 H   0  0  0  0  0  0  0  0  0  0  0  0
  1  2  2  0  0  0  0
  2  3  1  0  0  0  0
  3  4  2  0  0  0  0
  3  5  1  0  0  0  0
  5  6  2  0  0  0  0
  6  7  1  0  0  0  0
  7  8  2  0  0  0  0
  8  9  1  0  0  0  0
  9 10  2  0  0  0  0
 10 11  1  0  0  0  0
 11 12  2  0  0  0  0
 12 13  1  0  0  0  0
 13 14  3  0  0  0  0
 12 15  1  0  0  0  0
 15 16  3  0  0  0  0
  8 17  1  0  0  0  0
 17 18  1  0  0  0  0
 18 19  1  0  0  0  0
 19 20  2  0  0  0  0
 20 21  1  0  0  0  0
 21 22  1  0  0  0  0
 21 23  1  0  0  0  0
  1 24  1  0  0  0  0
 24 25  2  0  0  0  0
 25 26  1  0  0  0  0
 26 27  2  0  0  0  0
 27 28  1  0  0  0  0
 28 29  1  0  0  0  0
 27 30  1  0  0  0  0
 30 31  1  0  0  0  0
 31 32  2  0  0  0  0
 32 33  1  0  0  0  0
 33 34  2  0  0  0  0
 34 35  1  0  0  0  0
 35 36  1  0  0  0  0
 36 37  1  0  0  0  0
 37 38  1  0  0  0  0
 36 39  2  0  0  0  0
 32 40  1  0  0  0  0
 40 41  2  0  0  0  0
 41 42  1  0  0  0  0
 42 43  1  0  0  0  0
 43 44  2  0  0  0  0
 44 45  1  0  0  0  0
 45 46  2  0  0  0  0
 46 47  1  0  0  0  0
 47 48  1  0  0  0  0
 46 49  1  0  0  0  0
 49 50  2  0  0  0  0
 42 51  1  0  0  0  0
 51 52  2  0  0  0  0
 52 53  1  0  0  0  0
 53 54  2  0  0  0  0
 54 55  1  0  0  0  0
 55 56  1  0  0  0  0
 54 57  1  0  0  0  0
 57 58  2  0  0  0  0
 41 59  1  0  0  0  0
 59 60  1  0  0  0  0
 60 61  1  0  0  0  0
 61 62  2  0  0  0  0
 62 63  1  0  0  0  0
 63 64  1  0  0  0  0
 64 65  2  0  0  0  0
 65 66  1  0  0  0  0
 66 67  2  0  0  0  0
 67 68  1  0  0  0  0
 68 69  1  0  0  0  0
 67 70  1  0  0  0  0
 70 71  2  0  0  0  0
 63 72  1  0  0  0  0
 72 73  2  0  0  0  0
 73 74  1  0  0  0  0
 74 75  2  0  0  0  0
 75 76  1  0  0  0  0
 76 77  1  0  0  0  0
 75 78  1  0  0  0  0
 78 79  2  0  0  0  0
 62 80  1  0  0  0  0
 80 81  1  0  0  0  0
 61 82  1  0  0  0  0
 82 83  1  0  0  0  0
 83 84  2  0  0  0  0
 84 85  1  0  0  0  0
 85 86  1  0  0  0  0
 86 87  1  0  0  0  0
 85 88  1  0  0  0  0
 88 89  2  0  0  0  0
 89 90  1  0  0  0  0
 90 91  2  0  0  0  0
 91 92  1  0  0  0  0
 92 93  1  0  0  0  0
 91 94  1  0  0  0  0
 90 95  1  0  0  0  0
 95 96  2  0  0  0  0
 96 97  1  0  0  0  0
 97 98  2  0  0  0  0
 97 99  1  0  0  0  0
 99100  2  0  0  0  0
100101  1  0  0  0  0
101102  2  0  0  0  0
102103  1  0  0  0  0
103104  2  0  0  0  0
104105  1  0  0  0  0
105106  2  0  0  0  0
106107  1  0  0  0  0
107108  3  0  0  0  0
106109  1  0  0  0  0
109110  3  0  0  0  0
102111  1  0  0  0  0
111112  1  0  0  0  0
112113  1  0  0  0  0
113114  2  0  0  0  0
114115  1  0  0  0  0
115116  1  0  0  0  0
115117  1  0  0  0  0
 11  2  1  0  0  0  0
 23 17  1  0  0  0  0
 34 24  1  0  0  0  0
 81 40  1  0  0  0  0
 92 82  2  0  0  0  0
105 96  1  0  0  0  0
117111  1  0  0  0  0
 10  5  1  0  0  0  0
 22 18  1  0  0  0  0
 31 25  1  0  0  0  0
 39 33  1  0  0  0  0
 50 43  1  0  0  0  0
 58 51  1  0  0  0  0
 80 59  2  0  0  0  0
 89 83  1  0  0  0  0
104 99  1  0  0  0  0
116112  1  0  0  0  0
 23  7  1  0  0  0  0
 71 64  1  0  0  0  0
 79 72  1  0  0  0  0
117101  1  0  0  0  0
  1118  1  0  0  0  0
  6119  1  0  0  0  0
  9120  1  0  0  0  0
 17121  1  0  0  0  0
 18122  1  0  0  0  0
 19123  1  0  0  0  0
 20124  1  0  0  0  0
 21125  1  0  0  0  0
 22126  1  0  0  0  0
 22127  1  0  0  0  0
 23128  1  0  0  0  0
 26129  1  0  0  0  0
 28130  1  0  0  0  0
 28131  1  0  0  0  0
 29132  1  0  0  0  0
 29133  1  0  0  0  0
 29134  1  0  0  0  0
 37135  1  0  0  0  0
 37136  1  0  0  0  0
 38137  1  0  0  0  0
 38138  1  0  0  0  0
 38139  1  0  0  0  0
 39140  1  0  0  0  0
 44141  1  0  0  0  0
 45142  1  0  0  0  0
 48143  1  0  0  0  0
 48144  1  0  0  0  0
 48145  1  0  0  0  0
 49146  1  0  0  0  0
 50147  1  0  0  0  0
 52148  1  0  0  0  0
 53149  1  0  0  0  0
 56150  1  0  0  0  0
 56151  1  0  0  0  0
 56152  1  0  0  0  0
 57153  1  0  0  0  0
 58154  1  0  0  0  0
 65155  1  0  0  0  0
 66156  1  0  0  0  0
 69157  1  0  0  0  0
 69158  1  0  0  0  0
 69159  1  0  0  0  0
 70160  1  0  0  0  0
 71161  1  0  0  0  0
 73162  1  0  0  0  0
 74163  1  0  0  0  0
 77164  1  0  0  0  0
 77165  1  0  0  0  0
 77166  1  0  0  0  0
 78167  1  0  0  0  0
 79168  1  0  0  0  0
 86169  1  0  0  0  0
 86170  1  0  0  0  0
 87171  1  0  0  0  0
 87172  1  0  0  0  0
 87173  1  0  0  0  0
 95174  1  0  0  0  0
100175  1  0  0  0  0
103176  1  0  0  0  0
111177  1  0  0  0  0
112178  1  0  0  0  0
113179  1  0  0  0  0
114180  1  0  0  0  0
115181  1  0  0  0  0
116182  1  0  0  0  0
116183  1  0  0  0  0
117184  1  0  0  0  0
M  END
