154

C         -1.30890       -3.96840       -4.41830
C         -1.31570       -5.22530       -3.86000
C         -1.07610       -5.58890       -2.45570
O         -1.26690       -4.91140       -1.46020
C         -0.61330       -6.98800       -2.47060
C         -0.11720       -7.72340       -1.39670
C          0.23530       -9.01160       -1.72200
C          0.10320       -9.53280       -3.01580
C         -0.38870       -8.81830       -4.08360
C         -0.74950       -7.50450       -3.77500
C         -1.32220       -6.45780       -4.61790
C         -1.89330       -6.64540       -5.85180
C         -1.84100       -7.85090       -6.57820
N         -1.81040       -8.79880       -7.22590
C         -2.74090       -5.70460       -6.46240
N         -3.53290       -5.03320       -6.95510
C          0.66100      -10.87690       -2.61760
C          2.12350      -11.16410       -3.01840
C          2.53270      -12.29750       -2.10540
C          2.65590      -11.80410       -0.87980
C          2.33180      -10.32900       -0.94340
C          2.86490      -10.00230       -2.34440
C          0.80630      -10.29590       -1.17440
C         -1.11510       -2.73030       -3.79160
C         -0.72250       -1.53380       -4.43770
N         -0.52480       -1.36240       -5.78660
C          0.51220       -0.50780       -6.20360
C          1.76180       -0.58260       -5.59470
C          2.78610        0.25990       -5.97900
C          2.57680        1.19100       -6.98780
S          3.80070        2.31960       -7.56430
C          5.17230        2.11370       -6.39290
C          1.33110        1.25540       -7.61210
C          0.30900        0.41970       -7.22540
C         -1.42040       -1.85040       -6.75120
C         -0.93960       -2.27550       -7.99000
C         -1.81570       -2.70950       -8.95880
C         -3.18680       -2.73220       -8.71190
S         -4.22750       -3.29070      -10.01480
C         -5.72740       -3.81080       -9.13320
C         -3.66770       -2.30060       -7.48020
C         -2.79160       -1.86690       -6.50820
C         -0.46180       -0.51460       -3.49980
S          0.02740        1.14760       -3.62810
C         -0.05970        1.31010       -1.87840
C         -0.48910        0.14820       -1.24260
N         -0.67860       -0.00760        0.11480
C         -1.17420        1.01190        0.93360
C         -2.09370        1.94390        0.45930
C         -2.54820        2.96720        1.26710
C         -2.09580        3.07730        2.57480
S         -2.54960        4.37850        3.68110
C         -3.62740        5.44830        2.69080
C         -1.21350        2.11750        3.06920
C         -0.75600        1.09990        2.26230
C         -0.49370       -1.30500        0.63670
C          0.66520       -2.01620        0.33030
C          0.80110       -3.32820        0.72990
C         -0.21990       -3.94750        1.44030
S         -0.02920       -5.65380        1.85570
C         -1.74480       -6.24530        1.72750
C         -1.34610       -3.22180        1.80540
C         -1.48320       -1.90870        1.40510
C         -0.70400       -0.88490       -2.18460
S         -1.20910       -2.52450       -2.04000
C          0.23680        2.48410       -1.21190
C          0.42440        3.41680       -0.45560
C          0.46740        4.38230        0.53700
C          1.02210        4.20780        1.78320
C          0.72500        5.24210        2.68050
S          1.11120        5.19860        4.37570
C          2.16570        3.70860        4.53760
C          2.67430        3.64360        5.96530
C         -0.06700        6.24780        2.11090
S         -0.42890        5.86050        0.43980
C         -0.72780        7.36190        2.65090
C         -0.58060        8.05100        3.82410
C         -1.76210        8.78390        4.35260
O         -2.81930        8.95560        3.78330
C         -1.40140        9.17490        5.72710
C         -2.21380        9.80630        6.66630
C         -1.60560       10.01630        7.88080
C         -0.28660        9.62730        8.14610
C          0.53100        9.01460        7.22490
C         -0.06880        8.79200        5.98390
C          0.48590        8.19460        4.76990
C          1.82060        7.98950        4.50640
C          2.30140        7.68950        3.21740
N          2.72140        7.46620        2.17200
C          2.85410        8.11950        5.45180
N          3.73800        8.16800        6.18400
C         -0.34090       10.12620        9.56910
C         -0.51940        9.05770       10.66860
C         -1.01430        9.84450       11.86080
C         -2.26250       10.21710       11.60850
C         -2.63210        9.68840       10.24150
C         -1.82760        8.38210       10.23710
C         -1.81090       10.56420        9.27170
H         -1.34990       -3.92760       -5.50230
H         -0.01950       -7.28550       -0.41590
H         -0.48350       -9.22760       -5.07580
H          0.00200      -11.72890       -2.77320
H          2.28320      -11.31120       -4.08300
H          2.63240      -13.31830       -2.42450
H          2.87920      -12.33060        0.02950
H          2.68020       -9.71420       -0.11790
H          3.94630      -10.11180       -2.40900
H          2.57580       -9.01900       -2.71070
H          0.24360      -10.76080       -0.36700
H          1.93230       -1.31070       -4.81460
H          3.74200        0.17340       -5.48850
H          4.81970        2.28640       -5.38040
H          5.61210        1.12610       -6.49800
H          5.90230        2.87020       -6.66350
H          1.17530        1.97980       -8.39630
H         -0.65650        0.48620       -7.70320
H          0.12350       -2.26720       -8.18050
H         -1.44780       -3.04680       -9.91530
H         -5.42990       -4.39080       -8.26580
H         -6.28310       -4.43020       -9.83020
H         -6.32350       -2.94610       -8.85520
H         -4.72450       -2.29350       -7.27230
H         -3.16780       -1.52890       -5.55370
H         -2.46140        1.86720       -0.55260
H         -3.25920        3.66870        0.86260
H         -4.57340        4.94860        2.50250
H         -3.78920        6.34050        3.28880
H         -3.13160        5.71490        1.76240
H         -0.89090        2.18910        4.09710
H         -0.06530        0.36570        2.65090
H          1.44410       -1.53920       -0.24700
H          1.68640       -3.89020        0.47580
H         -2.17490       -5.83890        0.81680
H         -1.69280       -7.32850        1.67290
H         -2.31740       -5.95320        2.60290
H         -2.13150       -3.67960        2.38530
H         -2.37010       -1.35000        1.66550
H          1.59600        3.33220        2.02040
H          2.99020        3.81530        3.83330
H          1.56340        2.83460        4.29030
H          1.84340        3.57700        6.66400
H          3.30770        2.76840        6.09050
H          3.25520        4.53190        6.20320
H         -1.58800        7.69110        2.07220
H         -3.22520       10.09230        6.42290
H          1.54550        8.71970        7.43780
H          0.38760       10.89050        9.83290
H          0.34560        8.41970       10.82800
H         -0.40680       10.08910       12.71240
H         -2.90590       10.83500       12.20710
H         -3.69240        9.62470       10.01160
H         -2.18960        7.67350       10.98040
H         -1.77630        7.89570        9.26480
H         -2.06140       11.62150        9.33560
