
  xtb     02092211063D
 energy: -366.388014099859 gnorm: 0.000610175005 xtb: 6.4.1 (unknown)
222241  0     0  0            999 V2000
   -3.8035   -0.8263   -6.1509 C   0  0  0  0  0  0  0  0  0  0  0  0
   -2.9236   -1.1961   -7.1357 C   0  0  0  0  0  0  0  0  0  0  0  0
   -3.3420   -1.1696   -8.5547 C   0  0  0  0  0  0  0  0  0  0  0  0
   -4.4603   -0.9820   -8.9864 O   0  0  0  0  0  0  0  0  0  0  0  0
   -2.0950   -1.3121   -9.3337 C   0  0  0  0  0  0  0  0  0  0  0  0
   -1.9492   -1.2236  -10.7153 C   0  0  0  0  0  0  0  0  0  0  0  0
   -0.6496   -1.3237  -11.1505 C   0  0  0  0  0  0  0  0  0  0  0  0
    0.4283   -1.5197  -10.2776 C   0  0  0  0  0  0  0  0  0  0  0  0
    0.2960   -1.6358   -8.9145 C   0  0  0  0  0  0  0  0  0  0  0  0
   -1.0154   -1.5149   -8.4517 C   0  0  0  0  0  0  0  0  0  0  0  0
   -1.5322   -1.5503   -7.0858 C   0  0  0  0  0  0  0  0  0  0  0  0
   -0.8608   -2.0469   -5.9906 C   0  0  0  0  0  0  0  0  0  0  0  0
   -1.4657   -2.3618   -4.7602 C   0  0  0  0  0  0  0  0  0  0  0  0
   -1.8816   -2.6839   -3.7376 N   0  0  0  0  0  0  0  0  0  0  0  0
    0.5048   -2.3791   -5.9626 C   0  0  0  0  0  0  0  0  0  0  0  0
    1.6176   -2.6324   -5.8196 N   0  0  0  0  0  0  0  0  0  0  0  0
    1.4387   -1.5126  -11.3972 C   0  0  0  0  0  0  0  0  0  0  0  0
    2.0160   -2.8724  -11.8600 C   0  0  0  0  0  0  0  0  0  0  0  0
    0.9718   -3.9125  -11.5377 C   0  0  0  0  0  0  0  0  0  0  0  0
   -0.0493   -3.7305  -12.3643 C   0  0  0  0  0  0  0  0  0  0  0  0
    0.2856   -2.5636  -13.2601 C   0  0  0  0  0  0  0  0  0  0  0  0
    1.8080   -2.7404  -13.3771 C   0  0  0  0  0  0  0  0  0  0  0  0
    0.2367   -1.2975  -12.3701 C   0  0  0  0  0  0  0  0  0  0  0  0
   -3.5342   -0.3503   -4.8607 C   0  0  0  0  0  0  0  0  0  0  0  0
   -2.3904    0.2368   -4.2867 C   0  0  0  0  0  0  0  0  0  0  0  0
   -1.2733    0.7073   -4.9269 N   0  0  0  0  0  0  0  0  0  0  0  0
   -1.2126    1.1167   -6.2648 C   0  0  0  0  0  0  0  0  0  0  0  0
    0.0233    1.0752   -6.9195 C   0  0  0  0  0  0  0  0  0  0  0  0
    0.1233    1.4263   -8.2445 C   0  0  0  0  0  0  0  0  0  0  0  0
   -1.0072    1.8238   -8.9582 C   0  0  0  0  0  0  0  0  0  0  0  0
   -0.7886    2.1489  -10.6727 S   0  0  0  0  0  0  0  0  0  0  0  0
   -2.4858    2.3175  -11.2931 C   0  0  0  0  0  0  0  0  0  0  0  0
   -2.2208    1.9415   -8.2937 C   0  0  0  0  0  0  0  0  0  0  0  0
   -2.3191    1.5973   -6.9599 C   0  0  0  0  0  0  0  0  0  0  0  0
   -0.1559    1.0977   -4.1287 C   0  0  0  0  0  0  0  0  0  0  0  0
    0.1148    2.4514   -3.9692 C   0  0  0  0  0  0  0  0  0  0  0  0
    1.1555    2.8715   -3.1648 C   0  0  0  0  0  0  0  0  0  0  0  0
    1.9522    1.9328   -2.5211 C   0  0  0  0  0  0  0  0  0  0  0  0
    3.2675    2.3461   -1.4276 S   0  0  0  0  0  0  0  0  0  0  0  0
    3.0977    4.1363   -1.1912 C   0  0  0  0  0  0  0  0  0  0  0  0
    1.7162    0.5754   -2.7293 C   0  0  0  0  0  0  0  0  0  0  0  0
    0.6671    0.1550   -3.5181 C   0  0  0  0  0  0  0  0  0  0  0  0
   -2.5397    0.3072   -2.8819 C   0  0  0  0  0  0  0  0  0  0  0  0
   -1.4701    0.7525   -1.6033 S   0  0  0  0  0  0  0  0  0  0  0  0
   -2.6299    0.1977   -0.4157 C   0  0  0  0  0  0  0  0  0  0  0  0
   -3.8358   -0.1723   -0.9727 C   0  0  0  0  0  0  0  0  0  0  0  0
   -4.9640   -0.4502   -0.2184 N   0  0  0  0  0  0  0  0  0  0  0  0
   -5.1815    0.3343    0.9294 C   0  0  0  0  0  0  0  0  0  0  0  0
   -5.7272   -0.2077    2.0880 C   0  0  0  0  0  0  0  0  0  0  0  0
   -5.8907    0.5617    3.2246 C   0  0  0  0  0  0  0  0  0  0  0  0
   -5.5146    1.8971    3.2243 C   0  0  0  0  0  0  0  0  0  0  0  0
   -5.6612    2.9781    4.6118 S   0  0  0  0  0  0  0  0  0  0  0  0
   -6.1605    1.8831    5.9720 C   0  0  0  0  0  0  0  0  0  0  0  0
   -5.0006    2.4561    2.0564 C   0  0  0  0  0  0  0  0  0  0  0  0
   -4.8427    1.6894    0.9248 C   0  0  0  0  0  0  0  0  0  0  0  0
   -5.8355   -1.4738   -0.6002 C   0  0  0  0  0  0  0  0  0  0  0  0
   -7.1823   -1.4371   -0.2449 C   0  0  0  0  0  0  0  0  0  0  0  0
   -8.0306   -2.4715   -0.5826 C   0  0  0  0  0  0  0  0  0  0  0  0
   -7.5529   -3.5544   -1.3066 C   0  0  0  0  0  0  0  0  0  0  0  0
   -8.5565   -4.9400   -1.7596 S   0  0  0  0  0  0  0  0  0  0  0  0
   -9.9080   -4.8746   -0.5462 C   0  0  0  0  0  0  0  0  0  0  0  0
   -6.2249   -3.5683   -1.7167 C   0  0  0  0  0  0  0  0  0  0  0  0
   -5.3711   -2.5484   -1.3588 C   0  0  0  0  0  0  0  0  0  0  0  0
   -3.7600   -0.1363   -2.3906 C   0  0  0  0  0  0  0  0  0  0  0  0
   -4.8222   -0.5896   -3.6669 S   0  0  0  0  0  0  0  0  0  0  0  0
   -2.1401    0.0885    0.9359 C   0  0  0  0  0  0  0  0  0  0  0  0
   -1.7609   -1.0727    1.5706 C   0  0  0  0  0  0  0  0  0  0  0  0
   -1.9253   -2.3714    1.0498 N   0  0  0  0  0  0  0  0  0  0  0  0
   -3.0847   -3.0944    1.3120 C   0  0  0  0  0  0  0  0  0  0  0  0
   -3.4794   -4.1307    0.4649 C   0  0  0  0  0  0  0  0  0  0  0  0
   -4.6470   -4.8278    0.6932 C   0  0  0  0  0  0  0  0  0  0  0  0
   -5.4533   -4.5003    1.7739 C   0  0  0  0  0  0  0  0  0  0  0  0
   -7.0054   -5.2757    2.1106 S   0  0  0  0  0  0  0  0  0  0  0  0
   -6.9887   -6.7525    1.0545 C   0  0  0  0  0  0  0  0  0  0  0  0
   -5.0565   -3.4831    2.6355 C   0  0  0  0  0  0  0  0  0  0  0  0
   -3.8886   -2.7858    2.4090 C   0  0  0  0  0  0  0  0  0  0  0  0
   -0.7893   -2.9715    0.4900 C   0  0  0  0  0  0  0  0  0  0  0  0
    0.0992   -2.2186   -0.2738 C   0  0  0  0  0  0  0  0  0  0  0  0
    1.1927   -2.8098   -0.8743 C   0  0  0  0  0  0  0  0  0  0  0  0
    1.4286   -4.1669   -0.7188 C   0  0  0  0  0  0  0  0  0  0  0  0
    2.7863   -5.0112   -1.4710 S   0  0  0  0  0  0  0  0  0  0  0  0
    3.3001   -3.8905   -2.8051 C   0  0  0  0  0  0  0  0  0  0  0  0
    0.5790   -4.9140    0.0935 C   0  0  0  0  0  0  0  0  0  0  0  0
   -0.5095   -4.3246    0.6955 C   0  0  0  0  0  0  0  0  0  0  0  0
   -1.0260   -0.7989    2.7492 C   0  0  0  0  0  0  0  0  0  0  0  0
   -0.1670   -1.7707    3.8876 S   0  0  0  0  0  0  0  0  0  0  0  0
    0.4596   -0.3468    4.6701 C   0  0  0  0  0  0  0  0  0  0  0  0
    0.0229    0.8223    4.0744 C   0  0  0  0  0  0  0  0  0  0  0  0
    0.4808    2.1176    4.3986 N   0  0  0  0  0  0  0  0  0  0  0  0
   -0.2701    2.8873    5.2908 C   0  0  0  0  0  0  0  0  0  0  0  0
    0.3499    3.7722    6.1735 C   0  0  0  0  0  0  0  0  0  0  0  0
   -0.3890    4.5121    7.0759 C   0  0  0  0  0  0  0  0  0  0  0  0
   -1.7694    4.3764    7.1215 C   0  0  0  0  0  0  0  0  0  0  0  0
   -2.8219    5.2613    8.2329 S   0  0  0  0  0  0  0  0  0  0  0  0
   -1.7245    6.5076    8.9668 C   0  0  0  0  0  0  0  0  0  0  0  0
   -2.3926    3.4755    6.2632 C   0  0  0  0  0  0  0  0  0  0  0  0
   -1.6569    2.7381    5.3630 C   0  0  0  0  0  0  0  0  0  0  0  0
    1.6227    2.5816    3.7497 C   0  0  0  0  0  0  0  0  0  0  0  0
    1.8477    3.9498    3.5706 C   0  0  0  0  0  0  0  0  0  0  0  0
    2.9891    4.3972    2.9431 C   0  0  0  0  0  0  0  0  0  0  0  0
    3.9277    3.4935    2.4562 C   0  0  0  0  0  0  0  0  0  0  0  0
    5.3881    4.1799    1.7108 S   0  0  0  0  0  0  0  0  0  0  0  0
    6.2389    2.7390    1.0081 C   0  0  0  0  0  0  0  0  0  0  0  0
    3.6907    2.1352    2.5785 C   0  0  0  0  0  0  0  0  0  0  0  0
    2.5504    1.6883    3.2141 C   0  0  0  0  0  0  0  0  0  0  0  0
   -0.8220    0.5532    2.9782 C   0  0  0  0  0  0  0  0  0  0  0  0
   -1.5909    1.5282    1.7767 S   0  0  0  0  0  0  0  0  0  0  0  0
    1.4841   -0.4402    5.6920 C   0  0  0  0  0  0  0  0  0  0  0  0
    2.4494   -1.4575    5.6229 C   0  0  0  0  0  0  0  0  0  0  0  0
    2.2312   -2.4584    4.7311 O   0  0  0  0  0  0  0  0  0  0  0  0
    3.3019   -2.9295    3.9166 C   0  0  0  0  0  0  0  0  0  0  0  0
    2.7408   -3.2513    2.5387 C   0  0  0  0  0  0  0  0  0  0  0  0
    3.5792   -1.4184    6.4606 C   0  0  0  0  0  0  0  0  0  0  0  0
    4.4660   -2.4471    6.3223 O   0  0  0  0  0  0  0  0  0  0  0  0
    5.2836   -2.8048    7.4177 C   0  0  0  0  0  0  0  0  0  0  0  0
    5.8871   -4.1688    7.1210 C   0  0  0  0  0  0  0  0  0  0  0  0
    3.7529   -0.3324    7.3215 C   0  0  0  0  0  0  0  0  0  0  0  0
    2.7301    0.6065    7.4534 C   0  0  0  0  0  0  0  0  0  0  0  0
    1.6016    0.5422    6.6746 C   0  0  0  0  0  0  0  0  0  0  0  0
    5.0095   -0.0383    8.0262 C   0  0  0  0  0  0  0  0  0  0  0  0
    5.8913    0.8281    7.4898 C   0  0  0  0  0  0  0  0  0  0  0  0
    5.6878    1.4859    6.1632 C   0  0  0  0  0  0  0  0  0  0  0  0
    4.8517    1.2216    5.3300 O   0  0  0  0  0  0  0  0  0  0  0  0
    6.7431    2.5095    6.0747 C   0  0  0  0  0  0  0  0  0  0  0  0
    6.9403    3.4488    5.0809 C   0  0  0  0  0  0  0  0  0  0  0  0
    8.0087    4.3321    5.1754 C   0  0  0  0  0  0  0  0  0  0  0  0
    8.2790    5.3648    4.1329 C   0  0  0  0  0  0  0  0  0  0  0  0
    8.8400    4.2199    6.2947 C   0  0  0  0  0  0  0  0  0  0  0  0
    9.8756    5.0726    6.3975 F   0  0  0  0  0  0  0  0  0  0  0  0
    8.6640    3.2919    7.3068 C   0  0  0  0  0  0  0  0  0  0  0  0
    7.5917    2.4174    7.1939 C   0  0  0  0  0  0  0  0  0  0  0  0
    7.1341    1.3402    8.0589 C   0  0  0  0  0  0  0  0  0  0  0  0
    7.7801    0.8558    9.1634 C   0  0  0  0  0  0  0  0  0  0  0  0
    7.3447   -0.2567    9.9137 C   0  0  0  0  0  0  0  0  0  0  0  0
    7.0516   -1.1706   10.5440 N   0  0  0  0  0  0  0  0  0  0  0  0
    8.9900    1.3805    9.6659 C   0  0  0  0  0  0  0  0  0  0  0  0
    9.9692    1.7687   10.1212 N   0  0  0  0  0  0  0  0  0  0  0  0
   -4.8529   -0.8768   -6.4254 H   0  0  0  0  0  0  0  0  0  0  0  0
   -2.8053   -1.0854  -11.3580 H   0  0  0  0  0  0  0  0  0  0  0  0
    1.1312   -1.7831   -8.2490 H   0  0  0  0  0  0  0  0  0  0  0  0
    2.1957   -0.7325  -11.3476 H   0  0  0  0  0  0  0  0  0  0  0  0
    3.0234   -3.0790  -11.5084 H   0  0  0  0  0  0  0  0  0  0  0  0
    1.0557   -4.6144  -10.7288 H   0  0  0  0  0  0  0  0  0  0  0  0
   -0.9891   -4.2507  -12.3839 H   0  0  0  0  0  0  0  0  0  0  0  0
   -0.2818   -2.4893  -14.1842 H   0  0  0  0  0  0  0  0  0  0  0  0
    2.3124   -1.8778  -13.8105 H   0  0  0  0  0  0  0  0  0  0  0  0
    2.0869   -3.6418  -13.9208 H   0  0  0  0  0  0  0  0  0  0  0  0
    0.2142   -0.3774  -12.9508 H   0  0  0  0  0  0  0  0  0  0  0  0
    0.8992    0.7387   -6.3852 H   0  0  0  0  0  0  0  0  0  0  0  0
    1.0736    1.3736   -8.7521 H   0  0  0  0  0  0  0  0  0  0  0  0
   -3.0732    1.4593  -10.9813 H   0  0  0  0  0  0  0  0  0  0  0  0
   -2.4033    2.3401  -12.3752 H   0  0  0  0  0  0  0  0  0  0  0  0
   -2.9237    3.2467  -10.9400 H   0  0  0  0  0  0  0  0  0  0  0  0
   -3.1032    2.2971   -8.7996 H   0  0  0  0  0  0  0  0  0  0  0  0
   -3.2661    1.7144   -6.4568 H   0  0  0  0  0  0  0  0  0  0  0  0
   -0.5100    3.1792   -4.4661 H   0  0  0  0  0  0  0  0  0  0  0  0
    1.3270    3.9284   -3.0428 H   0  0  0  0  0  0  0  0  0  0  0  0
    2.1028    4.3590   -0.8173 H   0  0  0  0  0  0  0  0  0  0  0  0
    3.8382    4.4111   -0.4457 H   0  0  0  0  0  0  0  0  0  0  0  0
    3.3045    4.6584   -2.1207 H   0  0  0  0  0  0  0  0  0  0  0  0
    2.3612   -0.1422   -2.2478 H   0  0  0  0  0  0  0  0  0  0  0  0
    0.4694   -0.8986   -3.6404 H   0  0  0  0  0  0  0  0  0  0  0  0
   -6.0203   -1.2445    2.1027 H   0  0  0  0  0  0  0  0  0  0  0  0
   -6.3103    0.1005    4.1042 H   0  0  0  0  0  0  0  0  0  0  0  0
   -7.1510    1.4791    5.7843 H   0  0  0  0  0  0  0  0  0  0  0  0
   -6.1824    2.5107    6.8579 H   0  0  0  0  0  0  0  0  0  0  0  0
   -5.4273    1.0917    6.0978 H   0  0  0  0  0  0  0  0  0  0  0  0
   -4.7267    3.4998    2.0495 H   0  0  0  0  0  0  0  0  0  0  0  0
   -4.4486    2.1436    0.0280 H   0  0  0  0  0  0  0  0  0  0  0  0
   -7.5720   -0.5899    0.2989 H   0  0  0  0  0  0  0  0  0  0  0  0
   -9.0648   -2.4167   -0.2829 H   0  0  0  0  0  0  0  0  0  0  0  0
  -10.6054   -4.0814   -0.8001 H   0  0  0  0  0  0  0  0  0  0  0  0
   -9.4918   -4.7327    0.4470 H   0  0  0  0  0  0  0  0  0  0  0  0
  -10.4096   -5.8354   -0.6091 H   0  0  0  0  0  0  0  0  0  0  0  0
   -5.8605   -4.3959   -2.3057 H   0  0  0  0  0  0  0  0  0  0  0  0
   -4.3336   -2.6014   -1.6477 H   0  0  0  0  0  0  0  0  0  0  0  0
   -2.8741   -4.3780   -0.3936 H   0  0  0  0  0  0  0  0  0  0  0  0
   -4.9264   -5.6122    0.0094 H   0  0  0  0  0  0  0  0  0  0  0  0
   -6.0825   -7.3208    1.2410 H   0  0  0  0  0  0  0  0  0  0  0  0
   -7.8573   -7.3339    1.3483 H   0  0  0  0  0  0  0  0  0  0  0  0
   -7.0727   -6.4692    0.0090 H   0  0  0  0  0  0  0  0  0  0  0  0
   -5.6734   -3.2502    3.4911 H   0  0  0  0  0  0  0  0  0  0  0  0
   -3.5946   -1.9960    3.0842 H   0  0  0  0  0  0  0  0  0  0  0  0
   -0.0639   -1.1613   -0.4127 H   0  0  0  0  0  0  0  0  0  0  0  0
    1.8522   -2.2014   -1.4704 H   0  0  0  0  0  0  0  0  0  0  0  0
    4.0039   -4.4562   -3.4075 H   0  0  0  0  0  0  0  0  0  0  0  0
    3.7948   -3.0148   -2.3944 H   0  0  0  0  0  0  0  0  0  0  0  0
    2.4419   -3.6128   -3.4099 H   0  0  0  0  0  0  0  0  0  0  0  0
    0.7847   -5.9624    0.2465 H   0  0  0  0  0  0  0  0  0  0  0  0
   -1.1540   -4.9124    1.3314 H   0  0  0  0  0  0  0  0  0  0  0  0
    1.4259    3.8659    6.1635 H   0  0  0  0  0  0  0  0  0  0  0  0
    0.1291    5.1809    7.7448 H   0  0  0  0  0  0  0  0  0  0  0  0
   -0.9860    6.0306    9.6050 H   0  0  0  0  0  0  0  0  0  0  0  0
   -1.2511    7.0877    8.1802 H   0  0  0  0  0  0  0  0  0  0  0  0
   -2.3659    7.1481    9.5642 H   0  0  0  0  0  0  0  0  0  0  0  0
   -3.4655    3.3745    6.2997 H   0  0  0  0  0  0  0  0  0  0  0  0
   -2.1632    2.0525    4.7014 H   0  0  0  0  0  0  0  0  0  0  0  0
    1.1172    4.6655    3.9153 H   0  0  0  0  0  0  0  0  0  0  0  0
    3.1609    5.4565    2.8198 H   0  0  0  0  0  0  0  0  0  0  0  0
    7.1016    3.1355    0.4814 H   0  0  0  0  0  0  0  0  0  0  0  0
    6.5647    2.0747    1.8037 H   0  0  0  0  0  0  0  0  0  0  0  0
    5.5789    2.2296    0.3115 H   0  0  0  0  0  0  0  0  0  0  0  0
    4.3863    1.4069    2.1964 H   0  0  0  0  0  0  0  0  0  0  0  0
    2.3982    0.6260    3.3053 H   0  0  0  0  0  0  0  0  0  0  0  0
    3.7325   -3.8280    4.3713 H   0  0  0  0  0  0  0  0  0  0  0  0
    4.0811   -2.1643    3.8464 H   0  0  0  0  0  0  0  0  0  0  0  0
    1.9272   -3.9657    2.6251 H   0  0  0  0  0  0  0  0  0  0  0  0
    3.5194   -3.6778    1.9132 H   0  0  0  0  0  0  0  0  0  0  0  0
    2.3551   -2.3542    2.0607 H   0  0  0  0  0  0  0  0  0  0  0  0
    6.0845   -2.0635    7.5539 H   0  0  0  0  0  0  0  0  0  0  0  0
    4.6863   -2.8454    8.3375 H   0  0  0  0  0  0  0  0  0  0  0  0
    6.5320   -4.4670    7.9421 H   0  0  0  0  0  0  0  0  0  0  0  0
    5.0984   -4.9061    6.9993 H   0  0  0  0  0  0  0  0  0  0  0  0
    6.4693   -4.1267    6.2045 H   0  0  0  0  0  0  0  0  0  0  0  0
    2.8513    1.4102    8.1645 H   0  0  0  0  0  0  0  0  0  0  0  0
    0.8170    1.2682    6.8058 H   0  0  0  0  0  0  0  0  0  0  0  0
    5.1569   -0.4413    9.0199 H   0  0  0  0  0  0  0  0  0  0  0  0
    6.2595    3.4981    4.2455 H   0  0  0  0  0  0  0  0  0  0  0  0
    8.3364    6.3531    4.5869 H   0  0  0  0  0  0  0  0  0  0  0  0
    9.2404    5.1728    3.6568 H   0  0  0  0  0  0  0  0  0  0  0  0
    7.4993    5.3603    3.3766 H   0  0  0  0  0  0  0  0  0  0  0  0
    9.3490    3.2786    8.1387 H   0  0  0  0  0  0  0  0  0  0  0  0
  1  2  2  0  0  0  0
  2  3  1  0  0  0  0
  3  4  2  0  0  0  0
  3  5  1  0  0  0  0
  5  6  2  0  0  0  0
  6  7  1  0  0  0  0
  7  8  2  0  0  0  0
  8  9  1  0  0  0  0
  9 10  2  0  0  0  0
 10 11  1  0  0  0  0
 11 12  2  0  0  0  0
 12 13  1  0  0  0  0
 13 14  3  0  0  0  0
 12 15  1  0  0  0  0
 15 16  3  0  0  0  0
  8 17  1  0  0  0  0
 17 18  1  0  0  0  0
 18 19  1  0  0  0  0
 19 20  2  0  0  0  0
 20 21  1  0  0  0  0
 21 22  1  0  0  0  0
 21 23  1  0  0  0  0
  1 24  1  0  0  0  0
 24 25  2  0  0  0  0
 25 26  1  0  0  0  0
 26 27  1  0  0  0  0
 27 28  2  0  0  0  0
 28 29  1  0  0  0  0
 29 30  2  0  0  0  0
 30 31  1  0  0  0  0
 31 32  1  0  0  0  0
 30 33  1  0  0  0  0
 33 34  2  0  0  0  0
 26 35  1  0  0  0  0
 35 36  2  0  0  0  0
 36 37  1  0  0  0  0
 37 38  2  0  0  0  0
 38 39  1  0  0  0  0
 39 40  1  0  0  0  0
 38 41  1  0  0  0  0
 41 42  2  0  0  0  0
 25 43  1  0  0  0  0
 43 44  1  0  0  0  0
 44 45  1  0  0  0  0
 45 46  2  0  0  0  0
 46 47  1  0  0  0  0
 47 48  1  0  0  0  0
 48 49  2  0  0  0  0
 49 50  1  0  0  0  0
 50 51  2  0  0  0  0
 51 52  1  0  0  0  0
 52 53  1  0  0  0  0
 51 54  1  0  0  0  0
 54 55  2  0  0  0  0
 47 56  1  0  0  0  0
 56 57  2  0  0  0  0
 57 58  1  0  0  0  0
 58 59  2  0  0  0  0
 59 60  1  0  0  0  0
 60 61  1  0  0  0  0
 59 62  1  0  0  0  0
 62 63  2  0  0  0  0
 46 64  1  0  0  0  0
 64 65  1  0  0  0  0
 45 66  1  0  0  0  0
 66 67  2  0  0  0  0
 67 68  1  0  0  0  0
 68 69  1  0  0  0  0
 69 70  2  0  0  0  0
 70 71  1  0  0  0  0
 71 72  2  0  0  0  0
 72 73  1  0  0  0  0
 73 74  1  0  0  0  0
 72 75  1  0  0  0  0
 75 76  2  0  0  0  0
 68 77  1  0  0  0  0
 77 78  2  0  0  0  0
 78 79  1  0  0  0  0
 79 80  2  0  0  0  0
 80 81  1  0  0  0  0
 81 82  1  0  0  0  0
 80 83  1  0  0  0  0
 83 84  2  0  0  0  0
 67 85  1  0  0  0  0
 85 86  1  0  0  0  0
 86 87  1  0  0  0  0
 87 88  2  0  0  0  0
 88 89  1  0  0  0  0
 89 90  1  0  0  0  0
 90 91  2  0  0  0  0
 91 92  1  0  0  0  0
 92 93  2  0  0  0  0
 93 94  1  0  0  0  0
 94 95  1  0  0  0  0
 93 96  1  0  0  0  0
 96 97  2  0  0  0  0
 89 98  1  0  0  0  0
 98 99  2  0  0  0  0
 99100  1  0  0  0  0
100101  2  0  0  0  0
101102  1  0  0  0  0
102103  1  0  0  0  0
101104  1  0  0  0  0
104105  2  0  0  0  0
 88106  1  0  0  0  0
106107  1  0  0  0  0
 87108  1  0  0  0  0
108109  2  0  0  0  0
109110  1  0  0  0  0
110111  1  0  0  0  0
111112  1  0  0  0  0
109113  1  0  0  0  0
113114  1  0  0  0  0
114115  1  0  0  0  0
115116  1  0  0  0  0
113117  2  0  0  0  0
117118  1  0  0  0  0
118119  2  0  0  0  0
117120  1  0  0  0  0
120121  2  0  0  0  0
121122  1  0  0  0  0
122123  2  0  0  0  0
122124  1  0  0  0  0
124125  2  0  0  0  0
125126  1  0  0  0  0
126127  1  0  0  0  0
126128  2  0  0  0  0
128129  1  0  0  0  0
128130  1  0  0  0  0
130131  2  0  0  0  0
131132  1  0  0  0  0
132133  2  0  0  0  0
133134  1  0  0  0  0
134135  3  0  0  0  0
133136  1  0  0  0  0
136137  3  0  0  0  0
 11  2  1  0  0  0  0
 23 17  1  0  0  0  0
 65 24  1  0  0  0  0
107 66  1  0  0  0  0
119108  1  0  0  0  0
132121  1  0  0  0  0
 10  5  1  0  0  0  0
 22 18  1  0  0  0  0
 34 27  1  0  0  0  0
 42 35  1  0  0  0  0
 64 43  2  0  0  0  0
 76 69  1  0  0  0  0
 84 77  1  0  0  0  0
106 85  2  0  0  0  0
131124  1  0  0  0  0
 23  7  1  0  0  0  0
 55 48  1  0  0  0  0
 63 56  1  0  0  0  0
 97 90  1  0  0  0  0
105 98  1  0  0  0  0
  1138  1  0  0  0  0
  6139  1  0  0  0  0
  9140  1  0  0  0  0
 17141  1  0  0  0  0
 18142  1  0  0  0  0
 19143  1  0  0  0  0
 20144  1  0  0  0  0
 21145  1  0  0  0  0
 22146  1  0  0  0  0
 22147  1  0  0  0  0
 23148  1  0  0  0  0
 28149  1  0  0  0  0
 29150  1  0  0  0  0
 32151  1  0  0  0  0
 32152  1  0  0  0  0
 32153  1  0  0  0  0
 33154  1  0  0  0  0
 34155  1  0  0  0  0
 36156  1  0  0  0  0
 37157  1  0  0  0  0
 40158  1  0  0  0  0
 40159  1  0  0  0  0
 40160  1  0  0  0  0
 41161  1  0  0  0  0
 42162  1  0  0  0  0
 49163  1  0  0  0  0
 50164  1  0  0  0  0
 53165  1  0  0  0  0
 53166  1  0  0  0  0
 53167  1  0  0  0  0
 54168  1  0  0  0  0
 55169  1  0  0  0  0
 57170  1  0  0  0  0
 58171  1  0  0  0  0
 61172  1  0  0  0  0
 61173  1  0  0  0  0
 61174  1  0  0  0  0
 62175  1  0  0  0  0
 63176  1  0  0  0  0
 70177  1  0  0  0  0
 71178  1  0  0  0  0
 74179  1  0  0  0  0
 74180  1  0  0  0  0
 74181  1  0  0  0  0
 75182  1  0  0  0  0
 76183  1  0  0  0  0
 78184  1  0  0  0  0
 79185  1  0  0  0  0
 82186  1  0  0  0  0
 82187  1  0  0  0  0
 82188  1  0  0  0  0
 83189  1  0  0  0  0
 84190  1  0  0  0  0
 91191  1  0  0  0  0
 92192  1  0  0  0  0
 95193  1  0  0  0  0
 95194  1  0  0  0  0
 95195  1  0  0  0  0
 96196  1  0  0  0  0
 97197  1  0  0  0  0
 99198  1  0  0  0  0
100199  1  0  0  0  0
103200  1  0  0  0  0
103201  1  0  0  0  0
103202  1  0  0  0  0
104203  1  0  0  0  0
105204  1  0  0  0  0
111205  1  0  0  0  0
111206  1  0  0  0  0
112207  1  0  0  0  0
112208  1  0  0  0  0
112209  1  0  0  0  0
115210  1  0  0  0  0
115211  1  0  0  0  0
116212  1  0  0  0  0
116213  1  0  0  0  0
116214  1  0  0  0  0
118215  1  0  0  0  0
119216  1  0  0  0  0
120217  1  0  0  0  0
125218  1  0  0  0  0
127219  1  0  0  0  0
127220  1  0  0  0  0
127221  1  0  0  0  0
130222  1  0  0  0  0
M  END
