146

C         -2.11460        2.84640       -6.09900
C         -3.32120        2.47740       -5.62430
C         -3.56170        1.95230       -4.24300
O         -2.73110        1.63060       -3.42430
C         -5.01930        1.80200       -4.12420
C         -5.72160        1.42150       -2.98230
C         -7.08160        1.35930       -3.15740
C         -7.70090        1.64760       -4.38290
C         -7.02110        2.02390       -5.51570
C         -5.63150        2.09580       -5.36060
C         -4.60020        2.45440       -6.32790
C         -4.80010        2.71610       -7.65450
C         -6.05620        2.66940       -8.29840
N         -7.04040        2.64420       -8.88810
C         -3.78790        3.04110       -8.58440
N         -3.03150        3.30520       -9.40640
C         -9.07990        1.36770       -3.84030
C         -9.73830        0.01460       -4.20860
C         -8.61260       -0.95550       -4.46900
C         -8.02950       -1.22100       -3.30770
C         -8.75010       -0.43410       -2.24070
C        -10.17740       -0.44930       -2.81030
C         -8.39070        1.05410       -2.47500
C         -0.92900        2.93250       -5.26460
C         -0.92080        3.58470       -4.04860
F         -1.99270        4.28770       -3.65350
C          0.18570        3.53020       -3.18960
F          0.06930        4.09800       -1.98080
C          1.33300        2.84440       -3.52840
C          1.40450        2.27350       -4.82360
N          2.55460        1.72690       -5.25290
C          2.59180        1.16010       -6.43060
C          3.93510        0.67750       -6.88880
C          4.62030        1.76000       -7.72770
C          1.41930        1.08440       -7.24160
N          0.31000        1.66730       -6.86400
C          0.27320        2.30120       -5.67800
C          1.35510        0.32100       -8.52880
C          1.06070       -1.15460       -8.24420
C          2.35540        2.56550       -2.51730
C          2.94150        3.53340       -1.73560
F          2.74840        4.83100       -2.01210
C          3.73310        3.20410       -0.62000
F          4.26180        4.20760        0.09340
C          3.96280        1.89560       -0.26270
C          3.45240        0.87480       -1.10740
N          3.68220       -0.41230       -0.80640
C          3.20010       -1.35560       -1.57560
C          3.57970       -2.75290       -1.18910
C          5.07160       -2.98150       -1.44560
C          2.37440       -1.02160       -2.68990
N          2.10910        0.22870       -2.97080
C          2.65140        1.20670       -2.22780
C          1.75260       -2.03180       -3.60670
C          2.76680       -2.53000       -4.63760
C          4.49100        1.51510        1.04950
C          5.47310        0.57340        1.25010
F          6.20860        0.12190        0.22540
C          5.73470        0.05320        2.53020
F          6.65290       -0.91970        2.64450
C          5.01580        0.44140        3.64060
C          4.07330        1.49790        3.47720
N          3.45310        2.02050        4.54640
C          2.54230        2.94550        4.37750
C          1.91300        3.49200        5.62300
C          0.65710        2.69410        5.98280
C          2.17180        3.36400        3.06560
N          2.81130        2.90240        2.02340
C          3.79370        2.00330        2.18680
C          1.12540        4.39610        2.78070
C          1.78520        5.77300        2.65730
C          5.17410       -0.17070        4.94370
C          4.09770       -0.52720        5.67810
C          2.71580       -0.62240        5.11890
O          2.37810       -0.54260        3.95810
C          1.84970       -0.96840        6.25620
C          0.46130       -1.09870        6.23020
C         -0.09160       -1.43560        7.44050
C          0.68050       -1.64240        8.59340
C          2.04870       -1.52290        8.63180
C          2.63520       -1.17220        7.40900
C          4.03770       -0.94710        7.07230
C          5.09720       -1.07230        7.92710
C          6.44570       -0.82200        7.58960
N          7.56150       -0.63210        7.40030
C          4.99550       -1.47820        9.27550
N          4.98630       -1.80670       10.37520
C         -0.52700       -1.96650        9.43800
C         -0.77610       -3.45910        9.74320
C         -2.23140       -3.50630       10.15050
C         -2.96230       -3.30420        9.06170
C         -2.01340       -3.11680        7.90000
C         -0.87830       -4.05370        8.33260
C         -1.38640       -1.72960        8.15470
H         -1.96260        3.06020       -7.14770
H         -5.20250        1.21050       -2.06060
H         -7.51390        2.24840       -6.44690
H         -9.78500        2.19540       -3.87890
H        -10.50270        0.08000       -4.97800
H         -8.32900       -1.29410       -5.44820
H         -7.16100       -1.82550       -3.12230
H         -8.61500       -0.77580       -1.21790
H        -10.61750       -1.44520       -2.81620
H        -10.85060        0.24760       -2.31310
H         -8.64060        1.68170       -1.62180
H          3.84270       -0.23910       -7.47170
H          4.54180        0.47960       -6.00420
H          4.75040        2.66140       -7.13440
H          4.02690        2.00920       -8.60490
H          5.59760        1.41530       -8.05600
H          0.54390        0.73730       -9.12680
H          2.28840        0.41250       -9.08370
H          0.11660       -1.24900       -7.71340
H          0.99200       -1.70780       -9.17750
H          1.84390       -1.59860       -7.63340
H          2.98740       -3.48780       -1.73210
H          3.39110       -2.86810       -0.11990
H          5.35860       -3.97900       -1.12290
H          5.65630       -2.25070       -0.89460
H          5.30370       -2.87810       -2.50370
H          1.35380       -2.87260       -3.03700
H          0.92880       -1.53760       -4.12400
H          2.28540       -3.21260       -5.33410
H          3.58960       -3.05210       -4.15650
H          3.16990       -1.68670       -5.19320
H          2.63540        3.40170        6.43550
H          1.65980        4.54380        5.49040
H         -0.07310        2.73190        5.17750
H          0.91520        1.65310        6.16050
H          0.20290        3.09870        6.88420
H          0.36450        4.41170        3.56000
H          0.65590        4.14860        1.82790
H          1.03720        6.52370        2.41640
H          2.52910        5.75440        1.86550
H          2.27710        6.05530        3.58610
H          6.18300       -0.30000        5.31100
H         -0.09120       -0.93180        5.31860
H          2.62520       -1.68290        9.52740
H         -0.68890       -1.32360       10.30090
H         -0.06160       -3.90900       10.42680
H         -2.56710       -3.62350       11.16400
H         -4.03020       -3.21840        8.98380
H         -2.42550       -3.25420        6.90380
H          0.02980       -3.95380        7.74080
H         -1.18960       -5.09680        8.34790
H         -2.11920       -0.92490        8.15900
