170

C          4.06790       -0.96290       -6.08500
C          5.00740       -0.02870       -5.79610
C          5.98330        0.40810       -6.82850
O          5.93550        0.18490       -8.01650
C          7.04480        1.11780       -6.08610
C          8.24020        1.61770       -6.59890
C          9.04710        2.21470       -5.66030
C          8.69670        2.30610       -4.30610
C          7.51800        1.82690       -3.78760
C          6.67860        1.21840       -4.72770
C          5.35170        0.63270       -4.55290
C          4.52710        0.87850       -3.48550
C          3.16320        0.53300       -3.38760
N          2.04140        0.36150       -3.20480
C          4.89700        1.59510       -2.32920
N          5.11210        2.15010       -1.34610
C          9.97840        3.01130       -3.93880
C         11.06480        2.15680       -3.25220
C         12.33200        2.95720       -3.45010
C         12.66290        2.87820       -4.73270
C         11.62550        2.02250       -5.42320
C         11.28870        1.04730       -4.28770
C         10.36670        2.91530       -5.44930
C          3.30700       -1.69900       -5.12280
C          1.96760       -2.02470       -5.32460
F          1.42110       -1.75990       -6.52530
C          1.12080       -2.46370       -4.32470
C          1.60730       -2.68250       -3.03480
C          3.02980       -2.66680       -2.88250
N          3.55840       -3.08560       -1.72320
C          4.84250       -2.99940       -1.53250
C          5.68580       -2.47200       -2.54670
O          6.99470       -2.44020       -2.31920
C          7.82820       -1.98380       -3.38210
C          9.26990       -2.26620       -3.00250
N          5.19560       -2.03820       -3.68540
C          3.86620       -2.12770       -3.88640
C          0.81970       -2.67750       -1.85100
C         -0.52670       -2.30640       -1.71730
N         -1.48560       -2.23010       -2.70900
C         -2.30210       -1.07660       -2.63290
C         -3.67860       -1.16340       -2.46020
C         -4.42260       -0.02060       -2.24020
C         -3.79610        1.21850       -2.19220
S         -4.65130        2.72410       -1.86300
C         -6.12390        2.17460       -0.95370
C         -2.42450        1.30890       -2.42280
C         -1.67970        0.17140       -2.63800
C         -1.80180       -3.28870       -3.55280
C         -1.36880       -4.58560       -3.27930
C         -1.68240       -5.62900       -4.12730
C         -2.44060       -5.39910       -5.26750
S         -2.91200       -6.65000       -6.41900
C         -2.07110       -8.14100       -5.81560
C         -2.87840       -4.10430       -5.54460
C         -2.56250       -3.06190       -4.70490
C         -0.80680       -1.88590       -0.39730
S         -2.14320       -1.08040        0.35510
C         -1.20610       -0.84350        1.82140
C          0.06000       -1.40880        1.72890
N          1.07440       -1.30370        2.68570
C          1.74030       -0.06840        2.78870
C          1.79930        0.80180        1.70440
C          2.51080        1.98230        1.78390
C          3.17940        2.31320        2.95430
S          4.17070        3.76040        3.13320
C          4.38540        4.34330        1.42660
C          3.08230        1.46830        4.05930
C          2.36900        0.29300        3.98060
C          1.71510       -2.49930        3.02930
C          3.09680       -2.58990        3.20160
C          3.67440       -3.79180        3.54210
C          2.89570       -4.93510        3.71050
S          3.75810       -6.41510        4.14420
C          2.44640       -7.66150        4.29060
C          1.52240       -4.85370        3.53070
C          0.94160       -3.64630        3.19670
C          0.26210       -2.01520        0.47320
S          1.66000       -2.68330       -0.30170
C         -1.79580       -0.10240        2.87410
C         -1.30780        0.14930        4.13940
C         -2.17460        0.91690        4.92410
O         -1.77510        1.17090        6.17890
C         -2.65060        1.57290        7.21250
C         -3.35690        1.29910        4.24080
S         -3.37320        0.57440        2.64110
C         -4.30260        2.23040        4.67450
C         -5.47810        2.65220        4.08970
C         -6.12490        2.07790        2.91010
O         -5.71320        1.18530        2.18480
C         -7.40820        2.78400        2.75190
C         -8.37820        2.55410        1.77980
C         -9.45860        3.39940        1.85720
C         -9.56940        4.39480        2.83590
C         -8.62850        4.61710        3.81410
C         -7.51890        3.77050        3.75080
C         -6.32780        3.70550        4.59950
C         -6.08600        4.52870        5.67370
C         -4.93310        4.51350        6.48060
N         -4.02500        4.57230        7.18510
C         -6.96770        5.52890        6.13210
N         -7.63030        6.35700        6.57310
C        -10.89190        4.88430        2.30150
C        -10.88950        6.18490        1.46040
C         -9.52070        6.29290        0.83560
C         -9.42180        5.34780       -0.08960
C        -10.72160        4.58180       -0.10520
C        -11.70420        5.71020        0.24640
C        -10.77100        3.77080        1.21360
H          3.89850       -1.17670       -7.13470
H          8.47130        1.53010       -7.64880
H          7.25930        1.90250       -2.74390
H          9.86550        3.99660       -3.49080
H         10.83110        1.85430       -2.23510
H         12.80950        3.52580       -2.67410
H         13.47200        3.36770       -5.24210
H         11.90280        1.59710       -6.38380
H         12.13100        0.40730       -4.03010
H         10.40850        0.43570       -4.47800
H         10.50960        3.83730       -6.00950
H          0.07790       -2.55270       -4.56730
H          5.24440       -3.34780       -0.59390
H          7.66310       -0.91050       -3.53310
H          7.54660       -2.50320       -4.30540
H          9.53540       -1.71770       -2.10300
H          9.40480       -3.32780       -2.81340
H          9.92770       -1.96400       -3.81190
H         -4.16050       -2.12980       -2.47050
H         -5.48560       -0.10900       -2.08670
H         -5.82120        1.52160       -0.13940
H         -6.57180        3.08030       -0.55470
H         -6.82470        1.68570       -1.62470
H         -1.95150        2.27840       -2.41120
H         -0.61210        0.23350       -2.79050
H         -0.78670       -4.77980       -2.39130
H         -1.33380       -6.61830       -3.87920
H         -2.45820       -8.42070       -4.84000
H         -0.99850       -7.97350       -5.78330
H         -2.30140       -8.91790       -6.53810
H         -3.46270       -3.92760       -6.43420
H         -2.89110       -2.06070       -4.93860
H          1.30990        0.54570        0.77660
H          2.55230        2.62140        0.91720
H          5.14120        5.12110        1.47870
H          4.73140        3.52920        0.79670
H          3.45510        4.76300        1.05410
H          3.58250        1.74240        4.97540
H          2.31370       -0.36580        4.83480
H          3.71630       -1.71920        3.05280
H          4.74350       -3.86320        3.67260
H          2.94950       -8.58380        4.56400
H          1.74880       -7.37690        5.07290
H          1.94260       -7.78540        3.33630
H          0.88990       -5.71820        3.65180
H         -0.12920       -3.58720        3.06590
H         -0.36750       -0.20610        4.51430
H         -2.17200        1.24290        8.13540
H         -3.62940        1.09490        7.12300
H         -2.76530        2.66060        7.25420
H         -4.05330        2.72660        5.59890
H         -8.25660        1.77220        1.04680
H         -8.73700        5.38130        4.56500
H        -11.73370        4.83760        2.98950
H        -11.24520        7.06460        1.99000
H         -8.76780        6.98770        1.15890
H         -8.57100        5.09870       -0.69680
H        -10.92630        4.00110       -1.00100
H        -12.70030        5.35350        0.50480
H        -11.77490        6.46550       -0.53490
H        -11.53180        2.99270        1.19500
