190

C         -4.74240       -6.25170        4.02200
C         -5.95860       -6.32670        3.44220
C         -6.80770       -7.54240        3.61280
O         -6.69410       -8.39460        4.46110
C         -7.75620       -7.50260        2.48340
C         -8.64510       -8.50450        2.09760
C         -9.37660       -8.20340        0.97430
C         -9.24830       -6.98700        0.28850
C         -8.39060       -5.98300        0.66650
C         -7.62190       -6.27660        1.79630
C         -6.61070       -5.46890        2.46790
C         -6.46320       -4.11270        2.36010
C         -7.14710       -3.30510        1.43210
N         -7.64000       -2.59450        0.67530
C         -5.60450       -3.34270        3.17090
N         -4.94830       -2.64540        3.80430
C        -10.26360       -7.37630       -0.75550
C         -9.73200       -7.81970       -2.14150
C         -8.34690       -8.37320       -1.91480
C         -8.47130       -9.52320       -1.26590
C         -9.94290       -9.76850       -1.04240
C        -10.52030       -9.12770       -2.31480
C        -10.40880       -8.73010        0.00870
C         -3.66370       -5.37860        3.63670
C         -2.76170       -4.89310        4.56710
F         -2.90510       -5.22650        5.85760
C         -1.75080       -3.98530        4.22580
F         -1.00330       -3.47710        5.21430
C         -1.55820       -3.57420        2.92380
C         -2.37850       -4.16130        1.92330
N         -2.12050       -3.90770        0.63170
C         -2.89530       -4.39930       -0.29780
C         -2.53420       -4.08100       -1.71830
C         -1.12810       -3.50780       -1.84370
C         -3.99810       -5.23460        0.05100
N         -4.22080       -5.54150        1.30500
C         -3.44200       -5.02610        2.27280
C         -4.92600       -5.86050       -0.94740
C         -5.80490       -4.84220       -1.67700
C         -0.62610       -2.51760        2.55030
C          0.69800       -2.49330        2.94060
F          1.20700       -3.51810        3.64350
C          1.56620       -1.45960        2.57760
F          2.87050       -1.60100        2.88320
C          1.13730       -0.36280        1.84090
C         -0.18920       -0.43320        1.32600
N         -0.57740        0.47980        0.42950
C         -1.79600        0.45500       -0.05620
C         -2.09910        1.47980       -1.10400
C         -2.78200        2.70840       -0.50130
C         -2.72760       -0.50520        0.43360
N         -2.34420       -1.43420        1.27360
C         -1.07590       -1.46630        1.70600
C         -4.18030       -0.53490        0.06470
C         -5.03400       -0.05190        1.23970
C          1.94580        0.77280        1.53550
C          3.00770        1.29730        2.27280
N          3.31210        0.95570        3.57180
C          4.64170        1.01020        4.00450
C          4.95620        1.46450        5.28180
C          6.26980        1.52810        5.70210
C          7.29380        1.14360        4.84640
S          9.00680        1.18610        5.26560
C          9.03320        1.87810        6.94380
C          6.98170        0.68250        3.56860
C          5.67240        0.61210        3.15190
C          2.28130        0.61950        4.46690
C          2.46520       -0.38210        5.41620
C          1.43740       -0.75500        6.26030
C          0.19940       -0.13150        6.16980
S         -1.19160       -0.52660        7.17120
C         -0.63860       -1.94720        8.15420
C          0.02060        0.89190        5.23780
C          1.04620        1.26710        4.40200
C          3.63680        2.34460        1.55860
S          4.96890        3.38520        1.90410
C          4.73660        4.22640        0.36360
C          3.58550        3.77140       -0.31340
N          2.99070        4.36710       -1.39040
C          2.13770        3.61140       -2.21560
C          0.90530        4.13310       -2.60500
C          0.04670        3.37260       -3.36670
C          0.40250        2.08110       -3.75220
S         -0.80000        1.16800       -4.66830
C         -0.20950       -0.54470       -4.53610
C          1.65230        1.58170       -3.41160
C          2.51360        2.34380       -2.64750
C          3.16320        5.72510       -1.68970
C          3.18700        6.69030       -0.68550
C          3.42770        8.01530       -0.98440
C          3.65750        8.40230       -2.30090
S          4.07500       10.03930       -2.79260
C          4.17720       10.96300       -1.23490
C          3.56880        7.45020       -3.31580
C          3.31900        6.12940       -3.01730
C          3.01660        2.66320        0.35840
S          1.59410        1.69740        0.09220
C          5.66760        5.21590        0.03610
C          5.95620        5.66380       -1.23480
C          5.77140        4.86290       -2.45550
O          5.30000        3.74340       -2.54300
C          6.39090        5.64530       -3.54570
C          6.46770        5.29720       -4.88990
C          7.08550        6.23970       -5.67810
C          7.59390        7.43940       -5.16670
C          7.52840        7.79360       -3.83930
C          6.90470        6.84830       -3.02380
C          6.62170        6.88510       -1.59150
C          6.80240        7.96520       -0.76170
C          7.39860        9.18140       -1.14290
N          7.86540       10.20550       -1.37520
C          6.32710        8.02660        0.56240
N          5.91830        8.18230        1.62550
C          8.08270        7.90170       -6.51680
C          9.59790        7.78750       -6.81530
C         10.12050        6.66410       -5.95510
C          9.63920        5.52660       -6.43830
C          8.78250        5.86060       -7.63440
C          9.54210        7.08070       -8.17910
C          7.51550        6.56360       -7.08740
H         -4.53280       -6.96840        4.80900
H         -8.71970       -9.42430        2.65610
H         -8.30260       -5.05130        0.13310
H        -11.14020       -6.73660       -0.83290
H         -9.82820       -7.06980       -2.92240
H         -7.44260       -7.86290       -2.19130
H         -7.69330      -10.16240       -0.89140
H        -10.23050      -10.79320       -0.82330
H        -11.60010       -8.99120       -2.28030
H        -10.24650       -9.66800       -3.21980
H        -11.38060       -8.97510        0.43210
H         -2.62830       -4.98460       -2.32580
H         -3.25220       -3.34960       -2.09990
H         -1.04910       -2.58080       -1.28310
H         -0.39790       -4.20560       -1.44350
H         -0.89580       -3.31480       -2.88840
H         -4.34290       -6.42650       -1.67860
H         -5.56010       -6.56070       -0.39930
H         -5.23340       -4.26610       -2.39850
H         -6.26150       -4.15090       -0.97360
H         -6.59770       -5.36020       -2.21120
H         -1.14890        1.78920       -1.54100
H         -2.72620        1.05230       -1.88770
H         -3.74370        2.45000       -0.06600
H         -2.94070        3.45640       -1.27370
H         -2.15250        3.13840        0.27370
H         -4.37620        0.07380       -0.81680
H         -4.45290       -1.56990       -0.15250
H         -6.08900       -0.15210        0.99780
H         -4.82360        0.99000        1.47030
H         -4.81930       -0.65020        2.12180
H          4.16510        1.77700        5.94720
H          6.47880        1.88780        6.69650
H          8.59420        2.87150        6.94180
H          8.51280        1.21540        7.62910
H         10.08200        1.93940        7.21710
H          7.78090        0.37440        2.91230
H          5.43550        0.23410        2.16910
H          3.41670       -0.88890        5.47410
H          1.61140       -1.54570        6.97110
H          0.16520       -1.64940        8.82150
H         -0.33420       -2.75150        7.49290
H         -1.50440       -2.25390        8.73280
H         -0.93590        1.38860        5.18370
H          0.89350        2.06450        3.68980
H          0.62000        5.12620       -2.29150
H         -0.91690        3.76120       -3.65870
H         -1.02020       -1.16420       -4.90700
H          0.67210       -0.68990       -5.15370
H         -0.00580       -0.77630       -3.49480
H          1.96890        0.60440       -3.73730
H          3.49530        1.97480       -2.39710
H          3.02590        6.40260        0.34250
H          3.44550        8.73250       -0.18030
H          3.20120       11.00270       -0.76010
H          4.91970       10.51640       -0.58040
H          4.49460       11.96280       -1.51400
H          3.72190        7.75890       -4.33840
H          3.26470        5.39490       -3.80640
H          6.23040        5.62370        0.86780
H          6.05910        4.36440       -5.24690
H          7.92600        8.71890       -3.45650
H          7.65630        8.83340       -6.88360
H         10.14100        8.72720       -6.76000
H         10.72000        6.81200       -5.07600
H          9.75580        4.53450       -6.04290
H          8.58420        5.04510       -8.32540
H         10.52910        6.82600       -8.56270
H          8.98630        7.63640       -8.93330
H          6.72120        6.62250       -7.82930
