198

C         -3.51040        0.03260       -7.19650
C         -3.23650       -0.10580       -8.53790
C         -2.10350        0.47790       -9.25650
O         -1.17570        1.12390       -8.79260
C         -2.32200        0.18820      -10.68360
C         -1.49070        0.52840      -11.74730
C         -1.96640        0.13470      -12.97540
C         -3.18010       -0.54590      -13.13350
C         -4.00510       -0.89570      -12.08990
C         -3.53870       -0.50800      -10.83180
C         -4.11180       -0.72770       -9.50380
C         -5.26810       -1.42380       -9.24590
C         -5.75660       -1.77400       -7.97300
N         -6.21700       -2.15030       -6.98820
C         -6.13510       -1.93370      -10.23310
N         -6.90610       -2.36340      -10.96860
C         -3.02700       -0.63490      -14.63140
C         -2.58680       -1.99280      -15.23180
C         -1.80220       -2.70250      -14.15630
C         -0.65130       -2.06110      -14.00460
C         -0.63660       -0.90610      -14.97520
C         -1.43810       -1.51720      -16.13560
C         -1.67220        0.12100      -14.45440
C         -2.76240        0.62390       -6.17880
C         -3.22850        0.77500       -4.85120
N         -4.46420        0.44030       -4.35610
C         -4.47250        0.00720       -3.00900
C         -5.22210        0.66630       -2.04190
C         -5.05770        0.35300       -0.70600
C         -4.14490       -0.62310       -0.32520
S         -3.76680       -0.98800        1.35990
C         -4.13630        0.58250        2.18990
C         -3.47090       -1.35370       -1.30120
C         -3.63280       -1.04090       -2.63170
C         -5.66750        0.60140       -5.05010
C         -5.82990        1.62870       -5.98210
C         -6.99150        1.71760       -6.71410
C         -8.02200        0.80000       -6.51610
S         -9.44030        0.93540       -7.55780
C        -10.10530       -0.75510       -7.53660
C         -7.89600       -0.16870       -5.53040
C         -6.72370       -0.27230       -4.80870
C         -2.20700        1.26030       -4.01940
S         -2.14010        1.67770       -2.34260
C         -0.41960        2.02960       -2.47110
C          0.06610        1.83990       -3.76220
N          1.38210        1.89530       -4.18190
C          1.60230        2.19710       -5.54180
C          0.95790        3.28760       -6.11760
C          1.07570        3.53650       -7.47000
C          1.84150        2.69460       -8.26400
S          1.98360        2.90790      -10.00900
C          0.38580        3.67230      -10.41910
C          2.53770        1.64020       -7.68020
C          2.41860        1.38960       -6.33140
C          2.45330        1.50950       -3.37520
C          3.72170        2.05080       -3.60460
C          4.76040        1.77950       -2.74510
C          4.55520        0.97750       -1.62540
S          5.89260        0.81180       -0.48060
C          5.01670        0.48460        1.07790
C          3.33010        0.35270       -1.44990
C          2.29360        0.60500       -2.32780
C         -0.98380        1.45250       -4.64290
S         -1.08050        1.14410       -6.34290
C          0.19320        2.26510       -1.20910
Se        -0.58220        1.38820        0.28520
C          0.81750        2.07140        1.34530
C          1.66080        2.86500        0.58380
C          2.79140        3.67340        0.89070
C          3.24340        4.38910       -0.16380
C          4.38980        5.33620       -0.20060
C          5.52980        4.80250       -1.06880
S          2.31350        4.11010       -1.62840
C          1.29430        2.97500       -0.79430
C          0.86820        1.71750        2.72000
C          1.92430        1.62810        3.58450
C          1.57630        1.11950        4.85920
C          2.41900        0.81980        5.94980
C          3.85800        0.94350        5.87180
C          4.66760        0.60770        4.82050
C          6.04900        0.78490        5.02380
C          6.39110        1.28610        6.24920
S          8.03440        1.64660        6.72330
C          7.86320        1.85400        8.53090
C          7.64570        0.54060        9.25460
Se         4.87150        1.59360        7.31820
C          1.80000        0.34800        7.10630
C          0.40300        0.12810        7.21000
C         -0.43930        0.39990        6.10820
C         -1.87280        0.18950        6.12760
C         -2.82180        1.08420        5.72270
C         -4.14950        0.61130        5.71990
C         -4.29920       -0.69220        6.09320
S         -5.84070       -1.50670        6.20110
C         -5.35570       -3.19570        5.69410
C         -4.94870       -3.25160        4.23650
Se        -2.64990       -1.46150        6.59590
C          0.18080        0.88180        4.96910
S         -0.63830        1.22010        3.46840
C          0.04850       -0.34920        8.48000
C          1.12070       -0.52710        9.33520
S          2.63290       -0.08930        8.56680
C          0.96160       -0.99940       10.65400
C          1.89180       -1.26690       11.61840
C          3.35510       -1.14550       11.48590
O          3.98780       -0.72310       10.53590
C          3.92560       -1.64590       12.74660
C          5.27760       -1.75910       13.06280
C          5.51770       -2.27140       14.31450
C          4.48700       -2.64850       15.18640
C          3.14990       -2.54450       14.88530
C          2.88220       -2.01930       13.61740
C          1.60550       -1.76600       12.95330
C          0.37070       -1.94960       13.51960
C         -0.87300       -1.69030       12.90530
N         -1.92990       -1.51000       12.49240
C          0.15570       -2.41670       14.83380
N         -0.10090       -2.78680       15.89010
C          5.44870       -3.07470       16.26660
C          5.64940       -2.12040       17.46980
C          5.34440       -0.73000       16.97030
C          6.32030       -0.37260       16.14630
C          7.30280       -1.51540       16.07320
C          7.18510       -2.06530       17.50360
C          6.59700       -2.65410       15.29580
H         -4.45950       -0.36910       -6.86540
H         -0.55760        1.04360      -11.58230
H         -4.93330       -1.42440      -12.22860
H         -3.80610       -0.15400      -15.21960
H         -3.38780       -2.56160      -15.69630
H         -2.17770       -3.53720      -13.59380
H          0.12730       -2.25200      -13.28950
H          0.33880       -0.48600      -15.20630
H         -1.74730       -0.78630      -16.88180
H         -0.91570       -2.34010      -16.62120
H         -1.56580        1.09430      -14.93000
H         -5.90360        1.45010       -2.33720
H         -5.62660        0.89360        0.03320
H         -3.71070        1.39650        1.60960
H         -3.65240        0.52760        3.16020
H         -5.20780        0.70320        2.32040
H         -2.79920       -2.14210       -0.99900
H         -3.08070       -1.57580       -3.39040
H         -5.02930        2.33450       -6.14700
H         -7.11290        2.49350       -7.45430
H        -10.66050       -0.93310       -6.62000
H        -10.77320       -0.82280       -8.38950
H         -9.28720       -1.46070       -7.64570
H         -8.69280       -0.86660       -5.33410
H         -6.61320       -1.05220       -4.07130
H          0.35160        3.93340       -5.49900
H          0.56110        4.38280       -7.89520
H          0.26420        3.56570      -11.49280
H         -0.39390        3.13220       -9.88960
H          0.38800        4.72680      -10.15860
H          3.14720        1.00280       -8.30200
H          2.93120        0.55000       -5.88570
H          3.87190        2.71840       -4.43910
H          5.73440        2.21260       -2.91060
H          4.74270       -0.56460        1.14820
H          5.71460        0.73730        1.87000
H          4.13860        1.12210        1.13010
H          3.16720       -0.33130       -0.63170
H          1.35160        0.09500       -2.18990
H          3.22510        3.73880        1.87240
H          4.74430        5.49800        0.81950
H          4.05270        6.29520       -0.60330
H          5.88580        3.84920       -0.68520
H          5.18620        4.65890       -2.09060
H          6.35750        5.50680       -1.07370
H          2.92800        1.89790        3.31360
H          4.27760        0.16230        3.92050
H          6.78940        0.52680        4.28600
H          8.79590        2.32650        8.83870
H          7.03530        2.55060        8.69750
H          8.45260       -0.15400        9.03210
H          6.69920        0.08510        8.96300
H          7.61860        0.71840       10.32760
H         -2.57120        2.09100        5.43290
H         -4.98710        1.22040        5.42720
H         -4.54440       -3.51090        6.35730
H         -6.23540       -3.80790        5.88870
H         -4.07730       -2.62470        4.05030
H         -4.70050       -4.27410        3.96100
H         -5.75930       -2.90560        3.59990
H         -0.96540       -0.55180        8.78400
H         -0.07560       -1.18140       10.90890
H          6.03750       -1.46270       12.35640
H          2.37260       -2.84630       15.56680
H          5.39310       -4.11830       16.56970
H          5.13830       -2.42670       18.37840
H          4.44930       -0.18900       17.21550
H          6.40330        0.52710       15.56500
H          8.29810       -1.27100       15.71120
H          7.56520       -1.37320       18.25340
H          7.65160       -3.04090       17.63330
H          7.29190       -3.42340       14.96460
