174

C          0.12850        6.36760       -4.45210
C         -0.80090        7.16730       -3.88440
C         -2.01060        6.65620       -3.17350
O         -2.54130        5.57460       -3.30530
C         -2.54660        7.81740       -2.43950
C         -3.60050        7.81650       -1.52780
C         -3.88400        9.05100       -0.99760
C         -3.18180       10.20990       -1.35950
C         -2.15770       10.23040       -2.27450
C         -1.84400        8.97930       -2.82080
C         -0.81460        8.61800       -3.79120
C          0.01010        9.48520       -4.45360
C          1.00180        9.10660       -5.38290
N          1.82670        8.88310       -6.14960
C         -0.03150       10.88970       -4.31970
N         -0.01650       12.03610       -4.26360
C         -3.98440       11.08260       -0.42640
C         -3.29810       11.48970        0.89500
C         -4.44650       11.90720        1.78500
C         -5.11210       10.81120        2.12610
C         -4.42480        9.63450        1.47190
C         -2.97100       10.12290        1.51070
C         -4.76750        9.79140       -0.02520
C          0.24110        4.97370       -4.10390
C          0.67360        4.00570       -4.99030
F          0.90670        4.34330       -6.26950
C          0.90900        2.68200       -4.60050
F          1.37800        1.82370       -5.52140
C          0.75100        2.26970       -3.29150
C          0.23870        3.22490       -2.36630
N         -0.10390        2.82890       -1.13150
C         -0.54800        3.70450       -0.26590
C         -1.01150        3.15400        1.05020
C         -2.06810        2.07000        0.83670
C         -0.56680        5.09100       -0.59900
N         -0.30020        5.47340       -1.82040
C          0.03440        4.56940       -2.75280
C         -0.87070        6.17900        0.38640
C          0.26330        6.36550        1.39540
C          1.12640        0.95700       -2.81880
C          1.89930        0.70090       -1.69790
N          2.52590        1.64380       -0.89910
C          2.59960        1.39710        0.47700
C          1.55770        0.73540        1.13070
C          1.66400        0.41660        2.46560
C          2.80640        0.76170        3.18440
S          2.84530        0.25300        4.87650
C          4.46830        0.80690        5.46770
C          3.82490        1.46150        2.55100
C          3.72210        1.77290        1.20850
C          2.92900        2.87150       -1.43770
C          3.48020        2.93090       -2.71580
C          3.71870        4.14390       -3.33000
C          3.41410        5.32720       -2.66970
S          3.51510        6.92890       -3.40180
C          3.94320        6.59650       -5.13340
C          2.97210        5.27170       -1.34940
C          2.73610        4.06220       -0.73600
C          2.02330       -0.69430       -1.49000
S          2.75700       -1.65800       -0.26030
C          2.13480       -3.11910       -1.00560
C          1.37840       -2.86170       -2.13770
N          0.62700       -3.79300       -2.83360
C          0.52420       -3.67300       -4.22460
C          1.61300       -3.22350       -4.97280
C          1.50440       -3.07690       -6.33660
C          0.31200       -3.38530       -6.98860
S          0.29760       -3.16940       -8.73980
C         -1.43220       -3.46830       -9.20370
C         -0.76880       -3.84780       -6.24960
C         -0.66400       -3.98350       -4.87920
C         -0.04200       -4.81010       -2.14130
C         -0.11570       -6.09920       -2.66400
C         -0.68570       -7.12260       -1.93270
C         -1.19700       -6.87210       -0.66690
S         -1.89320       -8.12810        0.36860
C         -1.11670       -9.64920       -0.25410
C         -1.19100       -5.57300       -0.16800
C         -0.61730       -4.55510       -0.89530
C          1.35540       -1.47010       -2.42270
S          0.60950       -0.50080       -3.64210
C          2.30610       -4.37470       -0.31570
C          2.26660       -4.41120        1.07830
C          2.19780       -5.60620        1.77910
O          2.27470       -5.71870        3.11540
C          2.46230       -4.56130        3.91340
C          1.16860       -3.80030        4.18090
C          2.11220       -6.81690        1.04460
C          2.36940       -6.78760       -0.32910
C          2.46910       -5.59010       -0.98990
F          2.72460       -5.58900       -2.31730
C          1.74210       -8.07300        1.63670
C          0.73570       -8.25480        2.53010
C         -0.27520       -7.22570        2.89750
O         -0.29390       -6.05090        2.59940
C         -1.31180       -7.94450        3.65830
C         -2.47030       -7.45230        4.18380
C         -3.34250       -8.32660        4.86970
C         -4.54870       -7.87520        5.43970
C         -5.37990       -8.74150        6.09660
C         -5.04060      -10.09760        6.21260
C         -3.87610      -10.56810        5.66990
C         -2.99640       -9.70320        4.98750
C         -1.79130      -10.18500        4.42750
C         -0.95570       -9.31710        3.77470
C          0.32240       -9.52360        3.10660
C          1.01890      -10.70330        3.06600
C          2.27340      -10.89160        2.44960
N          3.28980      -11.13460        1.97250
C          0.57110      -11.90680        3.64900
N          0.26110      -12.92020        4.09130
H          0.88280        6.76860       -5.11450
H         -4.11790        6.90190       -1.28370
H         -1.63520       11.13100       -2.55050
H         -4.53050       11.90040       -0.89200
H         -2.48190       12.19820        0.78440
H         -4.68210       12.92820        2.02100
H         -6.01470       10.73370        2.70330
H         -4.63570        8.65240        1.88700
H         -2.28410        9.52170        0.91760
H         -2.59340       10.21050        2.52830
H         -5.83640        9.74710       -0.22420
H         -1.41560        3.94400        1.68080
H         -0.14930        2.71160        1.55770
H         -2.34240        1.61960        1.78730
H         -2.95950        2.49480        0.38050
H         -1.68130        1.29980        0.17590
H         -1.80150        5.95400        0.91160
H         -1.00970        7.10360       -0.17590
H          0.00670        7.15320        2.09960
H          1.17760        6.64900        0.88080
H          0.45090        5.45050        1.95200
H          0.66890        0.47400        0.57830
H          0.86480       -0.10620        2.96870
H          4.53380        1.89010        5.41740
H          4.52880        0.48280        6.50210
H          5.25500        0.33480        4.88640
H          4.71370        1.75720        3.08460
H          4.52670        2.29950        0.71700
H          3.70030        2.01490       -3.24390
H          4.13290        4.15140       -4.32510
H          4.97210        6.25600       -5.20420
H          3.82510        7.54590       -5.64790
H          3.25730        5.86790       -5.55480
H          2.78770        6.19680       -0.82540
H          2.36080        4.03140        0.27630
H          2.54650       -3.00380       -4.47760
H          2.34420       -2.72740       -6.91670
H         -1.69930       -4.50390       -9.01330
H         -1.48750       -3.26540      -10.26880
H         -2.08120       -2.78540       -8.66350
H         -1.70290       -4.09930       -6.72520
H         -1.51330       -4.32970       -4.30880
H          0.30880       -6.30360       -3.63520
H         -0.71260       -8.11450       -2.35510
H         -0.04560       -9.49460       -0.34740
H         -1.55590       -9.93990       -1.20370
H         -1.32190      -10.41400        0.48910
H         -1.61800       -5.37480        0.80130
H         -0.60170       -3.55330       -0.49360
H          2.22400       -3.46590        1.59460
H          3.21360       -3.90600        3.45590
H          2.86780       -4.94700        4.85330
H          1.38870       -2.89510        4.74140
H          0.48500       -4.42150        4.75260
H          0.67650       -3.53760        3.24900
H          2.42790       -7.70810       -0.88930
H          2.24550       -8.94400        1.23410
H         -2.72050       -6.40730        4.07700
H         -4.80530       -6.82990        5.34630
H         -6.30330       -8.38690        6.53000
H         -5.70710      -10.76800        6.73440
H         -3.61010      -11.61150        5.75730
H         -1.56280      -11.23430        4.52650
