
  xtb     02142205143D
 energy: -300.422911508394 gnorm: 0.000732415678 xtb: 6.4.1 (unknown)
177198  0     0  0            999 V2000
   -9.2173    4.2667   -3.3134 C   0  0  0  0  0  0  0  0  0  0  0  0
   -9.4450    3.7972   -4.5725 C   0  0  0  0  0  0  0  0  0  0  0  0
  -10.8264    3.4832   -5.0187 C   0  0  0  0  0  0  0  0  0  0  0  0
  -11.8579    3.8165   -4.4783 O   0  0  0  0  0  0  0  0  0  0  0  0
  -10.6620    2.6314   -6.2142 C   0  0  0  0  0  0  0  0  0  0  0  0
  -11.6599    1.9597   -6.9163 C   0  0  0  0  0  0  0  0  0  0  0  0
  -11.1954    1.2080   -7.9691 C   0  0  0  0  0  0  0  0  0  0  0  0
   -9.8371    1.1266   -8.3043 C   0  0  0  0  0  0  0  0  0  0  0  0
   -8.8419    1.7927   -7.6289 C   0  0  0  0  0  0  0  0  0  0  0  0
   -9.2945    2.5622   -6.5554 C   0  0  0  0  0  0  0  0  0  0  0  0
   -8.5454    3.4149   -5.6361 C   0  0  0  0  0  0  0  0  0  0  0  0
   -7.3212    3.9791   -5.8928 C   0  0  0  0  0  0  0  0  0  0  0  0
   -6.5240    3.6634   -7.0097 C   0  0  0  0  0  0  0  0  0  0  0  0
   -5.8279    3.4358   -7.8942 N   0  0  0  0  0  0  0  0  0  0  0  0
   -6.7701    5.0163   -5.1136 C   0  0  0  0  0  0  0  0  0  0  0  0
   -6.3117    5.8951   -4.5330 N   0  0  0  0  0  0  0  0  0  0  0  0
  -10.0937    0.1762   -9.4466 C   0  0  0  0  0  0  0  0  0  0  0  0
   -9.7767   -1.3233   -9.2228 C   0  0  0  0  0  0  0  0  0  0  0  0
   -9.9034   -1.5723   -7.7403 C   0  0  0  0  0  0  0  0  0  0  0  0
  -11.1893   -1.4937   -7.4249 C   0  0  0  0  0  0  0  0  0  0  0  0
  -11.9555   -1.1901   -8.6886 C   0  0  0  0  0  0  0  0  0  0  0  0
  -11.0942   -1.9436   -9.7148 C   0  0  0  0  0  0  0  0  0  0  0  0
  -11.6073    0.2689   -9.0755 C   0  0  0  0  0  0  0  0  0  0  0  0
   -8.0291    4.2120   -2.5564 C   0  0  0  0  0  0  0  0  0  0  0  0
   -6.7616    3.0336   -2.8813 S   0  0  0  0  0  0  0  0  0  0  0  0
   -5.8546    3.6350   -1.5624 C   0  0  0  0  0  0  0  0  0  0  0  0
   -4.6167    3.3851   -0.9397 C   0  0  0  0  0  0  0  0  0  0  0  0
   -4.4490    4.2768    0.1229 C   0  0  0  0  0  0  0  0  0  0  0  0
   -5.6382    5.1998    0.2367 C   0  0  0  0  0  0  0  0  0  0  0  0
   -5.2259    6.6639   -0.0019 C   0  0  0  0  0  0  0  0  0  0  0  0
   -4.6265    6.8931   -1.3840 C   0  0  0  0  0  0  0  0  0  0  0  0
   -6.4119    5.0276    1.5600 C   0  0  0  0  0  0  0  0  0  0  0  0
   -5.6163    5.3454    2.8189 C   0  0  0  0  0  0  0  0  0  0  0  0
   -6.4934    4.6884   -0.8997 C   0  0  0  0  0  0  0  0  0  0  0  0
   -7.7294    4.9883   -1.4416 C   0  0  0  0  0  0  0  0  0  0  0  0
   -3.2314    4.1173    0.7690 C   0  0  0  0  0  0  0  0  0  0  0  0
   -2.4637    3.1044    0.2112 C   0  0  0  0  0  0  0  0  0  0  0  0
   -3.2743    2.3355   -1.1418 S   0  0  0  0  0  0  0  0  0  0  0  0
   -1.1947    2.6183    0.6148 C   0  0  0  0  0  0  0  0  0  0  0  0
   -0.2440    3.1913    1.4605 C   0  0  0  0  0  0  0  0  0  0  0  0
   -0.2922    4.4579    2.0187 N   0  0  0  0  0  0  0  0  0  0  0  0
   -0.6597    5.5850    1.2753 C   0  0  0  0  0  0  0  0  0  0  0  0
   -0.5300    5.6193   -0.1097 C   0  0  0  0  0  0  0  0  0  0  0  0
   -0.9066    6.7374   -0.8285 C   0  0  0  0  0  0  0  0  0  0  0  0
   -1.4171    7.8493   -0.1733 C   0  0  0  0  0  0  0  0  0  0  0  0
   -1.9113    9.3400   -0.9761 S   0  0  0  0  0  0  0  0  0  0  0  0
   -1.6158    9.0147   -2.7365 C   0  0  0  0  0  0  0  0  0  0  0  0
   -1.5542    7.8179    1.2140 C   0  0  0  0  0  0  0  0  0  0  0  0
   -1.1856    6.7023    1.9295 C   0  0  0  0  0  0  0  0  0  0  0  0
    0.3108    4.6095    3.2812 C   0  0  0  0  0  0  0  0  0  0  0  0
    0.0367    3.6794    4.2807 C   0  0  0  0  0  0  0  0  0  0  0  0
    0.6898    3.7371    5.4950 C   0  0  0  0  0  0  0  0  0  0  0  0
    1.6293    4.7322    5.7277 C   0  0  0  0  0  0  0  0  0  0  0  0
    2.5639    4.8431    7.2200 S   0  0  0  0  0  0  0  0  0  0  0  0
    2.5237    3.1324    7.8327 C   0  0  0  0  0  0  0  0  0  0  0  0
    1.8619    5.6996    4.7528 C   0  0  0  0  0  0  0  0  0  0  0  0
    1.2131    5.6403    3.5398 C   0  0  0  0  0  0  0  0  0  0  0  0
    0.8376    2.3030    1.6741 C   0  0  0  0  0  0  0  0  0  0  0  0
    2.2599    2.3626    2.6629 S   0  0  0  0  0  0  0  0  0  0  0  0
    2.7590    0.7971    2.0600 C   0  0  0  0  0  0  0  0  0  0  0  0
    1.8152    0.2152    1.2109 C   0  0  0  0  0  0  0  0  0  0  0  0
    1.8255   -1.0955    0.7854 N   0  0  0  0  0  0  0  0  0  0  0  0
    2.3643   -2.1124    1.5796 C   0  0  0  0  0  0  0  0  0  0  0  0
    2.3091   -2.0310    2.9722 C   0  0  0  0  0  0  0  0  0  0  0  0
    2.9455   -2.9651    3.7609 C   0  0  0  0  0  0  0  0  0  0  0  0
    3.6137   -4.0340    3.1745 C   0  0  0  0  0  0  0  0  0  0  0  0
    4.5148   -5.2351    4.0994 S   0  0  0  0  0  0  0  0  0  0  0  0
    4.7951   -4.4147    5.6964 C   0  0  0  0  0  0  0  0  0  0  0  0
    3.5702   -4.1857    1.7908 C   0  0  0  0  0  0  0  0  0  0  0  0
    2.9733   -3.2264    1.0018 C   0  0  0  0  0  0  0  0  0  0  0  0
    1.2645   -1.3784   -0.4685 C   0  0  0  0  0  0  0  0  0  0  0  0
    0.4361   -2.4812   -0.6511 C   0  0  0  0  0  0  0  0  0  0  0  0
   -0.1499   -2.7216   -1.8783 C   0  0  0  0  0  0  0  0  0  0  0  0
    0.0805   -1.8572   -2.9417 C   0  0  0  0  0  0  0  0  0  0  0  0
   -0.6253   -2.0457   -4.5447 S   0  0  0  0  0  0  0  0  0  0  0  0
   -1.7855   -3.4292   -4.3562 C   0  0  0  0  0  0  0  0  0  0  0  0
    0.9281   -0.7635   -2.7658 C   0  0  0  0  0  0  0  0  0  0  0  0
    1.5160   -0.5265   -1.5452 C   0  0  0  0  0  0  0  0  0  0  0  0
    0.7437    1.1059    0.9792 C   0  0  0  0  0  0  0  0  0  0  0  0
   -0.6999    1.0312    0.0332 S   0  0  0  0  0  0  0  0  0  0  0  0
    3.9932    0.2251    2.4679 C   0  0  0  0  0  0  0  0  0  0  0  0
    4.8038   -0.5266    1.5927 C   0  0  0  0  0  0  0  0  0  0  0  0
    5.9593   -1.2708    2.0439 C   0  0  0  0  0  0  0  0  0  0  0  0
    6.6614   -1.7490    1.0191 N   0  0  0  0  0  0  0  0  0  0  0  0
    5.9136   -1.3880   -0.3479 S   0  0  0  0  0  4  0  0  0  0  0  0
    4.6770   -0.5623    0.2635 N   0  0  0  0  0  0  0  0  0  0  0  0
    6.2611   -1.4200    3.4150 C   0  0  0  0  0  0  0  0  0  0  0  0
    5.5519   -0.5305    4.2598 C   0  0  0  0  0  0  0  0  0  0  0  0
    5.7252   -0.4119    5.5755 N   0  0  0  0  0  0  0  0  0  0  0  0
    4.6844    0.6670    6.1536 S   0  0  0  0  0  0  0  0  0  0  0  0
    3.9164    1.0110    4.7818 N   0  0  0  0  0  0  0  0  0  0  0  0
    4.4689    0.3082    3.7912 C   0  0  0  0  0  0  0  0  0  0  0  0
    7.1643   -2.3371    4.0040 C   0  0  0  0  0  0  0  0  0  0  0  0
    7.5892   -3.5584    3.5580 C   0  0  0  0  0  0  0  0  0  0  0  0
    7.0583   -4.3513    2.4264 C   0  0  0  0  0  0  0  0  0  0  0  0
    6.2320   -4.0374    1.5926 O   0  0  0  0  0  0  0  0  0  0  0  0
    7.6888   -5.6820    2.5374 C   0  0  0  0  0  0  0  0  0  0  0  0
    7.4586   -6.7793    1.7113 C   0  0  0  0  0  0  0  0  0  0  0  0
    8.1624   -7.9044    2.0658 C   0  0  0  0  0  0  0  0  0  0  0  0
    9.0247   -7.9401    3.1696 C   0  0  0  0  0  0  0  0  0  0  0  0
    9.2556   -6.8673    3.9964 C   0  0  0  0  0  0  0  0  0  0  0  0
    8.5545   -5.7083    3.6464 C   0  0  0  0  0  0  0  0  0  0  0  0
    8.5441   -4.3891    4.2709 C   0  0  0  0  0  0  0  0  0  0  0  0
    9.3493   -3.9988    5.3104 C   0  0  0  0  0  0  0  0  0  0  0  0
   10.2673   -4.8434    5.9685 C   0  0  0  0  0  0  0  0  0  0  0  0
   11.0293   -5.4684    6.5588 N   0  0  0  0  0  0  0  0  0  0  0  0
    9.4230   -2.7032    5.8657 C   0  0  0  0  0  0  0  0  0  0  0  0
    9.5774   -1.6884    6.3821 N   0  0  0  0  0  0  0  0  0  0  0  0
    9.3967   -9.3833    2.9342 C   0  0  0  0  0  0  0  0  0  0  0  0
   10.7736   -9.6422    2.2870 C   0  0  0  0  0  0  0  0  0  0  0  0
   10.6608  -11.0495    1.7471 C   0  0  0  0  0  0  0  0  0  0  0  0
    9.8455  -11.0160    0.7008 C   0  0  0  0  0  0  0  0  0  0  0  0
    9.3938   -9.5854    0.5159 C   0  0  0  0  0  0  0  0  0  0  0  0
   10.6564   -8.8478    0.9797 C   0  0  0  0  0  0  0  0  0  0  0  0
    8.4366   -9.3429    1.7023 C   0  0  0  0  0  0  0  0  0  0  0  0
  -10.0871    4.6642   -2.7989 H   0  0  0  0  0  0  0  0  0  0  0  0
  -12.6959    2.0467   -6.6281 H   0  0  0  0  0  0  0  0  0  0  0  0
   -7.7981    1.7206   -7.8879 H   0  0  0  0  0  0  0  0  0  0  0  0
   -9.7878    0.5220  -10.4320 H   0  0  0  0  0  0  0  0  0  0  0  0
   -8.8568   -1.6645   -9.6902 H   0  0  0  0  0  0  0  0  0  0  0  0
   -9.0657   -1.7171   -7.0834 H   0  0  0  0  0  0  0  0  0  0  0  0
  -11.6402   -1.5601   -6.4521 H   0  0  0  0  0  0  0  0  0  0  0  0
  -13.0195   -1.4110   -8.6695 H   0  0  0  0  0  0  0  0  0  0  0  0
  -11.3321   -1.6936  -10.7478 H   0  0  0  0  0  0  0  0  0  0  0  0
  -11.1275   -3.0238   -9.5805 H   0  0  0  0  0  0  0  0  0  0  0  0
  -12.2901    0.6752   -9.8191 H   0  0  0  0  0  0  0  0  0  0  0  0
   -4.4903    6.9495    0.7517 H   0  0  0  0  0  0  0  0  0  0  0  0
   -6.1079    7.2953    0.1200 H   0  0  0  0  0  0  0  0  0  0  0  0
   -5.3296    6.6367   -2.1724 H   0  0  0  0  0  0  0  0  0  0  0  0
   -3.7284    6.2917   -1.5124 H   0  0  0  0  0  0  0  0  0  0  0  0
   -4.3610    7.9414   -1.4904 H   0  0  0  0  0  0  0  0  0  0  0  0
   -7.2904    5.6746    1.5154 H   0  0  0  0  0  0  0  0  0  0  0  0
   -6.7640    3.9941    1.6149 H   0  0  0  0  0  0  0  0  0  0  0  0
   -4.7863    4.6549    2.9369 H   0  0  0  0  0  0  0  0  0  0  0  0
   -6.2628    5.2482    3.6883 H   0  0  0  0  0  0  0  0  0  0  0  0
   -5.2296    6.3603    2.7965 H   0  0  0  0  0  0  0  0  0  0  0  0
   -8.3905    5.7617   -1.0943 H   0  0  0  0  0  0  0  0  0  0  0  0
   -2.9104    4.6890    1.6172 H   0  0  0  0  0  0  0  0  0  0  0  0
   -0.1174    4.7696   -0.6323 H   0  0  0  0  0  0  0  0  0  0  0  0
   -0.7866    6.7281   -1.8996 H   0  0  0  0  0  0  0  0  0  0  0  0
   -0.5593    8.8298   -2.9074 H   0  0  0  0  0  0  0  0  0  0  0  0
   -1.9181    9.9203   -3.2533 H   0  0  0  0  0  0  0  0  0  0  0  0
   -2.2264    8.1805   -3.0697 H   0  0  0  0  0  0  0  0  0  0  0  0
   -1.9566    8.6819    1.7204 H   0  0  0  0  0  0  0  0  0  0  0  0
   -1.3016    6.6856    3.0033 H   0  0  0  0  0  0  0  0  0  0  0  0
   -0.6851    2.8972    4.0943 H   0  0  0  0  0  0  0  0  0  0  0  0
    0.4610    3.0017    6.2491 H   0  0  0  0  0  0  0  0  0  0  0  0
    1.5727    2.9236    8.3147 H   0  0  0  0  0  0  0  0  0  0  0  0
    2.7045    2.4566    7.0019 H   0  0  0  0  0  0  0  0  0  0  0  0
    3.3258    3.0566    8.5601 H   0  0  0  0  0  0  0  0  0  0  0  0
    2.5796    6.4808    4.9490 H   0  0  0  0  0  0  0  0  0  0  0  0
    1.4233    6.3726    2.7750 H   0  0  0  0  0  0  0  0  0  0  0  0
    1.7762   -1.2178    3.4429 H   0  0  0  0  0  0  0  0  0  0  0  0
    2.9038   -2.8583    4.8335 H   0  0  0  0  0  0  0  0  0  0  0  0
    5.5325   -5.0220    6.2124 H   0  0  0  0  0  0  0  0  0  0  0  0
    3.8770   -4.3875    6.2762 H   0  0  0  0  0  0  0  0  0  0  0  0
    5.1888   -3.4158    5.5302 H   0  0  0  0  0  0  0  0  0  0  0  0
    4.0424   -5.0417    1.3387 H   0  0  0  0  0  0  0  0  0  0  0  0
    3.0003   -3.3211   -0.0732 H   0  0  0  0  0  0  0  0  0  0  0  0
    0.2432   -3.1473    0.1769 H   0  0  0  0  0  0  0  0  0  0  0  0
   -0.7911   -3.5810   -1.9880 H   0  0  0  0  0  0  0  0  0  0  0  0
   -2.5068   -3.2006   -3.5772 H   0  0  0  0  0  0  0  0  0  0  0  0
   -1.2451   -4.3464   -4.1412 H   0  0  0  0  0  0  0  0  0  0  0  0
   -2.2911   -3.5169   -5.3129 H   0  0  0  0  0  0  0  0  0  0  0  0
    1.1169   -0.1076   -3.6013 H   0  0  0  0  0  0  0  0  0  0  0  0
    2.1861    0.3090   -1.4110 H   0  0  0  0  0  0  0  0  0  0  0  0
    7.4776   -2.0341    4.9973 H   0  0  0  0  0  0  0  0  0  0  0  0
    6.7800   -6.7105    0.8756 H   0  0  0  0  0  0  0  0  0  0  0  0
    9.9139   -6.9147    4.8476 H   0  0  0  0  0  0  0  0  0  0  0  0
    9.1721  -10.0711    3.7473 H   0  0  0  0  0  0  0  0  0  0  0  0
   11.6248   -9.4301    2.9280 H   0  0  0  0  0  0  0  0  0  0  0  0
   11.1254  -11.9054    2.2007 H   0  0  0  0  0  0  0  0  0  0  0  0
    9.4929  -11.8384    0.1061 H   0  0  0  0  0  0  0  0  0  0  0  0
    8.9887   -9.3222   -0.4577 H   0  0  0  0  0  0  0  0  0  0  0  0
   10.5179   -7.7778    1.1219 H   0  0  0  0  0  0  0  0  0  0  0  0
   11.5018   -9.0210    0.3157 H   0  0  0  0  0  0  0  0  0  0  0  0
    7.5720  -10.0043    1.6941 H   0  0  0  0  0  0  0  0  0  0  0  0
  1  2  2  0  0  0  0
  2  3  1  0  0  0  0
  3  4  2  0  0  0  0
  3  5  1  0  0  0  0
  5  6  2  0  0  0  0
  6  7  1  0  0  0  0
  7  8  2  0  0  0  0
  8  9  1  0  0  0  0
  9 10  2  0  0  0  0
 10 11  1  0  0  0  0
 11 12  2  0  0  0  0
 12 13  1  0  0  0  0
 13 14  3  0  0  0  0
 12 15  1  0  0  0  0
 15 16  3  0  0  0  0
  8 17  1  0  0  0  0
 17 18  1  0  0  0  0
 18 19  1  0  0  0  0
 19 20  2  0  0  0  0
 20 21  1  0  0  0  0
 21 22  1  0  0  0  0
 21 23  1  0  0  0  0
  1 24  1  0  0  0  0
 24 25  1  0  0  0  0
 25 26  1  0  0  0  0
 26 27  1  0  0  0  0
 27 28  2  0  0  0  0
 28 29  1  0  0  0  0
 29 30  1  0  0  0  0
 30 31  1  0  0  0  0
 29 32  1  0  0  0  0
 32 33  1  0  0  0  0
 29 34  1  0  0  0  0
 34 35  1  0  0  0  0
 28 36  1  0  0  0  0
 36 37  2  0  0  0  0
 37 38  1  0  0  0  0
 37 39  1  0  0  0  0
 39 40  2  0  0  0  0
 40 41  1  0  0  0  0
 41 42  1  0  0  0  0
 42 43  2  0  0  0  0
 43 44  1  0  0  0  0
 44 45  2  0  0  0  0
 45 46  1  0  0  0  0
 46 47  1  0  0  0  0
 45 48  1  0  0  0  0
 48 49  2  0  0  0  0
 41 50  1  0  0  0  0
 50 51  2  0  0  0  0
 51 52  1  0  0  0  0
 52 53  2  0  0  0  0
 53 54  1  0  0  0  0
 54 55  1  0  0  0  0
 53 56  1  0  0  0  0
 56 57  2  0  0  0  0
 40 58  1  0  0  0  0
 58 59  1  0  0  0  0
 59 60  1  0  0  0  0
 60 61  2  0  0  0  0
 61 62  1  0  0  0  0
 62 63  1  0  0  0  0
 63 64  2  0  0  0  0
 64 65  1  0  0  0  0
 65 66  2  0  0  0  0
 66 67  1  0  0  0  0
 67 68  1  0  0  0  0
 66 69  1  0  0  0  0
 69 70  2  0  0  0  0
 62 71  1  0  0  0  0
 71 72  2  0  0  0  0
 72 73  1  0  0  0  0
 73 74  2  0  0  0  0
 74 75  1  0  0  0  0
 75 76  1  0  0  0  0
 74 77  1  0  0  0  0
 77 78  2  0  0  0  0
 61 79  1  0  0  0  0
 79 80  1  0  0  0  0
 60 81  1  0  0  0  0
 81 82  2  0  0  0  0
 82 83  1  0  0  0  0
 83 84  1  0  0  0  0
 84 85  2  0  0  0  0
 85 86  2  0  0  0  0
 83 87  2  0  0  0  0
 87 88  1  0  0  0  0
 88 89  2  0  0  0  0
 89 90  1  0  0  0  0
 90 91  1  0  0  0  0
 91 92  2  0  0  0  0
 87 93  1  0  0  0  0
 93 94  2  0  0  0  0
 94 95  1  0  0  0  0
 95 96  2  0  0  0  0
 95 97  1  0  0  0  0
 97 98  2  0  0  0  0
 98 99  1  0  0  0  0
 99100  2  0  0  0  0
100101  1  0  0  0  0
101102  2  0  0  0  0
102103  1  0  0  0  0
103104  2  0  0  0  0
104105  1  0  0  0  0
105106  3  0  0  0  0
104107  1  0  0  0  0
107108  3  0  0  0  0
100109  1  0  0  0  0
109110  1  0  0  0  0
110111  1  0  0  0  0
111112  2  0  0  0  0
112113  1  0  0  0  0
113114  1  0  0  0  0
113115  1  0  0  0  0
 11  2  1  0  0  0  0
 23 17  1  0  0  0  0
 35 24  2  0  0  0  0
 80 39  1  0  0  0  0
 92 81  1  0  0  0  0
103 94  1  0  0  0  0
115109  1  0  0  0  0
 10  5  1  0  0  0  0
 22 18  1  0  0  0  0
 34 26  2  0  0  0  0
 49 42  1  0  0  0  0
 57 50  1  0  0  0  0
 79 58  2  0  0  0  0
 86 82  1  0  0  0  0
 92 88  1  0  0  0  0
102 97  1  0  0  0  0
114110  1  0  0  0  0
 23  7  1  0  0  0  0
 38 27  1  0  0  0  0
 70 63  1  0  0  0  0
 78 71  1  0  0  0  0
115 99  1  0  0  0  0
  1116  1  0  0  0  0
  6117  1  0  0  0  0
  9118  1  0  0  0  0
 17119  1  0  0  0  0
 18120  1  0  0  0  0
 19121  1  0  0  0  0
 20122  1  0  0  0  0
 21123  1  0  0  0  0
 22124  1  0  0  0  0
 22125  1  0  0  0  0
 23126  1  0  0  0  0
 30127  1  0  0  0  0
 30128  1  0  0  0  0
 31129  1  0  0  0  0
 31130  1  0  0  0  0
 31131  1  0  0  0  0
 32132  1  0  0  0  0
 32133  1  0  0  0  0
 33134  1  0  0  0  0
 33135  1  0  0  0  0
 33136  1  0  0  0  0
 35137  1  0  0  0  0
 36138  1  0  0  0  0
 43139  1  0  0  0  0
 44140  1  0  0  0  0
 47141  1  0  0  0  0
 47142  1  0  0  0  0
 47143  1  0  0  0  0
 48144  1  0  0  0  0
 49145  1  0  0  0  0
 51146  1  0  0  0  0
 52147  1  0  0  0  0
 55148  1  0  0  0  0
 55149  1  0  0  0  0
 55150  1  0  0  0  0
 56151  1  0  0  0  0
 57152  1  0  0  0  0
 64153  1  0  0  0  0
 65154  1  0  0  0  0
 68155  1  0  0  0  0
 68156  1  0  0  0  0
 68157  1  0  0  0  0
 69158  1  0  0  0  0
 70159  1  0  0  0  0
 72160  1  0  0  0  0
 73161  1  0  0  0  0
 76162  1  0  0  0  0
 76163  1  0  0  0  0
 76164  1  0  0  0  0
 77165  1  0  0  0  0
 78166  1  0  0  0  0
 93167  1  0  0  0  0
 98168  1  0  0  0  0
101169  1  0  0  0  0
109170  1  0  0  0  0
110171  1  0  0  0  0
111172  1  0  0  0  0
112173  1  0  0  0  0
113174  1  0  0  0  0
114175  1  0  0  0  0
114176  1  0  0  0  0
115177  1  0  0  0  0
M  END
