
  xtb     02082211413D
 energy: -349.369036464088 gnorm: 0.000977729816 xtb: 6.4.1 (unknown)
197216  0     0  0            999 V2000
   -0.9321   -6.1892    0.3432 C   0  0  0  0  0  0  0  0  0  0  0  0
   -2.1269   -5.5623    0.0985 C   0  0  0  0  0  0  0  0  0  0  0  0
   -2.3040   -4.0977    0.0693 C   0  0  0  0  0  0  0  0  0  0  0  0
   -1.5033   -3.2292    0.3710 O   0  0  0  0  0  0  0  0  0  0  0  0
   -3.6336   -3.8679   -0.5329 C   0  0  0  0  0  0  0  0  0  0  0  0
   -4.2315   -2.6367   -0.7959 C   0  0  0  0  0  0  0  0  0  0  0  0
   -5.4873   -2.7301   -1.3484 C   0  0  0  0  0  0  0  0  0  0  0  0
   -6.1074   -3.9573   -1.6146 C   0  0  0  0  0  0  0  0  0  0  0  0
   -5.5233   -5.1787   -1.3734 C   0  0  0  0  0  0  0  0  0  0  0  0
   -4.2424   -5.1052   -0.8194 C   0  0  0  0  0  0  0  0  0  0  0  0
   -3.3281   -6.1722   -0.4165 C   0  0  0  0  0  0  0  0  0  0  0  0
   -3.6042   -7.5164   -0.4243 C   0  0  0  0  0  0  0  0  0  0  0  0
   -2.7496   -8.5034    0.1095 C   0  0  0  0  0  0  0  0  0  0  0  0
   -2.1301   -9.3568    0.5646 N   0  0  0  0  0  0  0  0  0  0  0  0
   -4.7918   -8.0862   -0.9222 C   0  0  0  0  0  0  0  0  0  0  0  0
   -5.7349   -8.6113   -1.3157 N   0  0  0  0  0  0  0  0  0  0  0  0
   -7.3644   -3.3027   -2.1343 C   0  0  0  0  0  0  0  0  0  0  0  0
   -7.5625   -3.2862   -3.6639 C   0  0  0  0  0  0  0  0  0  0  0  0
   -8.5765   -2.1882   -3.8890 C   0  0  0  0  0  0  0  0  0  0  0  0
   -7.9737   -1.0293   -3.6569 C   0  0  0  0  0  0  0  0  0  0  0  0
   -6.5425   -1.3241   -3.2682 C   0  0  0  0  0  0  0  0  0  0  0  0
   -6.2882   -2.5698   -4.1281 C   0  0  0  0  0  0  0  0  0  0  0  0
   -6.6654   -1.9332   -1.8547 C   0  0  0  0  0  0  0  0  0  0  0  0
    0.1346   -5.5895    1.0593 C   0  0  0  0  0  0  0  0  0  0  0  0
    1.4920   -5.8580    0.7260 C   0  0  0  0  0  0  0  0  0  0  0  0
    1.7131   -6.7487   -0.2536 F   0  0  0  0  0  0  0  0  0  0  0  0
    2.5715   -5.2048    1.2678 C   0  0  0  0  0  0  0  0  0  0  0  0
    3.8207   -5.4534    0.8308 F   0  0  0  0  0  0  0  0  0  0  0  0
    2.3662   -4.2281    2.2694 C   0  0  0  0  0  0  0  0  0  0  0  0
    1.0191   -4.0533    2.6955 C   0  0  0  0  0  0  0  0  0  0  0  0
    0.8796   -3.1034    3.6303 N   0  0  0  0  0  0  0  0  0  0  0  0
   -0.3283   -2.8053    4.1414 C   0  0  0  0  0  0  0  0  0  0  0  0
   -0.4522   -1.7769    5.2175 C   0  0  0  0  0  0  0  0  0  0  0  0
   -0.6663   -2.4264    6.5890 C   0  0  0  0  0  0  0  0  0  0  0  0
   -1.4185   -3.5491    3.6258 C   0  0  0  0  0  0  0  0  0  0  0  0
   -1.2996   -4.4317    2.6599 N   0  0  0  0  0  0  0  0  0  0  0  0
   -0.0965   -4.6887    2.1267 C   0  0  0  0  0  0  0  0  0  0  0  0
   -2.8261   -3.3806    4.1215 C   0  0  0  0  0  0  0  0  0  0  0  0
   -3.2947   -4.6536    4.8296 C   0  0  0  0  0  0  0  0  0  0  0  0
    3.1411   -3.3314    2.9705 C   0  0  0  0  0  0  0  0  0  0  0  0
    2.2366   -2.4790    3.8730 C   0  0  0  0  0  0  0  0  0  0  0  0
    2.6136   -2.5121    5.2494 N   0  0  0  0  0  0  0  0  0  0  0  0
    3.1149   -3.7512    5.7267 C   0  0  0  0  0  0  0  0  0  0  0  0
    2.3691   -4.9245    5.6443 C   0  0  0  0  0  0  0  0  0  0  0  0
    2.8967   -6.1148    6.0969 C   0  0  0  0  0  0  0  0  0  0  0  0
    4.1727   -6.1611    6.6530 C   0  0  0  0  0  0  0  0  0  0  0  0
    4.7319   -7.7377    7.2076 S   0  0  0  0  0  0  0  0  0  0  0  0
    6.4798   -7.4610    7.6123 C   0  0  0  0  0  0  0  0  0  0  0  0
    4.9122   -4.9892    6.7525 C   0  0  0  0  0  0  0  0  0  0  0  0
    4.3870   -3.8008    6.2867 C   0  0  0  0  0  0  0  0  0  0  0  0
    2.8158   -1.3932    6.0813 C   0  0  0  0  0  0  0  0  0  0  0  0
    2.4876   -1.5306    7.4307 C   0  0  0  0  0  0  0  0  0  0  0  0
    2.6459   -0.4884    8.3209 C   0  0  0  0  0  0  0  0  0  0  0  0
    3.1380    0.7327    7.8798 C   0  0  0  0  0  0  0  0  0  0  0  0
    3.3596    2.1512    8.9059 S   0  0  0  0  0  0  0  0  0  0  0  0
    2.8607    1.5814   10.5549 C   0  0  0  0  0  0  0  0  0  0  0  0
    3.5049    0.8664    6.5444 C   0  0  0  0  0  0  0  0  0  0  0  0
    3.3641   -0.1826    5.6605 C   0  0  0  0  0  0  0  0  0  0  0  0
    2.2988   -1.1748    3.1462 C   0  0  0  0  0  0  0  0  0  0  0  0
    1.1732    0.1271    3.0350 S   0  0  0  0  0  0  0  0  0  0  0  0
    2.1234    0.8593    1.7698 C   0  0  0  0  0  0  0  0  0  0  0  0
    3.2681    0.1434    1.4898 C   0  0  0  0  0  0  0  0  0  0  0  0
    4.1621    0.4810    0.4875 N   0  0  0  0  0  0  0  0  0  0  0  0
    4.6104    1.7984    0.3748 C   0  0  0  0  0  0  0  0  0  0  0  0
    4.8338    2.3800   -0.8725 C   0  0  0  0  0  0  0  0  0  0  0  0
    5.3219    3.6659   -0.9613 C   0  0  0  0  0  0  0  0  0  0  0  0
    5.5949    4.3972    0.1899 C   0  0  0  0  0  0  0  0  0  0  0  0
    6.2389    6.0345    0.0006 S   0  0  0  0  0  0  0  0  0  0  0  0
    7.2834    6.2079    1.4831 C   0  0  0  0  0  0  0  0  0  0  0  0
    5.3373    3.8375    1.4336 C   0  0  0  0  0  0  0  0  0  0  0  0
    4.8540    2.5493    1.5240 C   0  0  0  0  0  0  0  0  0  0  0  0
    4.5626   -0.5319   -0.3984 C   0  0  0  0  0  0  0  0  0  0  0  0
    5.8579   -0.5692   -0.9017 C   0  0  0  0  0  0  0  0  0  0  0  0
    6.2542   -1.5874   -1.7471 C   0  0  0  0  0  0  0  0  0  0  0  0
    5.3636   -2.5961   -2.0911 C   0  0  0  0  0  0  0  0  0  0  0  0
    5.7515   -3.9459   -3.1556 S   0  0  0  0  0  0  0  0  0  0  0  0
    7.5086   -3.7056   -3.5458 C   0  0  0  0  0  0  0  0  0  0  0  0
    4.0644   -2.5610   -1.5871 C   0  0  0  0  0  0  0  0  0  0  0  0
    3.6644   -1.5382   -0.7582 C   0  0  0  0  0  0  0  0  0  0  0  0
    3.3571   -1.0246    2.2881 C   0  0  0  0  0  0  0  0  0  0  0  0
    4.4865   -2.3858    2.3075 S   0  0  0  0  0  0  0  0  0  0  0  0
    1.5305    1.8574    0.9028 C   0  0  0  0  0  0  0  0  0  0  0  0
    1.5030    3.2096    0.9292 C   0  0  0  0  0  0  0  0  0  0  0  0
    0.7566    3.7775   -0.1441 C   0  0  0  0  0  0  0  0  0  0  0  0
    0.5316    5.1337   -0.4327 C   0  0  0  0  0  0  0  0  0  0  0  0
    1.1401    6.1940    0.3514 C   0  0  0  0  0  0  0  0  0  0  0  0
    2.8399    6.1935    0.7082 S   0  0  0  0  0  0  0  0  0  0  0  0
    2.7604    7.7185    1.5169 C   0  0  0  0  0  0  0  0  0  0  0  0
    3.9610    8.3327    2.1483 C   0  0  0  0  0  0  0  0  0  0  0  0
    4.2348    7.7125    3.5206 C   0  0  0  0  0  0  0  0  0  0  0  0
    1.4780    8.1801    1.5163 C   0  0  0  0  0  0  0  0  0  0  0  0
    1.1151    9.3370    2.0875 F   0  0  0  0  0  0  0  0  0  0  0  0
    0.5629    7.3296    0.8508 C   0  0  0  0  0  0  0  0  0  0  0  0
   -0.7479    7.5899    0.7820 F   0  0  0  0  0  0  0  0  0  0  0  0
   -0.2762    5.4244   -1.5298 C   0  0  0  0  0  0  0  0  0  0  0  0
   -0.8687    4.4185   -2.3405 C   0  0  0  0  0  0  0  0  0  0  0  0
   -0.6180    3.0605   -2.0693 C   0  0  0  0  0  0  0  0  0  0  0  0
   -1.1420    1.9959   -2.9043 C   0  0  0  0  0  0  0  0  0  0  0  0
   -1.8570    0.5678   -2.2152 S   0  0  0  0  0  0  0  0  0  0  0  0
   -2.1077   -0.1614   -3.7611 C   0  0  0  0  0  0  0  0  0  0  0  0
   -2.6699   -1.5335   -3.8884 C   0  0  0  0  0  0  0  0  0  0  0  0
   -1.6899   -2.5833   -3.3597 C   0  0  0  0  0  0  0  0  0  0  0  0
   -1.6650    0.6710   -4.7456 C   0  0  0  0  0  0  0  0  0  0  0  0
   -1.1260    1.8904   -4.2689 C   0  0  0  0  0  0  0  0  0  0  0  0
   -0.5817    2.8059   -5.0794 F   0  0  0  0  0  0  0  0  0  0  0  0
   -1.7264    0.3644   -6.0491 F   0  0  0  0  0  0  0  0  0  0  0  0
    0.1829    2.7814   -0.9701 C   0  0  0  0  0  0  0  0  0  0  0  0
    0.6351    1.1882   -0.4531 S   0  0  0  0  0  0  0  0  0  0  0  0
   -1.6707    4.9591   -3.3660 C   0  0  0  0  0  0  0  0  0  0  0  0
   -1.6612    6.3289   -3.4049 C   0  0  0  0  0  0  0  0  0  0  0  0
   -0.6695    7.0060   -2.1168 S   0  0  0  0  0  0  0  0  0  0  0  0
   -2.2617    7.2625   -4.2881 C   0  0  0  0  0  0  0  0  0  0  0  0
   -3.0360    7.0821   -5.3938 C   0  0  0  0  0  0  0  0  0  0  0  0
   -3.5136    5.8149   -6.0091 C   0  0  0  0  0  0  0  0  0  0  0  0
   -3.5309    4.6998   -5.5356 O   0  0  0  0  0  0  0  0  0  0  0  0
   -4.0318    6.1931   -7.3383 C   0  0  0  0  0  0  0  0  0  0  0  0
   -4.4934    5.3670   -8.3343 C   0  0  0  0  0  0  0  0  0  0  0  0
   -4.9308    5.9439   -9.5351 C   0  0  0  0  0  0  0  0  0  0  0  0
   -5.3631    5.0808  -10.4761 O   0  0  0  0  0  0  0  0  0  0  0  0
   -5.8105    5.5774  -11.7176 C   0  0  0  0  0  0  0  0  0  0  0  0
   -4.8930    7.3334   -9.6837 C   0  0  0  0  0  0  0  0  0  0  0  0
   -4.4346    8.1580   -8.6690 C   0  0  0  0  0  0  0  0  0  0  0  0
   -3.9974    7.5934   -7.4798 C   0  0  0  0  0  0  0  0  0  0  0  0
   -3.4663    8.1790   -6.2604 C   0  0  0  0  0  0  0  0  0  0  0  0
   -3.4281    9.5189   -5.9802 C   0  0  0  0  0  0  0  0  0  0  0  0
   -3.8808   10.5178   -6.8691 C   0  0  0  0  0  0  0  0  0  0  0  0
   -4.2279   11.3801   -7.5427 N   0  0  0  0  0  0  0  0  0  0  0  0
   -2.9849   10.1146   -4.7795 C   0  0  0  0  0  0  0  0  0  0  0  0
   -2.6644   10.6925   -3.8400 N   0  0  0  0  0  0  0  0  0  0  0  0
   -0.7507   -7.1709   -0.0766 H   0  0  0  0  0  0  0  0  0  0  0  0
   -3.7248   -1.7125   -0.5611 H   0  0  0  0  0  0  0  0  0  0  0  0
   -6.0086   -6.1156   -1.5904 H   0  0  0  0  0  0  0  0  0  0  0  0
   -8.2764   -3.5388   -1.5892 H   0  0  0  0  0  0  0  0  0  0  0  0
   -7.7825   -4.2543   -4.1051 H   0  0  0  0  0  0  0  0  0  0  0  0
   -9.6077   -2.3643   -4.1325 H   0  0  0  0  0  0  0  0  0  0  0  0
   -8.4000   -0.0433   -3.6673 H   0  0  0  0  0  0  0  0  0  0  0  0
   -5.8394   -0.4991   -3.3531 H   0  0  0  0  0  0  0  0  0  0  0  0
   -5.3737   -3.1066   -3.8831 H   0  0  0  0  0  0  0  0  0  0  0  0
   -6.3043   -2.3441   -5.1929 H   0  0  0  0  0  0  0  0  0  0  0  0
   -7.1217   -1.2513   -1.1391 H   0  0  0  0  0  0  0  0  0  0  0  0
   -1.2861   -1.1103    4.9910 H   0  0  0  0  0  0  0  0  0  0  0  0
    0.4516   -1.1701    5.2560 H   0  0  0  0  0  0  0  0  0  0  0  0
   -1.6287   -2.9258    6.6446 H   0  0  0  0  0  0  0  0  0  0  0  0
   -0.6263   -1.6633    7.3615 H   0  0  0  0  0  0  0  0  0  0  0  0
    0.1114   -3.1593    6.7865 H   0  0  0  0  0  0  0  0  0  0  0  0
   -3.4591   -3.2200    3.2465 H   0  0  0  0  0  0  0  0  0  0  0  0
   -2.9221   -2.5213    4.7810 H   0  0  0  0  0  0  0  0  0  0  0  0
   -3.2111   -5.4996    4.1533 H   0  0  0  0  0  0  0  0  0  0  0  0
   -4.3316   -4.5503    5.1377 H   0  0  0  0  0  0  0  0  0  0  0  0
   -2.6893   -4.8559    5.7109 H   0  0  0  0  0  0  0  0  0  0  0  0
    1.3723   -4.9211    5.2319 H   0  0  0  0  0  0  0  0  0  0  0  0
    2.3204   -7.0244    6.0273 H   0  0  0  0  0  0  0  0  0  0  0  0
    6.8791   -8.4395    7.8602 H   0  0  0  0  0  0  0  0  0  0  0  0
    6.5686   -6.8008    8.4702 H   0  0  0  0  0  0  0  0  0  0  0  0
    6.9974   -7.0593    6.7464 H   0  0  0  0  0  0  0  0  0  0  0  0
    5.9013   -4.9885    7.1805 H   0  0  0  0  0  0  0  0  0  0  0  0
    4.9698   -2.8941    6.3539 H   0  0  0  0  0  0  0  0  0  0  0  0
    2.1177   -2.4786    7.7904 H   0  0  0  0  0  0  0  0  0  0  0  0
    2.3778   -0.6438    9.3532 H   0  0  0  0  0  0  0  0  0  0  0  0
    1.8131    1.2949   10.5498 H   0  0  0  0  0  0  0  0  0  0  0  0
    3.0055    2.4325   11.2130 H   0  0  0  0  0  0  0  0  0  0  0  0
    3.4956    0.7590   10.8715 H   0  0  0  0  0  0  0  0  0  0  0  0
    3.9231    1.8026    6.2076 H   0  0  0  0  0  0  0  0  0  0  0  0
    3.7108   -0.0546    4.6500 H   0  0  0  0  0  0  0  0  0  0  0  0
    4.6303    1.8124   -1.7679 H   0  0  0  0  0  0  0  0  0  0  0  0
    5.4999    4.1154   -1.9258 H   0  0  0  0  0  0  0  0  0  0  0  0
    7.9386    7.0513    1.2894 H   0  0  0  0  0  0  0  0  0  0  0  0
    6.6773    6.4094    2.3609 H   0  0  0  0  0  0  0  0  0  0  0  0
    7.8690    5.3034    1.6130 H   0  0  0  0  0  0  0  0  0  0  0  0
    5.5237    4.3949    2.3379 H   0  0  0  0  0  0  0  0  0  0  0  0
    4.6729    2.1122    2.4952 H   0  0  0  0  0  0  0  0  0  0  0  0
    6.5610    0.2022   -0.6244 H   0  0  0  0  0  0  0  0  0  0  0  0
    7.2657   -1.5861   -2.1193 H   0  0  0  0  0  0  0  0  0  0  0  0
    7.6483   -2.7747   -4.0880 H   0  0  0  0  0  0  0  0  0  0  0  0
    7.7825   -4.5437   -4.1790 H   0  0  0  0  0  0  0  0  0  0  0  0
    8.0970   -3.7260   -2.6332 H   0  0  0  0  0  0  0  0  0  0  0  0
    3.3742   -3.3446   -1.8587 H   0  0  0  0  0  0  0  0  0  0  0  0
    2.6490   -1.5132   -0.3883 H   0  0  0  0  0  0  0  0  0  0  0  0
    1.9928    3.7915    1.6878 H   0  0  0  0  0  0  0  0  0  0  0  0
    4.8228    8.1814    1.4953 H   0  0  0  0  0  0  0  0  0  0  0  0
    3.7887    9.4047    2.2594 H   0  0  0  0  0  0  0  0  0  0  0  0
    4.3650    6.6360    3.4295 H   0  0  0  0  0  0  0  0  0  0  0  0
    5.1333    8.1437    3.9548 H   0  0  0  0  0  0  0  0  0  0  0  0
    3.4019    7.9000    4.1938 H   0  0  0  0  0  0  0  0  0  0  0  0
   -2.8904   -1.7231   -4.9406 H   0  0  0  0  0  0  0  0  0  0  0  0
   -3.5983   -1.5993   -3.3183 H   0  0  0  0  0  0  0  0  0  0  0  0
   -2.1225   -3.5759   -3.4569 H   0  0  0  0  0  0  0  0  0  0  0  0
   -0.7591   -2.5543   -3.9211 H   0  0  0  0  0  0  0  0  0  0  0  0
   -1.4686   -2.4031   -2.3102 H   0  0  0  0  0  0  0  0  0  0  0  0
   -2.2456    4.3674   -4.0527 H   0  0  0  0  0  0  0  0  0  0  0  0
   -2.0072    8.2875   -4.0437 H   0  0  0  0  0  0  0  0  0  0  0  0
   -4.5163    4.2964   -8.2104 H   0  0  0  0  0  0  0  0  0  0  0  0
   -6.6814    6.2289  -11.5982 H   0  0  0  0  0  0  0  0  0  0  0  0
   -6.0932    4.7007  -12.2977 H   0  0  0  0  0  0  0  0  0  0  0  0
   -5.0171    6.1178  -12.2424 H   0  0  0  0  0  0  0  0  0  0  0  0
   -5.2235    7.7909  -10.6027 H   0  0  0  0  0  0  0  0  0  0  0  0
   -4.4189    9.2239   -8.8264 H   0  0  0  0  0  0  0  0  0  0  0  0
  1  2  2  0  0  0  0
  2  3  1  0  0  0  0
  3  4  2  0  0  0  0
  3  5  1  0  0  0  0
  5  6  2  0  0  0  0
  6  7  1  0  0  0  0
  7  8  2  0  0  0  0
  8  9  1  0  0  0  0
  9 10  2  0  0  0  0
 10 11  1  0  0  0  0
 11 12  2  0  0  0  0
 12 13  1  0  0  0  0
 13 14  3  0  0  0  0
 12 15  1  0  0  0  0
 15 16  3  0  0  0  0
  8 17  1  0  0  0  0
 17 18  1  0  0  0  0
 18 19  1  0  0  0  0
 19 20  2  0  0  0  0
 20 21  1  0  0  0  0
 21 22  1  0  0  0  0
 21 23  1  0  0  0  0
  1 24  1  0  0  0  0
 24 25  2  0  0  0  0
 25 26  1  0  0  0  0
 25 27  1  0  0  0  0
 27 28  1  0  0  0  0
 27 29  2  0  0  0  0
 29 30  1  0  0  0  0
 30 31  2  0  0  0  0
 31 32  1  0  0  0  0
 32 33  1  0  0  0  0
 33 34  1  0  0  0  0
 32 35  2  0  0  0  0
 35 36  1  0  0  0  0
 36 37  2  0  0  0  0
 35 38  1  0  0  0  0
 38 39  1  0  0  0  0
 29 40  1  0  0  0  0
 40 41  2  0  0  0  0
 41 42  1  0  0  0  0
 42 43  1  0  0  0  0
 43 44  2  0  0  0  0
 44 45  1  0  0  0  0
 45 46  2  0  0  0  0
 46 47  1  0  0  0  0
 47 48  1  0  0  0  0
 46 49  1  0  0  0  0
 49 50  2  0  0  0  0
 42 51  1  0  0  0  0
 51 52  2  0  0  0  0
 52 53  1  0  0  0  0
 53 54  2  0  0  0  0
 54 55  1  0  0  0  0
 55 56  1  0  0  0  0
 54 57  1  0  0  0  0
 57 58  2  0  0  0  0
 41 59  1  0  0  0  0
 59 60  1  0  0  0  0
 60 61  1  0  0  0  0
 61 62  2  0  0  0  0
 62 63  1  0  0  0  0
 63 64  1  0  0  0  0
 64 65  2  0  0  0  0
 65 66  1  0  0  0  0
 66 67  2  0  0  0  0
 67 68  1  0  0  0  0
 68 69  1  0  0  0  0
 67 70  1  0  0  0  0
 70 71  2  0  0  0  0
 63 72  1  0  0  0  0
 72 73  2  0  0  0  0
 73 74  1  0  0  0  0
 74 75  2  0  0  0  0
 75 76  1  0  0  0  0
 76 77  1  0  0  0  0
 75 78  1  0  0  0  0
 78 79  2  0  0  0  0
 62 80  1  0  0  0  0
 80 81  1  0  0  0  0
 61 82  1  0  0  0  0
 82 83  2  0  0  0  0
 83 84  1  0  0  0  0
 84 85  2  0  0  0  0
 85 86  1  0  0  0  0
 86 87  1  0  0  0  0
 87 88  1  0  0  0  0
 88 89  1  0  0  0  0
 89 90  1  0  0  0  0
 88 91  2  0  0  0  0
 91 92  1  0  0  0  0
 91 93  1  0  0  0  0
 93 94  1  0  0  0  0
 85 95  1  0  0  0  0
 95 96  2  0  0  0  0
 96 97  1  0  0  0  0
 97 98  1  0  0  0  0
 98 99  1  0  0  0  0
 99100  1  0  0  0  0
100101  1  0  0  0  0
101102  1  0  0  0  0
100103  2  0  0  0  0
103104  1  0  0  0  0
104105  1  0  0  0  0
103106  1  0  0  0  0
 97107  2  0  0  0  0
107108  1  0  0  0  0
 96109  1  0  0  0  0
109110  2  0  0  0  0
110111  1  0  0  0  0
110112  1  0  0  0  0
112113  2  0  0  0  0
113114  1  0  0  0  0
114115  2  0  0  0  0
114116  1  0  0  0  0
116117  2  0  0  0  0
117118  1  0  0  0  0
118119  1  0  0  0  0
119120  1  0  0  0  0
118121  2  0  0  0  0
121122  1  0  0  0  0
122123  2  0  0  0  0
123124  1  0  0  0  0
124125  2  0  0  0  0
125126  1  0  0  0  0
126127  3  0  0  0  0
125128  1  0  0  0  0
128129  3  0  0  0  0
 11  2  1  0  0  0  0
 23 17  1  0  0  0  0
 37 24  1  0  0  0  0
 81 40  1  0  0  0  0
108 82  1  0  0  0  0
124113  1  0  0  0  0
 10  5  1  0  0  0  0
 22 18  1  0  0  0  0
 37 30  1  0  0  0  0
 50 43  1  0  0  0  0
 58 51  1  0  0  0  0
 80 59  2  0  0  0  0
107 84  1  0  0  0  0
123116  1  0  0  0  0
 23  7  1  0  0  0  0
 71 64  1  0  0  0  0
 79 72  1  0  0  0  0
 93 86  2  0  0  0  0
111 95  1  0  0  0  0
104 98  2  0  0  0  0
  1130  1  0  0  0  0
  6131  1  0  0  0  0
  9132  1  0  0  0  0
 17133  1  0  0  0  0
 18134  1  0  0  0  0
 19135  1  0  0  0  0
 20136  1  0  0  0  0
 21137  1  0  0  0  0
 22138  1  0  0  0  0
 22139  1  0  0  0  0
 23140  1  0  0  0  0
 33141  1  0  0  0  0
 33142  1  0  0  0  0
 34143  1  0  0  0  0
 34144  1  0  0  0  0
 34145  1  0  0  0  0
 38146  1  0  0  0  0
 38147  1  0  0  0  0
 39148  1  0  0  0  0
 39149  1  0  0  0  0
 39150  1  0  0  0  0
 44151  1  0  0  0  0
 45152  1  0  0  0  0
 48153  1  0  0  0  0
 48154  1  0  0  0  0
 48155  1  0  0  0  0
 49156  1  0  0  0  0
 50157  1  0  0  0  0
 52158  1  0  0  0  0
 53159  1  0  0  0  0
 56160  1  0  0  0  0
 56161  1  0  0  0  0
 56162  1  0  0  0  0
 57163  1  0  0  0  0
 58164  1  0  0  0  0
 65165  1  0  0  0  0
 66166  1  0  0  0  0
 69167  1  0  0  0  0
 69168  1  0  0  0  0
 69169  1  0  0  0  0
 70170  1  0  0  0  0
 71171  1  0  0  0  0
 73172  1  0  0  0  0
 74173  1  0  0  0  0
 77174  1  0  0  0  0
 77175  1  0  0  0  0
 77176  1  0  0  0  0
 78177  1  0  0  0  0
 79178  1  0  0  0  0
 83179  1  0  0  0  0
 89180  1  0  0  0  0
 89181  1  0  0  0  0
 90182  1  0  0  0  0
 90183  1  0  0  0  0
 90184  1  0  0  0  0
101185  1  0  0  0  0
101186  1  0  0  0  0
102187  1  0  0  0  0
102188  1  0  0  0  0
102189  1  0  0  0  0
109190  1  0  0  0  0
112191  1  0  0  0  0
117192  1  0  0  0  0
120193  1  0  0  0  0
120194  1  0  0  0  0
120195  1  0  0  0  0
121196  1  0  0  0  0
122197  1  0  0  0  0
M  END
