212

C         -7.94120       -0.46550        0.11430
C         -8.67950       -1.47810        0.68570
C         -8.10380       -2.55980        1.50110
O         -6.92850       -2.74240        1.76010
C         -9.25760       -3.29840        2.05600
C         -9.21960       -4.41910        2.87940
C        -10.45990       -4.91060        3.21290
C        -11.65200       -4.32470        2.77060
C        -11.70380       -3.21400        1.96140
C        -10.45300       -2.70390        1.60680
C        -10.11000       -1.58090        0.73880
C        -10.98650       -0.85720       -0.03420
C        -10.58460        0.07640       -1.00890
N        -10.33270        0.80420       -1.86250
C        -12.38440       -1.01390       -0.02460
N        -13.53020       -1.08490       -0.08020
C        -12.51070       -5.33220        3.49450
C        -13.16440       -4.86460        4.81190
C        -13.52190       -6.15360        5.51610
C        -12.39270       -6.71310        5.93130
C        -11.25310       -5.81140        5.51510
C        -11.94000       -4.44500        5.63580
C        -11.18030       -5.98940        3.98390
C         -6.59550       -0.53790       -0.25700
C         -5.77530       -1.63180       -0.60050
N         -6.16410       -2.92720       -0.79330
C         -5.20800       -3.95400       -0.63160
C         -4.38690       -3.98340        0.49470
C         -3.45030       -4.98160        0.63560
C         -3.31670       -5.96970       -0.34000
S         -2.07830       -7.18810       -0.05010
C         -2.14220       -8.24400       -1.52610
C         -4.14950       -5.95210       -1.45160
C         -5.08870       -4.94870       -1.59460
C         -7.46950       -3.29540       -1.13450
C         -8.02960       -4.45250       -0.58610
C         -9.33560       -4.78980       -0.85850
C        -10.11750       -3.98830       -1.68990
S        -11.79800       -4.47120       -1.88710
C        -12.50310       -3.21280       -2.98700
C         -9.54400       -2.87290       -2.29100
C         -8.23570       -2.53210       -2.01320
C         -4.45030       -1.19360       -0.84820
S         -2.97620       -2.00400       -1.25500
C         -2.13320       -0.47450       -1.32760
C         -2.93900        0.60790       -1.00390
N         -2.51860        1.91680       -0.83580
C         -1.25380        2.20890       -0.31410
C         -0.67520        1.39330        0.65610
C          0.61760        1.61240        1.09000
C          1.36000        2.66270        0.56780
S          3.03650        3.00320        1.00280
C          3.49490        1.63040        2.09570
C          0.76480        3.52100       -0.35560
C         -0.52490        3.30310       -0.78580
C         -3.39110        2.94470       -1.21900
C         -4.17520        2.80410       -2.36100
C         -5.08650        3.77930       -2.71490
C         -5.22220        4.91810       -1.93280
S         -6.36720        6.21460       -2.28660
C         -7.56820        5.41960       -3.39380
C         -4.41050        5.08070       -0.81160
C         -3.50740        4.10510       -0.45380
C         -4.26650        0.17900       -0.76000
S         -5.73060        1.00290       -0.37850
C         -0.72080       -0.40270       -1.60560
C         -0.17870        0.62760       -2.40360
N         -0.77230        1.53140       -3.19650
N          0.21100        2.25830       -3.64580
C         -0.00750        3.36040       -4.53830
C          0.85570        3.21220       -5.78410
N          1.40600        1.94290       -3.23790
C          1.21860        0.88700       -2.44020
C          2.15790        0.13390       -1.70050
C          1.60520       -0.95960       -1.04690
C          0.22630       -1.21920       -1.00990
F         -0.17660       -2.25280       -0.24780
F          2.38240       -1.78700       -0.32090
C          3.51180        0.59040       -1.57290
C          4.53460        0.04130       -0.84950
C          5.69010        0.85130       -0.79590
C          6.88330        0.60880       -0.08280
C          7.06950       -0.55580        0.75700
C          8.21020       -1.29330        0.93710
C          8.05270       -2.34010        1.86020
C          6.80770       -2.41640        2.41480
Si         6.09760       -3.62050        3.68190
C          5.49160       -2.57750        5.16970
C          6.58510       -1.69770        5.77000
C          4.62460       -4.51100        2.84160
C          3.62770       -5.13940        3.81070
C          7.51570       -4.80190        4.17860
C          7.13480       -5.78790        5.27680
S          5.79590       -1.16970        1.77480
C          7.88330        1.56990       -0.20480
C          7.71760        2.76120       -0.96180
C          6.49830        3.02770       -1.63220
C          6.28040        4.28310       -2.31190
C          6.64990        5.53710       -1.89650
C          6.27640        6.54700       -2.79610
C          5.62660        6.08900       -3.90800
Si         5.01240        7.04210       -5.41450
C          3.23070        6.46220       -5.80270
C          2.27600        6.64090       -4.62680
C          6.15650        6.60820       -6.88580
C          7.61620        6.96860       -6.62640
C          5.07310        8.90520       -4.99350
C          4.57370        9.78700       -6.13300
S          5.45120        4.36840       -3.83640
C          5.52850        2.03910       -1.55720
S          3.95150        2.12100       -2.29020
C          8.87680        3.54790       -0.93650
C          9.89710        3.03160       -0.15630
S          9.44310        1.50210        0.56540
C         11.12250        3.70900       -0.00510
C         12.23460        3.40110        0.72750
C         12.42940        2.19580        1.56750
O         11.66020        1.27520        1.75010
C         13.76790        2.36130        2.12850
S         14.77430        1.46810        3.18310
C         15.99400        2.69900        3.02730
Br        17.61590        2.52110        3.94630
C         15.64700        3.73870        2.20900
C         14.35550        3.53940        1.68950
C         13.42940        4.22540        0.80630
C         13.69080        5.42550        0.19800
C         12.82430        6.13390       -0.65760
N         12.17830        6.76970       -1.36330
C         14.91670        6.09790        0.38870
N         15.90680        6.66040        0.52890
H         -8.41460        0.49770       -0.03680
H         -8.27990       -4.84430        3.19630
H        -12.62710       -2.77130        1.62610
H        -13.18240       -5.91770        2.86960
H        -13.96120       -4.13570        4.69130
H        -14.52130       -6.54090        5.58810
H        -12.26040       -7.66110        6.41920
H        -10.30820       -5.94500        6.03510
H        -12.19940       -4.20400        6.66540
H        -11.37290       -3.62410        5.20110
H        -10.96520       -7.01330        3.68360
H         -4.51660       -3.23420        1.25930
H         -2.81000       -5.01210        1.50320
H         -1.36310       -8.98690       -1.38630
H         -1.93290       -7.65350       -2.41320
H         -3.10890       -8.73430       -1.59440
H         -4.07640       -6.70750       -2.21690
H         -5.73260       -4.93370       -2.46200
H         -7.43730       -5.06660        0.07470
H         -9.77730       -5.66650       -0.41050
H        -12.44310       -2.23230       -2.52440
H        -13.54510       -3.49090       -3.11100
H        -11.99770       -3.23250       -3.94800
H        -10.10810       -2.25110       -2.96720
H         -7.80980       -1.65600       -2.47860
H         -1.24130        0.57350        1.07270
H          1.03240        0.95380        1.83570
H          3.33910        0.68200        1.59070
H          2.93100        1.68600        3.02220
H          4.55300        1.76110        2.30010
H          1.33730        4.34930       -0.74410
H         -0.97350        3.96410       -1.51270
H         -4.05990        1.92480       -2.97710
H         -5.68130        3.64180       -3.60350
H         -7.13860        5.27880       -4.38160
H         -8.40880        6.10370       -3.45580
H         -7.88870        4.47580       -2.96330
H         -4.51340        5.97390       -0.21490
H         -2.89900        4.22570        0.42990
H          0.25750        4.28290       -4.01280
H         -1.07300        3.36730       -4.77460
H          0.58430        2.31400       -6.33330
H          1.90070        3.14510       -5.49350
H          0.72080        4.07290       -6.43230
H          4.46710       -0.91460       -0.36690
H          9.12270       -1.11360        0.39830
H          8.84140       -3.02500        2.11360
H          5.09450       -3.22990        5.94810
H          4.66520       -1.94110        4.84750
H          6.19410       -1.10070        6.59220
H          6.98770       -1.02200        5.01880
H          7.40260       -2.30500        6.15020
H          5.00240       -5.28560        2.17200
H          4.09150       -3.79700        2.21120
H          2.81740       -5.62090        3.26630
H          3.19620       -4.38280        4.46080
H          4.10880       -5.88800        4.43460
H          8.37200       -4.21570        4.51470
H          7.85000       -5.36190        3.30410
H          7.98510       -6.41060        5.55020
H          6.33260       -6.44140        4.94420
H          6.79940       -5.26260        6.16760
H          7.12910        5.72640       -0.95240
H          6.48080        7.58950       -2.63160
H          3.24800        5.40940       -6.08690
H          2.84330        7.00860       -6.66320
H          2.25030        7.67900       -4.30590
H          1.26350        6.34890       -4.90120
H          2.59570        6.03250       -3.78410
H          6.08930        5.53870       -7.09150
H          5.81880        7.11740       -7.78890
H          8.24300        6.67800       -7.46740
H          7.98170        6.46110       -5.73690
H          7.72760        8.03910       -6.47470
H          6.09580        9.19370       -4.74910
H          4.47670        9.10560       -4.10250
H          3.54100        9.55130       -6.37770
H          5.17650        9.63830       -7.02540
H          4.62580       10.83960       -5.86010
H          8.98910        4.46450       -1.48780
H         11.15990        4.63520       -0.56700
H         16.28820        4.57690        2.00840
