
  xtb     02092210023D
 energy: -314.310720403647 gnorm: 0.000480390644 xtb: 6.4.1 (unknown)
190209  0     0  0            999 V2000
   -3.4439    6.2000    3.2747 C   0  0  0  0  0  0  0  0  0  0  0  0
   -2.2345    6.7836    3.4942 C   0  0  0  0  0  0  0  0  0  0  0  0
   -0.9064    6.2504    3.1397 C   0  0  0  0  0  0  0  0  0  0  0  0
   -0.6501    5.3995    2.3097 O   0  0  0  0  0  0  0  0  0  0  0  0
    0.0544    6.9843    3.9803 C   0  0  0  0  0  0  0  0  0  0  0  0
    1.4207    6.7397    4.1072 C   0  0  0  0  0  0  0  0  0  0  0  0
    2.0592    7.5774    4.9895 C   0  0  0  0  0  0  0  0  0  0  0  0
    1.3928    8.5924    5.6907 C   0  0  0  0  0  0  0  0  0  0  0  0
    0.0487    8.8519    5.5700 C   0  0  0  0  0  0  0  0  0  0  0  0
   -0.6221    8.0051    4.6826 C   0  0  0  0  0  0  0  0  0  0  0  0
   -2.0310    7.9711    4.3078 C   0  0  0  0  0  0  0  0  0  0  0  0
   -2.9732    8.9230    4.5862 C   0  0  0  0  0  0  0  0  0  0  0  0
   -4.2845    8.9333    4.0586 C   0  0  0  0  0  0  0  0  0  0  0  0
   -5.3425    9.0477    3.6279 N   0  0  0  0  0  0  0  0  0  0  0  0
   -2.7314   10.0708    5.3699 C   0  0  0  0  0  0  0  0  0  0  0  0
   -2.5963   11.0182    6.0039 N   0  0  0  0  0  0  0  0  0  0  0  0
    2.6446    9.0299    6.4086 C   0  0  0  0  0  0  0  0  0  0  0  0
    2.7857    8.5816    7.8788 C   0  0  0  0  0  0  0  0  0  0  0  0
    4.2639    8.7250    8.1603 C   0  0  0  0  0  0  0  0  0  0  0  0
    4.8957    7.7645    7.4978 C   0  0  0  0  0  0  0  0  0  0  0  0
    3.8550    6.9555    6.7575 C   0  0  0  0  0  0  0  0  0  0  0  0
    2.6888    7.0559    7.7493 C   0  0  0  0  0  0  0  0  0  0  0  0
    3.3879    7.8987    5.6280 C   0  0  0  0  0  0  0  0  0  0  0  0
   -3.7616    5.0154    2.5770 C   0  0  0  0  0  0  0  0  0  0  0  0
   -2.6625    4.0984    1.5884 S   0  0  0  0  0  0  0  0  0  0  0  0
   -3.9007    2.9655    1.1870 C   0  0  0  0  0  0  0  0  0  0  0  0
   -5.1323    3.3100    1.7326 C   0  0  0  0  0  0  0  0  0  0  0  0
   -6.4095    2.6746    1.3722 C   0  0  0  0  0  0  0  0  0  0  0  0
   -6.4904    1.7117    0.6270 O   0  0  0  0  0  0  0  0  0  0  0  0
   -7.5779    3.3567    1.9338 C   0  0  0  0  0  0  0  0  0  0  0  0
   -8.8788    3.0350    1.6372 C   0  0  0  0  0  0  0  0  0  0  0  0
   -9.3986    1.9460    0.7707 C   0  0  0  0  0  0  0  0  0  0  0  0
   -9.4671    0.6261    1.5448 C   0  0  0  0  0  0  0  0  0  0  0  0
   -9.9796    4.0681    2.4854 S   0  0  0  0  0  0  0  0  0  0  0  0
   -8.6942    4.9326    3.2563 C   0  0  0  0  0  0  0  0  0  0  0  0
   -8.9955    6.0745    4.1579 C   0  0  0  0  0  0  0  0  0  0  0  0
   -8.7816    7.4135    3.4441 C   0  0  0  0  0  0  0  0  0  0  0  0
   -7.4737    4.4500    2.8545 C   0  0  0  0  0  0  0  0  0  0  0  0
   -6.1898    4.9715    3.3176 C   0  0  0  0  0  0  0  0  0  0  0  0
   -6.0770    5.7373    4.2622 O   0  0  0  0  0  0  0  0  0  0  0  0
   -5.0453    4.4603    2.5484 C   0  0  0  0  0  0  0  0  0  0  0  0
   -3.5023    1.7634    0.4786 C   0  0  0  0  0  0  0  0  0  0  0  0
   -2.5648    1.8669   -0.5655 C   0  0  0  0  0  0  0  0  0  0  0  0
   -2.2030    3.1162   -1.0212 O   0  0  0  0  0  0  0  0  0  0  0  0
   -3.2242    3.8855   -1.6424 C   0  0  0  0  0  0  0  0  0  0  0  0
   -2.6882    5.2926   -1.8409 C   0  0  0  0  0  0  0  0  0  0  0  0
   -1.9496    0.7190   -1.0675 C   0  0  0  0  0  0  0  0  0  0  0  0
   -1.0152    0.6456   -2.0440 O   0  0  0  0  0  0  0  0  0  0  0  0
   -0.7942    1.6774   -2.9938 C   0  0  0  0  0  0  0  0  0  0  0  0
    0.3132    2.6390   -2.5832 C   0  0  0  0  0  0  0  0  0  0  0  0
   -2.2865   -0.5316   -0.4954 C   0  0  0  0  0  0  0  0  0  0  0  0
   -3.3123   -0.6245    0.4346 C   0  0  0  0  0  0  0  0  0  0  0  0
   -3.9109    0.5116    0.9296 C   0  0  0  0  0  0  0  0  0  0  0  0
   -1.4884   -1.6887   -0.8537 C   0  0  0  0  0  0  0  0  0  0  0  0
   -0.1068   -1.7339   -0.8419 C   0  0  0  0  0  0  0  0  0  0  0  0
    0.7197   -0.7310   -0.3616 N   0  0  0  0  0  0  0  0  0  0  0  0
    1.9792   -0.5771   -0.9551 C   0  0  0  0  0  0  0  0  0  0  0  0
    3.1142   -0.3775   -0.1753 C   0  0  0  0  0  0  0  0  0  0  0  0
    4.3678   -0.3417   -0.7546 C   0  0  0  0  0  0  0  0  0  0  0  0
    4.5053   -0.4972   -2.1276 C   0  0  0  0  0  0  0  0  0  0  0  0
    6.0548   -0.5583   -2.9707 S   0  0  0  0  0  0  0  0  0  0  0  0
    7.2847   -0.4204   -1.6393 C   0  0  0  0  0  0  0  0  0  0  0  0
    3.3658   -0.6331   -2.9188 C   0  0  0  0  0  0  0  0  0  0  0  0
    2.1171   -0.6794   -2.3406 C   0  0  0  0  0  0  0  0  0  0  0  0
    0.3304    0.0424    0.7357 C   0  0  0  0  0  0  0  0  0  0  0  0
    0.6774    1.3911    0.8184 C   0  0  0  0  0  0  0  0  0  0  0  0
    0.2120    2.1715    1.8551 C   0  0  0  0  0  0  0  0  0  0  0  0
   -0.5923    1.6148    2.8434 C   0  0  0  0  0  0  0  0  0  0  0  0
   -1.1822    2.6767    4.1340 S   0  0  0  0  0  0  0  0  0  0  0  0
   -2.7890    1.9236    4.5402 C   0  0  0  0  0  0  0  0  0  0  0  0
   -0.8867    0.2597    2.8069 C   0  0  0  0  0  0  0  0  0  0  0  0
   -0.4325   -0.5159    1.7609 C   0  0  0  0  0  0  0  0  0  0  0  0
    0.3589   -2.9891   -1.2988 C   0  0  0  0  0  0  0  0  0  0  0  0
    1.9247   -3.6143   -1.6441 S   0  0  0  0  0  0  0  0  0  0  0  0
    1.2189   -5.1441   -2.1708 C   0  0  0  0  0  0  0  0  0  0  0  0
   -0.1756   -5.1531   -2.0491 C   0  0  0  0  0  0  0  0  0  0  0  0
   -0.9798   -6.2047   -2.3991 N   0  0  0  0  0  0  0  0  0  0  0  0
   -2.2213   -6.3892   -1.7758 C   0  0  0  0  0  0  0  0  0  0  0  0
   -3.3136   -6.8504   -2.5115 C   0  0  0  0  0  0  0  0  0  0  0  0
   -4.5289   -7.0446   -1.8969 C   0  0  0  0  0  0  0  0  0  0  0  0
   -4.6862   -6.7829   -0.5359 C   0  0  0  0  0  0  0  0  0  0  0  0
   -6.2923   -7.0671    0.1354 S   0  0  0  0  0  0  0  0  0  0  0  0
   -6.1496   -6.5224    1.8614 C   0  0  0  0  0  0  0  0  0  0  0  0
   -3.5983   -6.3381    0.2023 C   0  0  0  0  0  0  0  0  0  0  0  0
   -2.3763   -6.1490   -0.4133 C   0  0  0  0  0  0  0  0  0  0  0  0
   -0.5778   -7.1255   -3.3918 C   0  0  0  0  0  0  0  0  0  0  0  0
   -0.6641   -8.4912   -3.1487 C   0  0  0  0  0  0  0  0  0  0  0  0
   -0.2203   -9.3985   -4.0915 C   0  0  0  0  0  0  0  0  0  0  0  0
    0.3164   -8.9467   -5.2898 C   0  0  0  0  0  0  0  0  0  0  0  0
    0.9433  -10.0158   -6.5444 S   0  0  0  0  0  0  0  0  0  0  0  0
    1.1948  -11.5870   -5.6679 C   0  0  0  0  0  0  0  0  0  0  0  0
    0.3577   -7.5780   -5.5519 C   0  0  0  0  0  0  0  0  0  0  0  0
   -0.0910   -6.6730   -4.6167 C   0  0  0  0  0  0  0  0  0  0  0  0
   -0.6457   -3.9041   -1.5757 C   0  0  0  0  0  0  0  0  0  0  0  0
   -2.2124   -3.2161   -1.2967 S   0  0  0  0  0  0  0  0  0  0  0  0
    2.0750   -6.1904   -2.5672 C   0  0  0  0  0  0  0  0  0  0  0  0
    3.3447   -6.0582   -3.0493 C   0  0  0  0  0  0  0  0  0  0  0  0
    4.3037   -7.1867   -2.9698 C   0  0  0  0  0  0  0  0  0  0  0  0
    4.0432   -8.3419   -2.7075 O   0  0  0  0  0  0  0  0  0  0  0  0
    5.6315   -6.5914   -3.2285 C   0  0  0  0  0  0  0  0  0  0  0  0
    6.8783   -7.2024   -3.1094 C   0  0  0  0  0  0  0  0  0  0  0  0
    7.9382   -6.3662   -3.3692 C   0  0  0  0  0  0  0  0  0  0  0  0
    7.7777   -5.0192   -3.7200 C   0  0  0  0  0  0  0  0  0  0  0  0
    6.5560   -4.4023   -3.8487 C   0  0  0  0  0  0  0  0  0  0  0  0
    5.4676   -5.2399   -3.5955 C   0  0  0  0  0  0  0  0  0  0  0  0
    4.0389   -4.9401   -3.6441 C   0  0  0  0  0  0  0  0  0  0  0  0
    3.4882   -3.9273   -4.3880 C   0  0  0  0  0  0  0  0  0  0  0  0
    4.2411   -3.0244   -5.1656 C   0  0  0  0  0  0  0  0  0  0  0  0
    4.7837   -2.2770   -5.8481 N   0  0  0  0  0  0  0  0  0  0  0  0
    2.1076   -3.7528   -4.5964 C   0  0  0  0  0  0  0  0  0  0  0  0
    0.9968   -3.5840   -4.8397 N   0  0  0  0  0  0  0  0  0  0  0  0
    9.2645   -4.7809   -3.8097 C   0  0  0  0  0  0  0  0  0  0  0  0
    9.9149   -4.0334   -2.6273 C   0  0  0  0  0  0  0  0  0  0  0  0
   11.3836   -4.3695   -2.7477 C   0  0  0  0  0  0  0  0  0  0  0  0
   11.5346   -5.6437   -2.4094 C   0  0  0  0  0  0  0  0  0  0  0  0
   10.1703   -6.1897   -2.0549 C   0  0  0  0  0  0  0  0  0  0  0  0
    9.5337   -4.9338   -1.4452 C   0  0  0  0  0  0  0  0  0  0  0  0
    9.4447   -6.2815   -3.4145 C   0  0  0  0  0  0  0  0  0  0  0  0
   -4.3040    6.6556    3.7528 H   0  0  0  0  0  0  0  0  0  0  0  0
    1.8970    5.9491    3.5490 H   0  0  0  0  0  0  0  0  0  0  0  0
   -0.4535    9.6329    6.1164 H   0  0  0  0  0  0  0  0  0  0  0  0
    2.9486   10.0622    6.2472 H   0  0  0  0  0  0  0  0  0  0  0  0
    2.1058    9.0709    8.5707 H   0  0  0  0  0  0  0  0  0  0  0  0
    4.6885    9.5173    8.7483 H   0  0  0  0  0  0  0  0  0  0  0  0
    5.9537    7.5945    7.4219 H   0  0  0  0  0  0  0  0  0  0  0  0
    4.1491    5.9623    6.4291 H   0  0  0  0  0  0  0  0  0  0  0  0
    1.7384    6.7019    7.3543 H   0  0  0  0  0  0  0  0  0  0  0  0
    2.9035    6.5493    8.6888 H   0  0  0  0  0  0  0  0  0  0  0  0
    4.1895    8.1763    4.9462 H   0  0  0  0  0  0  0  0  0  0  0  0
   -8.7248    1.8169   -0.0784 H   0  0  0  0  0  0  0  0  0  0  0  0
  -10.3935    2.2111    0.4080 H   0  0  0  0  0  0  0  0  0  0  0  0
   -9.8852   -0.1517    0.9121 H   0  0  0  0  0  0  0  0  0  0  0  0
  -10.0908    0.7325    2.4301 H   0  0  0  0  0  0  0  0  0  0  0  0
   -8.4678    0.3257    1.8480 H   0  0  0  0  0  0  0  0  0  0  0  0
   -8.3281    6.0297    5.0205 H   0  0  0  0  0  0  0  0  0  0  0  0
  -10.0299    6.0007    4.4996 H   0  0  0  0  0  0  0  0  0  0  0  0
   -7.7321    7.5472    3.1976 H   0  0  0  0  0  0  0  0  0  0  0  0
   -9.3715    7.4608    2.5310 H   0  0  0  0  0  0  0  0  0  0  0  0
   -9.0826    8.2275    4.0971 H   0  0  0  0  0  0  0  0  0  0  0  0
   -3.4917    3.4339   -2.6105 H   0  0  0  0  0  0  0  0  0  0  0  0
   -4.1303    3.9006   -1.0230 H   0  0  0  0  0  0  0  0  0  0  0  0
   -1.8091    5.2687   -2.4788 H   0  0  0  0  0  0  0  0  0  0  0  0
   -2.4052    5.7177   -0.8815 H   0  0  0  0  0  0  0  0  0  0  0  0
   -3.4488    5.9162   -2.3018 H   0  0  0  0  0  0  0  0  0  0  0  0
   -1.7205    2.2130   -3.2121 H   0  0  0  0  0  0  0  0  0  0  0  0
   -0.4913    1.1384   -3.8988 H   0  0  0  0  0  0  0  0  0  0  0  0
    0.0331    3.1756   -1.6810 H   0  0  0  0  0  0  0  0  0  0  0  0
    0.4824    3.3526   -3.3855 H   0  0  0  0  0  0  0  0  0  0  0  0
    1.2334    2.0859   -2.4084 H   0  0  0  0  0  0  0  0  0  0  0  0
   -3.5910   -1.5977    0.8093 H   0  0  0  0  0  0  0  0  0  0  0  0
   -4.6578    0.4396    1.7029 H   0  0  0  0  0  0  0  0  0  0  0  0
    3.0142   -0.2747    0.8954 H   0  0  0  0  0  0  0  0  0  0  0  0
    5.2287   -0.2094   -0.1194 H   0  0  0  0  0  0  0  0  0  0  0  0
    8.2509   -0.4663   -2.1320 H   0  0  0  0  0  0  0  0  0  0  0  0
    7.1801    0.5329   -1.1296 H   0  0  0  0  0  0  0  0  0  0  0  0
    7.1816   -1.2525   -0.9487 H   0  0  0  0  0  0  0  0  0  0  0  0
    3.4758   -0.7105   -3.9895 H   0  0  0  0  0  0  0  0  0  0  0  0
    1.2373   -0.8031   -2.9536 H   0  0  0  0  0  0  0  0  0  0  0  0
    1.2934    1.8287    0.0492 H   0  0  0  0  0  0  0  0  0  0  0  0
    0.4376    3.2254    1.8937 H   0  0  0  0  0  0  0  0  0  0  0  0
   -3.2681    1.5926    3.6236 H   0  0  0  0  0  0  0  0  0  0  0  0
   -2.6573    1.0951    5.2302 H   0  0  0  0  0  0  0  0  0  0  0  0
   -3.3801    2.7023    5.0133 H   0  0  0  0  0  0  0  0  0  0  0  0
   -1.4685   -0.2001    3.5904 H   0  0  0  0  0  0  0  0  0  0  0  0
   -0.6683   -1.5694    1.7398 H   0  0  0  0  0  0  0  0  0  0  0  0
   -3.2001   -7.0462   -3.5668 H   0  0  0  0  0  0  0  0  0  0  0  0
   -5.3774   -7.3949   -2.4640 H   0  0  0  0  0  0  0  0  0  0  0  0
   -5.8509   -5.4789    1.8960 H   0  0  0  0  0  0  0  0  0  0  0  0
   -7.1423   -6.6362    2.2858 H   0  0  0  0  0  0  0  0  0  0  0  0
   -5.4472   -7.1549    2.3968 H   0  0  0  0  0  0  0  0  0  0  0  0
   -3.6816   -6.1453    1.2595 H   0  0  0  0  0  0  0  0  0  0  0  0
   -1.5292   -5.8258    0.1736 H   0  0  0  0  0  0  0  0  0  0  0  0
   -1.0669   -8.8425   -2.2098 H   0  0  0  0  0  0  0  0  0  0  0  0
   -0.2902  -10.4520   -3.8750 H   0  0  0  0  0  0  0  0  0  0  0  0
    1.7579  -12.2164   -6.3498 H   0  0  0  0  0  0  0  0  0  0  0  0
    1.7716  -11.4073   -4.7657 H   0  0  0  0  0  0  0  0  0  0  0  0
    0.2401  -12.0542   -5.4434 H   0  0  0  0  0  0  0  0  0  0  0  0
    0.7466   -7.2348   -6.4981 H   0  0  0  0  0  0  0  0  0  0  0  0
   -0.0502   -5.6136   -4.8197 H   0  0  0  0  0  0  0  0  0  0  0  0
    1.7443   -7.2064   -2.3828 H   0  0  0  0  0  0  0  0  0  0  0  0
    6.9643   -8.2420   -2.8343 H   0  0  0  0  0  0  0  0  0  0  0  0
    6.4389   -3.3609   -4.1018 H   0  0  0  0  0  0  0  0  0  0  0  0
    9.6331   -4.4493   -4.7784 H   0  0  0  0  0  0  0  0  0  0  0  0
    9.6573   -2.9798   -2.5596 H   0  0  0  0  0  0  0  0  0  0  0  0
   12.1284   -3.6855   -3.1104 H   0  0  0  0  0  0  0  0  0  0  0  0
   12.4305   -6.2360   -2.4325 H   0  0  0  0  0  0  0  0  0  0  0  0
   10.1468   -7.1006   -1.4627 H   0  0  0  0  0  0  0  0  0  0  0  0
    8.4611   -5.0168   -1.2792 H   0  0  0  0  0  0  0  0  0  0  0  0
   10.0242   -4.6316   -0.5210 H   0  0  0  0  0  0  0  0  0  0  0  0
    9.9402   -6.9493   -4.1169 H   0  0  0  0  0  0  0  0  0  0  0  0
  1  2  2  0  0  0  0
  2  3  1  0  0  0  0
  3  4  2  0  0  0  0
  3  5  1  0  0  0  0
  5  6  2  0  0  0  0
  6  7  1  0  0  0  0
  7  8  2  0  0  0  0
  8  9  1  0  0  0  0
  9 10  2  0  0  0  0
 10 11  1  0  0  0  0
 11 12  2  0  0  0  0
 12 13  1  0  0  0  0
 13 14  3  0  0  0  0
 12 15  1  0  0  0  0
 15 16  3  0  0  0  0
  8 17  1  0  0  0  0
 17 18  1  0  0  0  0
 18 19  1  0  0  0  0
 19 20  2  0  0  0  0
 20 21  1  0  0  0  0
 21 22  1  0  0  0  0
 21 23  1  0  0  0  0
  1 24  1  0  0  0  0
 24 25  1  0  0  0  0
 25 26  1  0  0  0  0
 26 27  2  0  0  0  0
 27 28  1  0  0  0  0
 28 29  2  0  0  0  0
 28 30  1  0  0  0  0
 30 31  2  0  0  0  0
 31 32  1  0  0  0  0
 32 33  1  0  0  0  0
 31 34  1  0  0  0  0
 34 35  1  0  0  0  0
 35 36  1  0  0  0  0
 36 37  1  0  0  0  0
 35 38  2  0  0  0  0
 38 39  1  0  0  0  0
 39 40  2  0  0  0  0
 39 41  1  0  0  0  0
 26 42  1  0  0  0  0
 42 43  2  0  0  0  0
 43 44  1  0  0  0  0
 44 45  1  0  0  0  0
 45 46  1  0  0  0  0
 43 47  1  0  0  0  0
 47 48  1  0  0  0  0
 48 49  1  0  0  0  0
 49 50  1  0  0  0  0
 47 51  2  0  0  0  0
 51 52  1  0  0  0  0
 52 53  2  0  0  0  0
 51 54  1  0  0  0  0
 54 55  2  0  0  0  0
 55 56  1  0  0  0  0
 56 57  1  0  0  0  0
 57 58  2  0  0  0  0
 58 59  1  0  0  0  0
 59 60  2  0  0  0  0
 60 61  1  0  0  0  0
 61 62  1  0  0  0  0
 60 63  1  0  0  0  0
 63 64  2  0  0  0  0
 56 65  1  0  0  0  0
 65 66  2  0  0  0  0
 66 67  1  0  0  0  0
 67 68  2  0  0  0  0
 68 69  1  0  0  0  0
 69 70  1  0  0  0  0
 68 71  1  0  0  0  0
 71 72  2  0  0  0  0
 55 73  1  0  0  0  0
 73 74  1  0  0  0  0
 74 75  1  0  0  0  0
 75 76  2  0  0  0  0
 76 77  1  0  0  0  0
 77 78  1  0  0  0  0
 78 79  2  0  0  0  0
 79 80  1  0  0  0  0
 80 81  2  0  0  0  0
 81 82  1  0  0  0  0
 82 83  1  0  0  0  0
 81 84  1  0  0  0  0
 84 85  2  0  0  0  0
 77 86  1  0  0  0  0
 86 87  2  0  0  0  0
 87 88  1  0  0  0  0
 88 89  2  0  0  0  0
 89 90  1  0  0  0  0
 90 91  1  0  0  0  0
 89 92  1  0  0  0  0
 92 93  2  0  0  0  0
 76 94  1  0  0  0  0
 94 95  1  0  0  0  0
 75 96  1  0  0  0  0
 96 97  2  0  0  0  0
 97 98  1  0  0  0  0
 98 99  2  0  0  0  0
 98100  1  0  0  0  0
100101  2  0  0  0  0
101102  1  0  0  0  0
102103  2  0  0  0  0
103104  1  0  0  0  0
104105  2  0  0  0  0
105106  1  0  0  0  0
106107  2  0  0  0  0
107108  1  0  0  0  0
108109  3  0  0  0  0
107110  1  0  0  0  0
110111  3  0  0  0  0
103112  1  0  0  0  0
112113  1  0  0  0  0
113114  1  0  0  0  0
114115  2  0  0  0  0
115116  1  0  0  0  0
116117  1  0  0  0  0
116118  1  0  0  0  0
 11  2  1  0  0  0  0
 23 17  1  0  0  0  0
 41 24  2  0  0  0  0
 53 42  1  0  0  0  0
 95 54  1  0  0  0  0
106 97  1  0  0  0  0
118112  1  0  0  0  0
 10  5  1  0  0  0  0
 22 18  1  0  0  0  0
 41 27  1  0  0  0  0
 64 57  1  0  0  0  0
 72 65  1  0  0  0  0
 94 73  2  0  0  0  0
105100  1  0  0  0  0
117113  1  0  0  0  0
 23  7  1  0  0  0  0
 38 30  1  0  0  0  0
 85 78  1  0  0  0  0
 93 86  1  0  0  0  0
118102  1  0  0  0  0
  1119  1  0  0  0  0
  6120  1  0  0  0  0
  9121  1  0  0  0  0
 17122  1  0  0  0  0
 18123  1  0  0  0  0
 19124  1  0  0  0  0
 20125  1  0  0  0  0
 21126  1  0  0  0  0
 22127  1  0  0  0  0
 22128  1  0  0  0  0
 23129  1  0  0  0  0
 32130  1  0  0  0  0
 32131  1  0  0  0  0
 33132  1  0  0  0  0
 33133  1  0  0  0  0
 33134  1  0  0  0  0
 36135  1  0  0  0  0
 36136  1  0  0  0  0
 37137  1  0  0  0  0
 37138  1  0  0  0  0
 37139  1  0  0  0  0
 45140  1  0  0  0  0
 45141  1  0  0  0  0
 46142  1  0  0  0  0
 46143  1  0  0  0  0
 46144  1  0  0  0  0
 49145  1  0  0  0  0
 49146  1  0  0  0  0
 50147  1  0  0  0  0
 50148  1  0  0  0  0
 50149  1  0  0  0  0
 52150  1  0  0  0  0
 53151  1  0  0  0  0
 58152  1  0  0  0  0
 59153  1  0  0  0  0
 62154  1  0  0  0  0
 62155  1  0  0  0  0
 62156  1  0  0  0  0
 63157  1  0  0  0  0
 64158  1  0  0  0  0
 66159  1  0  0  0  0
 67160  1  0  0  0  0
 70161  1  0  0  0  0
 70162  1  0  0  0  0
 70163  1  0  0  0  0
 71164  1  0  0  0  0
 72165  1  0  0  0  0
 79166  1  0  0  0  0
 80167  1  0  0  0  0
 83168  1  0  0  0  0
 83169  1  0  0  0  0
 83170  1  0  0  0  0
 84171  1  0  0  0  0
 85172  1  0  0  0  0
 87173  1  0  0  0  0
 88174  1  0  0  0  0
 91175  1  0  0  0  0
 91176  1  0  0  0  0
 91177  1  0  0  0  0
 92178  1  0  0  0  0
 93179  1  0  0  0  0
 96180  1  0  0  0  0
101181  1  0  0  0  0
104182  1  0  0  0  0
112183  1  0  0  0  0
113184  1  0  0  0  0
114185  1  0  0  0  0
115186  1  0  0  0  0
116187  1  0  0  0  0
117188  1  0  0  0  0
117189  1  0  0  0  0
118190  1  0  0  0  0
M  END
