
  xtb     02062208163D
 energy: -446.893525683505 gnorm: 0.000905316355 xtb: 6.4.1 (unknown)
268293  0     0  0            999 V2000
   -1.7267    1.9691   -8.3620 C   0  0  0  0  0  0  0  0  0  0  0  0
   -1.5546    3.0069   -9.2481 C   0  0  0  0  0  0  0  0  0  0  0  0
   -0.4373    3.9548   -9.2711 C   0  0  0  0  0  0  0  0  0  0  0  0
    0.4540    4.0749   -8.4474 O   0  0  0  0  0  0  0  0  0  0  0  0
   -0.5900    4.7421  -10.5081 C   0  0  0  0  0  0  0  0  0  0  0  0
    0.2378    5.7646  -10.9629 C   0  0  0  0  0  0  0  0  0  0  0  0
   -0.1666    6.3250  -12.1513 C   0  0  0  0  0  0  0  0  0  0  0  0
   -1.3133    5.9022  -12.8353 C   0  0  0  0  0  0  0  0  0  0  0  0
   -2.1406    4.8955  -12.3955 C   0  0  0  0  0  0  0  0  0  0  0  0
   -1.7438    4.3088  -11.1919 C   0  0  0  0  0  0  0  0  0  0  0  0
   -2.3780    3.2503  -10.4077 C   0  0  0  0  0  0  0  0  0  0  0  0
   -3.5643    2.6321  -10.7247 C   0  0  0  0  0  0  0  0  0  0  0  0
   -4.2781    1.7535   -9.8899 C   0  0  0  0  0  0  0  0  0  0  0  0
   -4.9587    1.0682   -9.2647 N   0  0  0  0  0  0  0  0  0  0  0  0
   -4.2682    2.8111  -11.9315 C   0  0  0  0  0  0  0  0  0  0  0  0
   -4.8935    2.8702  -12.8937 N   0  0  0  0  0  0  0  0  0  0  0  0
   -1.1147    6.8994  -13.9491 C   0  0  0  0  0  0  0  0  0  0  0  0
   -0.5449    6.3787  -15.2916 C   0  0  0  0  0  0  0  0  0  0  0  0
    0.2704    5.1525  -14.9638 C   0  0  0  0  0  0  0  0  0  0  0  0
    1.3578    5.5505  -14.3172 C   0  0  0  0  0  0  0  0  0  0  0  0
    1.2976    7.0531  -14.1962 C   0  0  0  0  0  0  0  0  0  0  0  0
    0.5808    7.4022  -15.5103 C   0  0  0  0  0  0  0  0  0  0  0  0
    0.1650    7.3693  -13.1881 C   0  0  0  0  0  0  0  0  0  0  0  0
   -0.9937    1.6096   -7.2307 C   0  0  0  0  0  0  0  0  0  0  0  0
   -1.2740    0.4515   -6.4614 C   0  0  0  0  0  0  0  0  0  0  0  0
   -2.1924   -0.5242   -6.7657 N   0  0  0  0  0  0  0  0  0  0  0  0
   -2.4144   -0.9617   -8.0802 C   0  0  0  0  0  0  0  0  0  0  0  0
   -3.6914   -1.3302   -8.4949 C   0  0  0  0  0  0  0  0  0  0  0  0
   -3.9233   -1.6971   -9.8061 C   0  0  0  0  0  0  0  0  0  0  0  0
   -2.8867   -1.6782  -10.7280 C   0  0  0  0  0  0  0  0  0  0  0  0
   -3.1063   -2.0340  -12.4427 S   0  0  0  0  0  0  0  0  0  0  0  0
   -4.8812   -1.7428  -12.6949 C   0  0  0  0  0  0  0  0  0  0  0  0
   -1.5955   -1.3664  -10.3026 C   0  0  0  0  0  0  0  0  0  0  0  0
   -1.3577   -1.0234   -8.9918 C   0  0  0  0  0  0  0  0  0  0  0  0
   -2.9256   -1.0906   -5.7077 C   0  0  0  0  0  0  0  0  0  0  0  0
   -3.2035   -2.4532   -5.6774 C   0  0  0  0  0  0  0  0  0  0  0  0
   -3.9413   -2.9981   -4.6454 C   0  0  0  0  0  0  0  0  0  0  0  0
   -4.4020   -2.1855   -3.6180 C   0  0  0  0  0  0  0  0  0  0  0  0
   -5.3457   -2.7715   -2.2498 S   0  0  0  0  0  0  0  0  0  0  0  0
   -5.7892   -4.4672   -2.7122 C   0  0  0  0  0  0  0  0  0  0  0  0
   -4.1178   -0.8218   -3.6384 C   0  0  0  0  0  0  0  0  0  0  0  0
   -3.3952   -0.2779   -4.6750 C   0  0  0  0  0  0  0  0  0  0  0  0
   -0.5081    0.4369   -5.2857 C   0  0  0  0  0  0  0  0  0  0  0  0
   -0.3577   -0.6294   -3.9299 S   0  0  0  0  0  0  0  0  0  0  0  0
    0.8311    0.4366   -3.1658 C   0  0  0  0  0  0  0  0  0  0  0  0
    1.0674    1.5597   -3.9415 C   0  0  0  0  0  0  0  0  0  0  0  0
    1.9229    2.6545   -3.6890 N   0  0  0  0  0  0  0  0  0  0  0  0
    3.0065    2.7058   -4.5825 C   0  0  0  0  0  0  0  0  0  0  0  0
    3.4146    3.8586   -5.2476 C   0  0  0  0  0  0  0  0  0  0  0  0
    4.5298    3.8436   -6.0623 C   0  0  0  0  0  0  0  0  0  0  0  0
    5.2367    2.6673   -6.2639 C   0  0  0  0  0  0  0  0  0  0  0  0
    6.6960    2.5698   -7.2598 S   0  0  0  0  0  0  0  0  0  0  0  0
    7.3833    4.2437   -7.1021 C   0  0  0  0  0  0  0  0  0  0  0  0
    4.7697    1.4900   -5.6913 C   0  0  0  0  0  0  0  0  0  0  0  0
    3.6751    1.5104   -4.8576 C   0  0  0  0  0  0  0  0  0  0  0  0
    1.4112    3.7359   -2.9762 C   0  0  0  0  0  0  0  0  0  0  0  0
    2.1777    4.8690   -2.6892 C   0  0  0  0  0  0  0  0  0  0  0  0
    1.6898    5.8597   -1.8663 C   0  0  0  0  0  0  0  0  0  0  0  0
    0.4205    5.7664   -1.3060 C   0  0  0  0  0  0  0  0  0  0  0  0
   -0.0488    7.0585   -0.1946 S   0  0  0  0  0  0  0  0  0  0  0  0
   -1.7536    6.6507    0.2694 C   0  0  0  0  0  0  0  0  0  0  0  0
   -0.3733    4.6789   -1.6313 C   0  0  0  0  0  0  0  0  0  0  0  0
    0.1167    3.6850   -2.4569 C   0  0  0  0  0  0  0  0  0  0  0  0
    0.3318    1.5319   -5.1472 C   0  0  0  0  0  0  0  0  0  0  0  0
    0.2733    2.6012   -6.5007 S   0  0  0  0  0  0  0  0  0  0  0  0
    1.2595   -0.0103   -1.8776 C   0  0  0  0  0  0  0  0  0  0  0  0
    1.7947    0.6236   -0.7660 C   0  0  0  0  0  0  0  0  0  0  0  0
    2.3658    1.8983   -0.6578 N   0  0  0  0  0  0  0  0  0  0  0  0
    1.8029    2.6923    0.3534 C   0  0  0  0  0  0  0  0  0  0  0  0
    0.4176    2.6384    0.5350 C   0  0  0  0  0  0  0  0  0  0  0  0
   -0.1991    3.4035    1.4979 C   0  0  0  0  0  0  0  0  0  0  0  0
    0.5473    4.2710    2.2883 C   0  0  0  0  0  0  0  0  0  0  0  0
   -0.3231    5.2830    3.4482 S   0  0  0  0  0  0  0  0  0  0  0  0
    0.7541    6.7410    3.5703 C   0  0  0  0  0  0  0  0  0  0  0  0
    1.9284    4.2853    2.1574 C   0  0  0  0  0  0  0  0  0  0  0  0
    2.5511    3.4890    1.2166 C   0  0  0  0  0  0  0  0  0  0  0  0
    3.6195    2.1241   -1.2342 C   0  0  0  0  0  0  0  0  0  0  0  0
    4.1846    3.4005   -1.2824 C   0  0  0  0  0  0  0  0  0  0  0  0
    5.3825    3.6152   -1.9252 C   0  0  0  0  0  0  0  0  0  0  0  0
    6.0690    2.5676   -2.5308 C   0  0  0  0  0  0  0  0  0  0  0  0
    7.5603    2.9892   -3.3751 S   0  0  0  0  0  0  0  0  0  0  0  0
    8.1603    1.4118   -4.0377 C   0  0  0  0  0  0  0  0  0  0  0  0
    5.5471    1.2871   -2.4389 C   0  0  0  0  0  0  0  0  0  0  0  0
    4.3427    1.0724   -1.7959 C   0  0  0  0  0  0  0  0  0  0  0  0
    1.6946   -0.2030    0.3818 C   0  0  0  0  0  0  0  0  0  0  0  0
    1.9965    0.0908    2.0516 S   0  0  0  0  0  0  0  0  0  0  0  0
    1.4239   -1.5278    2.4496 C   0  0  0  0  0  0  0  0  0  0  0  0
    1.1051   -2.2738    1.3341 C   0  0  0  0  0  0  0  0  0  0  0  0
    0.7780   -3.6165    1.3433 N   0  0  0  0  0  0  0  0  0  0  0  0
    0.0391   -4.1506    0.2724 C   0  0  0  0  0  0  0  0  0  0  0  0
   -1.0785   -3.4827   -0.2248 C   0  0  0  0  0  0  0  0  0  0  0  0
   -1.7899   -4.0081   -1.2815 C   0  0  0  0  0  0  0  0  0  0  0  0
   -1.4019   -5.2121   -1.8608 C   0  0  0  0  0  0  0  0  0  0  0  0
   -2.3704   -5.8027   -3.2125 S   0  0  0  0  0  0  0  0  0  0  0  0
   -1.6277   -7.4019   -3.6385 C   0  0  0  0  0  0  0  0  0  0  0  0
   -0.2887   -5.8807   -1.3715 C   0  0  0  0  0  0  0  0  0  0  0  0
    0.4267   -5.3495   -0.3180 C   0  0  0  0  0  0  0  0  0  0  0  0
    1.3521   -4.4919    2.2757 C   0  0  0  0  0  0  0  0  0  0  0  0
    0.6447   -5.6230    2.6785 C   0  0  0  0  0  0  0  0  0  0  0  0
    1.1883   -6.5229    3.5717 C   0  0  0  0  0  0  0  0  0  0  0  0
    2.4630   -6.3142    4.0789 C   0  0  0  0  0  0  0  0  0  0  0  0
    3.2520   -7.4190    5.2137 S   0  0  0  0  0  0  0  0  0  0  0  0
    2.1508   -8.8565    5.2813 C   0  0  0  0  0  0  0  0  0  0  0  0
    3.1792   -5.1897    3.6791 C   0  0  0  0  0  0  0  0  0  0  0  0
    2.6336   -4.2911    2.7879 C   0  0  0  0  0  0  0  0  0  0  0  0
    1.2165   -1.4803    0.1584 C   0  0  0  0  0  0  0  0  0  0  0  0
    0.8353   -1.6900   -1.5133 S   0  0  0  0  0  0  0  0  0  0  0  0
    1.1903   -1.7653    3.8567 C   0  0  0  0  0  0  0  0  0  0  0  0
   -0.0103   -1.5022    4.4779 C   0  0  0  0  0  0  0  0  0  0  0  0
   -1.1838   -1.1164    3.8184 N   0  0  0  0  0  0  0  0  0  0  0  0
   -1.7723    0.0391    4.3828 C   0  0  0  0  0  0  0  0  0  0  0  0
   -3.0588    0.0168    4.9111 C   0  0  0  0  0  0  0  0  0  0  0  0
   -3.5441    1.1092    5.5988 C   0  0  0  0  0  0  0  0  0  0  0  0
   -2.7433    2.2292    5.7775 C   0  0  0  0  0  0  0  0  0  0  0  0
   -3.2691    3.6004    6.7610 S   0  0  0  0  0  0  0  0  0  0  0  0
   -4.2178    2.7422    8.0576 C   0  0  0  0  0  0  0  0  0  0  0  0
   -1.4834    2.2814    5.1928 C   0  0  0  0  0  0  0  0  0  0  0  0
   -1.0005    1.1932    4.4980 C   0  0  0  0  0  0  0  0  0  0  0  0
   -1.9597   -2.0225    3.1041 C   0  0  0  0  0  0  0  0  0  0  0  0
   -2.9380   -1.5458    2.2283 C   0  0  0  0  0  0  0  0  0  0  0  0
   -3.7580   -2.4185    1.5435 C   0  0  0  0  0  0  0  0  0  0  0  0
   -3.6189   -3.7878    1.7296 C   0  0  0  0  0  0  0  0  0  0  0  0
   -4.6573   -4.9625    0.9054 S   0  0  0  0  0  0  0  0  0  0  0  0
   -6.2734   -4.1298    1.0064 C   0  0  0  0  0  0  0  0  0  0  0  0
   -2.6297   -4.2692    2.5763 C   0  0  0  0  0  0  0  0  0  0  0  0
   -1.8011   -3.3994    3.2540 C   0  0  0  0  0  0  0  0  0  0  0  0
    0.1160   -1.5034    5.8886 C   0  0  0  0  0  0  0  0  0  0  0  0
   -0.9722   -1.0867    7.1589 S   0  0  0  0  0  0  0  0  0  0  0  0
    0.3208   -1.3069    8.3406 C   0  0  0  0  0  0  0  0  0  0  0  0
    1.5685   -1.5932    7.7191 C   0  0  0  0  0  0  0  0  0  0  0  0
    2.7712   -1.6405    8.3594 N   0  0  0  0  0  0  0  0  0  0  0  0
    3.0654   -0.8332    9.4759 C   0  0  0  0  0  0  0  0  0  0  0  0
    3.8619   -1.3355   10.5046 C   0  0  0  0  0  0  0  0  0  0  0  0
    4.1445   -0.5527   11.6014 C   0  0  0  0  0  0  0  0  0  0  0  0
    3.6368    0.7416   11.6990 C   0  0  0  0  0  0  0  0  0  0  0  0
    4.0375    1.6313   13.1658 S   0  0  0  0  0  0  0  0  0  0  0  0
    3.1545    3.2077   12.9833 C   0  0  0  0  0  0  0  0  0  0  0  0
    2.8673    1.2533   10.6599 C   0  0  0  0  0  0  0  0  0  0  0  0
    2.5924    0.4741    9.5548 C   0  0  0  0  0  0  0  0  0  0  0  0
    3.8178   -2.4113    7.8158 C   0  0  0  0  0  0  0  0  0  0  0  0
    3.5930   -3.7262    7.4227 C   0  0  0  0  0  0  0  0  0  0  0  0
    4.6265   -4.4961    6.9269 C   0  0  0  0  0  0  0  0  0  0  0  0
    5.8998   -3.9540    6.8065 C   0  0  0  0  0  0  0  0  0  0  0  0
    7.2899   -4.8335    6.1782 S   0  0  0  0  0  0  0  0  0  0  0  0
    6.7279   -6.5576    6.1087 C   0  0  0  0  0  0  0  0  0  0  0  0
    6.1239   -2.6315    7.1903 C   0  0  0  0  0  0  0  0  0  0  0  0
    5.0967   -1.8687    7.6949 C   0  0  0  0  0  0  0  0  0  0  0  0
    1.4098   -1.7461    6.3291 C   0  0  0  0  0  0  0  0  0  0  0  0
    2.4927   -2.0364    5.0031 S   0  0  0  0  0  0  0  0  0  0  0  0
    0.1328   -1.3164    9.7172 C   0  0  0  0  0  0  0  0  0  0  0  0
   -0.9756   -0.9921   10.4748 C   0  0  0  0  0  0  0  0  0  0  0  0
   -2.2104   -0.3848    9.9880 C   0  0  0  0  0  0  0  0  0  0  0  0
   -2.5305   -0.1390    8.8344 O   0  0  0  0  0  0  0  0  0  0  0  0
   -3.0173   -0.0771   11.1853 C   0  0  0  0  0  0  0  0  0  0  0  0
   -4.2602    0.5021   11.2481 C   0  0  0  0  0  0  0  0  0  0  0  0
   -4.8287    0.6912   12.5128 C   0  0  0  0  0  0  0  0  0  0  0  0
   -6.0890    1.2607   12.8431 C   0  0  0  0  0  0  0  0  0  0  0  0
   -6.3029    1.2770   14.1799 C   0  0  0  0  0  0  0  0  0  0  0  0
   -7.8268    1.9366   15.0531 Br  0  0  0  0  0  0  0  0  0  0  0  0
   -4.9950    0.6071   15.1184 S   0  0  0  0  0  0  0  0  0  0  0  0
   -4.1093    0.2823   13.6588 C   0  0  0  0  0  0  0  0  0  0  0  0
   -2.8518   -0.3080   13.5938 C   0  0  0  0  0  0  0  0  0  0  0  0
   -2.3046   -0.4871   12.3384 C   0  0  0  0  0  0  0  0  0  0  0  0
   -1.0381   -1.0800   11.9138 C   0  0  0  0  0  0  0  0  0  0  0  0
   -0.1057   -1.6376   12.7579 C   0  0  0  0  0  0  0  0  0  0  0  0
    1.0647   -2.3096   12.3589 C   0  0  0  0  0  0  0  0  0  0  0  0
    2.0218   -2.9000   12.1172 N   0  0  0  0  0  0  0  0  0  0  0  0
   -0.2155   -1.6389   14.1624 C   0  0  0  0  0  0  0  0  0  0  0  0
   -0.2404   -1.6545   15.3107 N   0  0  0  0  0  0  0  0  0  0  0  0
   -2.5617    1.3120   -8.5687 H   0  0  0  0  0  0  0  0  0  0  0  0
    1.1082    6.0646  -10.4004 H   0  0  0  0  0  0  0  0  0  0  0  0
   -3.0218    4.5840  -12.9314 H   0  0  0  0  0  0  0  0  0  0  0  0
   -1.9169    7.6211  -14.0909 H   0  0  0  0  0  0  0  0  0  0  0  0
   -1.2823    6.2678  -16.0821 H   0  0  0  0  0  0  0  0  0  0  0  0
   -0.0464    4.1484  -15.1771 H   0  0  0  0  0  0  0  0  0  0  0  0
    2.1312    4.9450  -13.8821 H   0  0  0  0  0  0  0  0  0  0  0  0
    2.2387    7.5566  -13.9905 H   0  0  0  0  0  0  0  0  0  0  0  0
    0.2286    8.4321  -15.5522 H   0  0  0  0  0  0  0  0  0  0  0  0
    1.1839    7.1835  -16.3903 H   0  0  0  0  0  0  0  0  0  0  0  0
    0.1988    8.3986  -12.8357 H   0  0  0  0  0  0  0  0  0  0  0  0
   -4.5119   -1.3032   -7.7957 H   0  0  0  0  0  0  0  0  0  0  0  0
   -4.9245   -1.9641  -10.1003 H   0  0  0  0  0  0  0  0  0  0  0  0
   -5.0220   -1.6926  -13.7700 H   0  0  0  0  0  0  0  0  0  0  0  0
   -5.4622   -2.5648  -12.2865 H   0  0  0  0  0  0  0  0  0  0  0  0
   -5.1604   -0.7974  -12.2393 H   0  0  0  0  0  0  0  0  0  0  0  0
   -0.7863   -1.3917  -11.0160 H   0  0  0  0  0  0  0  0  0  0  0  0
   -0.3577   -0.7730   -8.6702 H   0  0  0  0  0  0  0  0  0  0  0  0
   -2.8369   -3.0911   -6.4673 H   0  0  0  0  0  0  0  0  0  0  0  0
   -4.1322   -4.0580   -4.6445 H   0  0  0  0  0  0  0  0  0  0  0  0
   -6.2778   -4.4597   -3.6818 H   0  0  0  0  0  0  0  0  0  0  0  0
   -4.9023   -5.0938   -2.7142 H   0  0  0  0  0  0  0  0  0  0  0  0
   -6.4800   -4.8127   -1.9500 H   0  0  0  0  0  0  0  0  0  0  0  0
   -4.4847   -0.1947   -2.8402 H   0  0  0  0  0  0  0  0  0  0  0  0
   -3.2029    0.7845   -4.7009 H   0  0  0  0  0  0  0  0  0  0  0  0
    2.8421    4.7678   -5.1628 H   0  0  0  0  0  0  0  0  0  0  0  0
    4.8271    4.7553   -6.5554 H   0  0  0  0  0  0  0  0  0  0  0  0
    7.3621    4.5358   -6.0565 H   0  0  0  0  0  0  0  0  0  0  0  0
    8.4086    4.1801   -7.4527 H   0  0  0  0  0  0  0  0  0  0  0  0
    6.8275    4.9421   -7.7210 H   0  0  0  0  0  0  0  0  0  0  0  0
    5.2766    0.5596   -5.9015 H   0  0  0  0  0  0  0  0  0  0  0  0
    3.3352    0.5917   -4.4046 H   0  0  0  0  0  0  0  0  0  0  0  0
    3.1756    4.9633   -3.0802 H   0  0  0  0  0  0  0  0  0  0  0  0
    2.3025    6.7191   -1.6373 H   0  0  0  0  0  0  0  0  0  0  0  0
   -2.0738    7.4452    0.9362 H   0  0  0  0  0  0  0  0  0  0  0  0
   -1.7764    5.7006    0.7941 H   0  0  0  0  0  0  0  0  0  0  0  0
   -2.3823    6.6344   -0.6161 H   0  0  0  0  0  0  0  0  0  0  0  0
   -1.3753    4.5839   -1.2451 H   0  0  0  0  0  0  0  0  0  0  0  0
   -0.5233    2.8463   -2.6871 H   0  0  0  0  0  0  0  0  0  0  0  0
   -0.1761    1.9906   -0.0922 H   0  0  0  0  0  0  0  0  0  0  0  0
   -1.2679    3.3441    1.6414 H   0  0  0  0  0  0  0  0  0  0  0  0
    1.6187    6.5258    4.1915 H   0  0  0  0  0  0  0  0  0  0  0  0
    1.0493    7.0465    2.5709 H   0  0  0  0  0  0  0  0  0  0  0  0
    0.1530    7.5150    4.0368 H   0  0  0  0  0  0  0  0  0  0  0  0
    2.5344    4.9030    2.8011 H   0  0  0  0  0  0  0  0  0  0  0  0
    3.6286    3.4705    1.1774 H   0  0  0  0  0  0  0  0  0  0  0  0
    3.6716    4.2354   -0.8385 H   0  0  0  0  0  0  0  0  0  0  0  0
    5.7985    4.6105   -1.9710 H   0  0  0  0  0  0  0  0  0  0  0  0
    7.4313    1.0045   -4.7309 H   0  0  0  0  0  0  0  0  0  0  0  0
    9.0777    1.6474   -4.5679 H   0  0  0  0  0  0  0  0  0  0  0  0
    8.3696    0.7236   -3.2239 H   0  0  0  0  0  0  0  0  0  0  0  0
    6.0633    0.4423   -2.8654 H   0  0  0  0  0  0  0  0  0  0  0  0
    3.9624    0.0634   -1.7373 H   0  0  0  0  0  0  0  0  0  0  0  0
   -1.3940   -2.5566    0.2290 H   0  0  0  0  0  0  0  0  0  0  0  0
   -2.6531   -3.4862   -1.6612 H   0  0  0  0  0  0  0  0  0  0  0  0
   -1.6681   -8.0683   -2.7818 H   0  0  0  0  0  0  0  0  0  0  0  0
   -2.2357   -7.8008   -4.4446 H   0  0  0  0  0  0  0  0  0  0  0  0
   -0.6080   -7.2584   -3.9843 H   0  0  0  0  0  0  0  0  0  0  0  0
    0.0434   -6.8098   -1.8056 H   0  0  0  0  0  0  0  0  0  0  0  0
    1.3003   -5.8691    0.0477 H   0  0  0  0  0  0  0  0  0  0  0  0
   -0.3394   -5.8012    2.2752 H   0  0  0  0  0  0  0  0  0  0  0  0
    0.6038   -7.3809    3.8627 H   0  0  0  0  0  0  0  0  0  0  0  0
    2.6674   -9.5897    5.8932 H   0  0  0  0  0  0  0  0  0  0  0  0
    1.9982   -9.2503    4.2807 H   0  0  0  0  0  0  0  0  0  0  0  0
    1.2089   -8.5856    5.7500 H   0  0  0  0  0  0  0  0  0  0  0  0
    4.1730   -5.0226    4.0641 H   0  0  0  0  0  0  0  0  0  0  0  0
    3.2168   -3.4394    2.4726 H   0  0  0  0  0  0  0  0  0  0  0  0
   -3.6649   -0.8711    4.8094 H   0  0  0  0  0  0  0  0  0  0  0  0
   -4.5365    1.0694    6.0180 H   0  0  0  0  0  0  0  0  0  0  0  0
   -5.2384    2.5680    7.7274 H   0  0  0  0  0  0  0  0  0  0  0  0
   -4.2192    3.4012    8.9206 H   0  0  0  0  0  0  0  0  0  0  0  0
   -3.7122    1.8086    8.2891 H   0  0  0  0  0  0  0  0  0  0  0  0
   -0.8855    3.1721    5.3015 H   0  0  0  0  0  0  0  0  0  0  0  0
   -0.0105    1.2193    4.0651 H   0  0  0  0  0  0  0  0  0  0  0  0
   -3.0508   -0.4798    2.0950 H   0  0  0  0  0  0  0  0  0  0  0  0
   -4.4969   -2.0325    0.8587 H   0  0  0  0  0  0  0  0  0  0  0  0
   -7.0222   -4.8924    0.8168 H   0  0  0  0  0  0  0  0  0  0  0  0
   -6.3985   -3.7260    2.0060 H   0  0  0  0  0  0  0  0  0  0  0  0
   -6.3426   -3.3448    0.2591 H   0  0  0  0  0  0  0  0  0  0  0  0
   -2.5402   -5.3354    2.7196 H   0  0  0  0  0  0  0  0  0  0  0  0
   -1.0491   -3.7803    3.9297 H   0  0  0  0  0  0  0  0  0  0  0  0
    4.2399   -2.3435   10.4466 H   0  0  0  0  0  0  0  0  0  0  0  0
    4.7463   -0.9436   12.4063 H   0  0  0  0  0  0  0  0  0  0  0  0
    3.5418    3.7579   12.1306 H   0  0  0  0  0  0  0  0  0  0  0  0
    2.0877    3.0276   12.8881 H   0  0  0  0  0  0  0  0  0  0  0  0
    3.3542    3.7588   13.8970 H   0  0  0  0  0  0  0  0  0  0  0  0
    2.4836    2.2601   10.6925 H   0  0  0  0  0  0  0  0  0  0  0  0
    1.9996    0.8809    8.7487 H   0  0  0  0  0  0  0  0  0  0  0  0
    2.6064   -4.1540    7.5220 H   0  0  0  0  0  0  0  0  0  0  0  0
    4.4259   -5.5160    6.6443 H   0  0  0  0  0  0  0  0  0  0  0  0
    5.9615   -6.6806    5.3495 H   0  0  0  0  0  0  0  0  0  0  0  0
    6.3614   -6.8616    7.0842 H   0  0  0  0  0  0  0  0  0  0  0  0
    7.6059   -7.1386    5.8445 H   0  0  0  0  0  0  0  0  0  0  0  0
    7.1143   -2.2159    7.0886 H   0  0  0  0  0  0  0  0  0  0  0  0
    5.2743   -0.8478    7.9977 H   0  0  0  0  0  0  0  0  0  0  0  0
    1.0030   -1.6306   10.2784 H   0  0  0  0  0  0  0  0  0  0  0  0
   -4.7846    0.7984   10.3531 H   0  0  0  0  0  0  0  0  0  0  0  0
   -6.7897    1.6338   12.1186 H   0  0  0  0  0  0  0  0  0  0  0  0
   -2.3463   -0.6043   14.4974 H   0  0  0  0  0  0  0  0  0  0  0  0
  1  2  2  0  0  0  0
  2  3  1  0  0  0  0
  3  4  2  0  0  0  0
  3  5  1  0  0  0  0
  5  6  2  0  0  0  0
  6  7  1  0  0  0  0
  7  8  2  0  0  0  0
  8  9  1  0  0  0  0
  9 10  2  0  0  0  0
 10 11  1  0  0  0  0
 11 12  2  0  0  0  0
 12 13  1  0  0  0  0
 13 14  3  0  0  0  0
 12 15  1  0  0  0  0
 15 16  3  0  0  0  0
  8 17  1  0  0  0  0
 17 18  1  0  0  0  0
 18 19  1  0  0  0  0
 19 20  2  0  0  0  0
 20 21  1  0  0  0  0
 21 22  1  0  0  0  0
 21 23  1  0  0  0  0
  1 24  1  0  0  0  0
 24 25  2  0  0  0  0
 25 26  1  0  0  0  0
 26 27  1  0  0  0  0
 27 28  2  0  0  0  0
 28 29  1  0  0  0  0
 29 30  2  0  0  0  0
 30 31  1  0  0  0  0
 31 32  1  0  0  0  0
 30 33  1  0  0  0  0
 33 34  2  0  0  0  0
 26 35  1  0  0  0  0
 35 36  2  0  0  0  0
 36 37  1  0  0  0  0
 37 38  2  0  0  0  0
 38 39  1  0  0  0  0
 39 40  1  0  0  0  0
 38 41  1  0  0  0  0
 41 42  2  0  0  0  0
 25 43  1  0  0  0  0
 43 44  1  0  0  0  0
 44 45  1  0  0  0  0
 45 46  2  0  0  0  0
 46 47  1  0  0  0  0
 47 48  1  0  0  0  0
 48 49  2  0  0  0  0
 49 50  1  0  0  0  0
 50 51  2  0  0  0  0
 51 52  1  0  0  0  0
 52 53  1  0  0  0  0
 51 54  1  0  0  0  0
 54 55  2  0  0  0  0
 47 56  1  0  0  0  0
 56 57  2  0  0  0  0
 57 58  1  0  0  0  0
 58 59  2  0  0  0  0
 59 60  1  0  0  0  0
 60 61  1  0  0  0  0
 59 62  1  0  0  0  0
 62 63  2  0  0  0  0
 46 64  1  0  0  0  0
 64 65  1  0  0  0  0
 45 66  1  0  0  0  0
 66 67  2  0  0  0  0
 67 68  1  0  0  0  0
 68 69  1  0  0  0  0
 69 70  2  0  0  0  0
 70 71  1  0  0  0  0
 71 72  2  0  0  0  0
 72 73  1  0  0  0  0
 73 74  1  0  0  0  0
 72 75  1  0  0  0  0
 75 76  2  0  0  0  0
 68 77  1  0  0  0  0
 77 78  2  0  0  0  0
 78 79  1  0  0  0  0
 79 80  2  0  0  0  0
 80 81  1  0  0  0  0
 81 82  1  0  0  0  0
 80 83  1  0  0  0  0
 83 84  2  0  0  0  0
 67 85  1  0  0  0  0
 85 86  1  0  0  0  0
 86 87  1  0  0  0  0
 87 88  2  0  0  0  0
 88 89  1  0  0  0  0
 89 90  1  0  0  0  0
 90 91  2  0  0  0  0
 91 92  1  0  0  0  0
 92 93  2  0  0  0  0
 93 94  1  0  0  0  0
 94 95  1  0  0  0  0
 93 96  1  0  0  0  0
 96 97  2  0  0  0  0
 89 98  1  0  0  0  0
 98 99  2  0  0  0  0
 99100  1  0  0  0  0
100101  2  0  0  0  0
101102  1  0  0  0  0
102103  1  0  0  0  0
101104  1  0  0  0  0
104105  2  0  0  0  0
 88106  1  0  0  0  0
106107  1  0  0  0  0
 87108  1  0  0  0  0
108109  2  0  0  0  0
109110  1  0  0  0  0
110111  1  0  0  0  0
111112  2  0  0  0  0
112113  1  0  0  0  0
113114  2  0  0  0  0
114115  1  0  0  0  0
115116  1  0  0  0  0
114117  1  0  0  0  0
117118  2  0  0  0  0
110119  1  0  0  0  0
119120  2  0  0  0  0
120121  1  0  0  0  0
121122  2  0  0  0  0
122123  1  0  0  0  0
123124  1  0  0  0  0
122125  1  0  0  0  0
125126  2  0  0  0  0
109127  1  0  0  0  0
127128  1  0  0  0  0
128129  1  0  0  0  0
129130  2  0  0  0  0
130131  1  0  0  0  0
131132  1  0  0  0  0
132133  2  0  0  0  0
133134  1  0  0  0  0
134135  2  0  0  0  0
135136  1  0  0  0  0
136137  1  0  0  0  0
135138  1  0  0  0  0
138139  2  0  0  0  0
131140  1  0  0  0  0
140141  2  0  0  0  0
141142  1  0  0  0  0
142143  2  0  0  0  0
143144  1  0  0  0  0
144145  1  0  0  0  0
143146  1  0  0  0  0
146147  2  0  0  0  0
130148  1  0  0  0  0
148149  1  0  0  0  0
129150  1  0  0  0  0
150151  2  0  0  0  0
151152  1  0  0  0  0
152153  2  0  0  0  0
152154  1  0  0  0  0
154155  2  0  0  0  0
155156  1  0  0  0  0
156157  1  0  0  0  0
157158  2  0  0  0  0
158159  1  0  0  0  0
158160  1  0  0  0  0
160161  1  0  0  0  0
161162  1  0  0  0  0
162163  2  0  0  0  0
163164  1  0  0  0  0
164165  2  0  0  0  0
165166  1  0  0  0  0
166167  3  0  0  0  0
165168  1  0  0  0  0
168169  3  0  0  0  0
 11  2  1  0  0  0  0
 23 17  1  0  0  0  0
 65 24  1  0  0  0  0
107 66  1  0  0  0  0
149108  1  0  0  0  0
164151  1  0  0  0  0
 10  5  1  0  0  0  0
 22 18  1  0  0  0  0
 34 27  1  0  0  0  0
 42 35  1  0  0  0  0
 64 43  2  0  0  0  0
 76 69  1  0  0  0  0
 84 77  1  0  0  0  0
106 85  2  0  0  0  0
118111  1  0  0  0  0
126119  1  0  0  0  0
148127  2  0  0  0  0
163154  1  0  0  0  0
 23  7  1  0  0  0  0
 55 48  1  0  0  0  0
 63 56  1  0  0  0  0
 97 90  1  0  0  0  0
105 98  1  0  0  0  0
139132  1  0  0  0  0
147140  1  0  0  0  0
161156  2  0  0  0  0
  1170  1  0  0  0  0
  6171  1  0  0  0  0
  9172  1  0  0  0  0
 17173  1  0  0  0  0
 18174  1  0  0  0  0
 19175  1  0  0  0  0
 20176  1  0  0  0  0
 21177  1  0  0  0  0
 22178  1  0  0  0  0
 22179  1  0  0  0  0
 23180  1  0  0  0  0
 28181  1  0  0  0  0
 29182  1  0  0  0  0
 32183  1  0  0  0  0
 32184  1  0  0  0  0
 32185  1  0  0  0  0
 33186  1  0  0  0  0
 34187  1  0  0  0  0
 36188  1  0  0  0  0
 37189  1  0  0  0  0
 40190  1  0  0  0  0
 40191  1  0  0  0  0
 40192  1  0  0  0  0
 41193  1  0  0  0  0
 42194  1  0  0  0  0
 49195  1  0  0  0  0
 50196  1  0  0  0  0
 53197  1  0  0  0  0
 53198  1  0  0  0  0
 53199  1  0  0  0  0
 54200  1  0  0  0  0
 55201  1  0  0  0  0
 57202  1  0  0  0  0
 58203  1  0  0  0  0
 61204  1  0  0  0  0
 61205  1  0  0  0  0
 61206  1  0  0  0  0
 62207  1  0  0  0  0
 63208  1  0  0  0  0
 70209  1  0  0  0  0
 71210  1  0  0  0  0
 74211  1  0  0  0  0
 74212  1  0  0  0  0
 74213  1  0  0  0  0
 75214  1  0  0  0  0
 76215  1  0  0  0  0
 78216  1  0  0  0  0
 79217  1  0  0  0  0
 82218  1  0  0  0  0
 82219  1  0  0  0  0
 82220  1  0  0  0  0
 83221  1  0  0  0  0
 84222  1  0  0  0  0
 91223  1  0  0  0  0
 92224  1  0  0  0  0
 95225  1  0  0  0  0
 95226  1  0  0  0  0
 95227  1  0  0  0  0
 96228  1  0  0  0  0
 97229  1  0  0  0  0
 99230  1  0  0  0  0
100231  1  0  0  0  0
103232  1  0  0  0  0
103233  1  0  0  0  0
103234  1  0  0  0  0
104235  1  0  0  0  0
105236  1  0  0  0  0
112237  1  0  0  0  0
113238  1  0  0  0  0
116239  1  0  0  0  0
116240  1  0  0  0  0
116241  1  0  0  0  0
117242  1  0  0  0  0
118243  1  0  0  0  0
120244  1  0  0  0  0
121245  1  0  0  0  0
124246  1  0  0  0  0
124247  1  0  0  0  0
124248  1  0  0  0  0
125249  1  0  0  0  0
126250  1  0  0  0  0
133251  1  0  0  0  0
134252  1  0  0  0  0
137253  1  0  0  0  0
137254  1  0  0  0  0
137255  1  0  0  0  0
138256  1  0  0  0  0
139257  1  0  0  0  0
141258  1  0  0  0  0
142259  1  0  0  0  0
145260  1  0  0  0  0
145261  1  0  0  0  0
145262  1  0  0  0  0
146263  1  0  0  0  0
147264  1  0  0  0  0
150265  1  0  0  0  0
155266  1  0  0  0  0
157267  1  0  0  0  0
162268  1  0  0  0  0
M  END
