236

C         -1.88930       -6.58780        2.89700
C         -0.83850       -6.86490        2.07200
C         -0.00240       -5.88210        1.35450
O          0.26390       -4.74120        1.68570
C          0.46230       -6.56950        0.13910
C          1.08310       -5.99230       -0.96780
C          1.36580       -6.88300       -1.97560
C          1.07320       -8.25100       -1.88270
C          0.45750       -8.83300       -0.79920
C          0.14110       -7.94100        0.22950
C         -0.56940       -8.16790        1.48350
C         -0.88130       -9.37550        2.04290
C         -0.57610      -10.62030        1.45480
N         -0.35180      -11.65810        1.01840
C         -1.47690       -9.52420        3.31560
N         -1.91610       -9.71850        4.35770
C          1.61940       -8.54220       -3.25740
C          3.02730       -9.17260       -3.32690
C          3.46180       -8.91490       -4.75180
C          3.71120       -7.61700       -4.86770
C          3.45740       -6.97690       -3.52240
C          3.88030       -8.12570       -2.59760
C          1.92360       -7.01350       -3.37170
C         -2.32860       -5.31910        3.33680
S         -1.29830       -3.92350        3.42370
C         -2.62410       -2.89160        3.87910
C         -3.81170       -3.62110        3.98500
C         -5.08470       -3.02360        4.35660
O         -5.23050       -1.81310        4.51320
C         -6.15950       -3.99310        4.54620
C         -7.41580       -3.68940        5.00850
C         -7.99400       -2.35920        5.32710
C         -8.45290       -1.65660        4.04580
S         -8.39110       -5.11360        5.12960
C         -7.11590       -6.12740        4.54310
C         -7.34720       -7.58330        4.36310
C         -7.80740       -7.88350        2.93330
C         -5.99040       -5.39040        4.27180
C         -4.74950       -5.95400        3.73770
O         -4.65940       -7.10620        3.34180
C         -3.63650       -4.99560        3.70900
C         -2.40880       -1.49750        3.82580
C         -1.12560       -0.92450        3.83700
N         -0.07840       -1.48860        4.51460
C         -0.31770       -2.23180        5.68500
C          0.44640       -3.36810        5.95610
C          0.20630       -4.11110        7.08980
C         -0.80280       -3.74330        7.97820
S         -1.02290       -4.77840        9.38780
C         -2.47850       -4.08350       10.22170
C         -1.55540       -2.60450        7.71820
C         -1.31160       -1.85690        6.58380
C          1.25900       -1.33110        4.10750
C          2.21930       -0.99760        5.06250
C          3.54650       -0.92820        4.71320
C          3.94390       -1.19520        3.40370
S          5.67800       -1.07840        3.10080
C          5.86570       -1.60870        1.37760
C          2.98560       -1.50460        2.44560
C          1.64870       -1.56800        2.79500
C         -1.11520        0.28500        3.11440
S          0.12620        1.28370        2.44270
C         -1.07110        2.18400        1.49700
C         -2.36970        1.74460        1.75320
N         -3.55400        2.18040        1.16570
C         -3.71850        2.20220       -0.22280
C         -4.75750        2.93800       -0.79490
C         -4.93630        2.94130       -2.15810
C         -4.03850        2.28080       -2.99560
S         -4.30530        2.44440       -4.72930
C         -2.91720        1.54460       -5.47290
C         -3.00230        1.54710       -2.43610
C         -2.86960        1.48720       -1.06370
C         -4.67250        2.17200        2.01720
C         -5.89130        1.60990        1.63980
C         -6.93730        1.55740        2.53560
C         -6.78060        2.04710        3.82610
S         -8.13150        1.90180        4.96190
C         -7.24470        1.38710        6.46640
C         -5.58080        2.63580        4.19960
C         -4.53770        2.70030        3.30050
C         -2.37280        0.66210        2.66200
S         -3.63230       -0.39980        3.20850
C         -0.56970        3.05600        0.49370
C          0.71090        2.97230       -0.04260
N          1.75910        2.16870        0.44330
C          2.05320        1.00920       -0.28670
C          3.35730        0.64900       -0.62300
C          3.60400       -0.53220       -1.29550
C          2.55720       -1.38110       -1.62740
S          2.84180       -2.95860       -2.39240
C          4.06610       -3.65100       -1.22950
C          1.25160       -0.99370       -1.36300
C          1.00370        0.19420       -0.70990
C          2.64730        2.74140        1.36010
C          2.67700        4.11460        1.58390
C          3.52230        4.66100        2.53280
C          4.35740        3.84380        3.27830
S          5.48200        4.42200        4.51240
C          5.26280        6.22460        4.49520
C          4.32110        2.46630        3.07000
C          3.47510        1.92530        2.13180
C          0.84980        3.77360       -1.17810
S          2.13870        3.93970       -2.30080
C          1.14710        5.02570       -3.28150
C         -0.05410        5.38420       -2.61970
N         -0.91030        6.35530       -3.03300
C         -2.29180        6.29050       -2.68600
C         -2.74140        6.86950       -1.50980
C         -4.08700        6.84500       -1.19130
C         -4.99380        6.27230       -2.07200
S         -6.72730        6.17550       -1.77540
C         -6.91310        6.74640       -0.06230
C         -4.54100        5.72360       -3.27160
C         -3.19630        5.70790       -3.56580
C         -0.47770        7.48070       -3.75370
C          0.76090        8.05800       -3.46850
C          1.25570        9.07810       -4.25080
C          0.50870        9.55800       -5.32080
S          1.14860       10.76580       -6.43590
C          2.88840       10.24430       -6.54810
C         -0.77690        9.07050       -5.52960
C         -1.26900        8.04100       -4.75490
C         -0.25070        4.56540       -1.48340
S         -1.53320        4.26150       -0.34560
C          1.57620        5.38190       -4.56020
C          2.53880        4.76980       -5.33140
C          3.25380        5.56080       -6.34960
O          2.99440        6.69340       -6.71290
C          4.39780        4.72330       -6.76790
C          5.41210        5.05810       -7.66130
C          6.35180        4.06990       -7.84020
C          6.29660        2.84110       -7.17140
C          5.30000        2.49420       -6.28960
C          4.33060        3.48120       -6.10240
C          3.10700        3.45160       -5.30210
C          2.48770        2.30810       -4.84350
C          1.14450        2.28060       -4.43010
N          0.02890        2.20580       -4.15800
C          3.08710        1.03800       -4.79310
N          3.53820       -0.01340       -4.68390
C          7.55540        2.33370       -7.83010
C          7.36820        1.31950       -8.97810
C          8.67900        1.37560       -9.72850
C          8.72870        2.53760      -10.36700
C          7.45200        3.28630      -10.05900
C          6.47620        2.10790       -9.94580
C          7.61410        3.70230       -8.58150
H         -2.56580       -7.39850        3.14510
H          1.28690       -4.93430       -1.01150
H          0.21180       -9.88110       -0.75160
H          0.92040       -8.99200       -3.95990
H          3.08420      -10.19880       -2.97450
H          3.48500       -9.66830       -5.51700
H          3.98560       -7.06730       -5.74860
H          3.90350       -5.99930       -3.36430
H          4.94490       -8.34380       -2.66730
H          3.60550       -7.98010       -1.55410
H          1.40860       -6.43320       -4.13430
H         -8.83960       -2.47900        6.00690
H         -7.22790       -1.74660        5.80540
H         -7.59510       -1.46460        3.40640
H         -8.92150       -0.70820        4.29260
H         -9.16890       -2.27360        3.50700
H         -6.41250       -8.11640        4.54720
H         -8.10470       -7.92390        5.07180
H         -8.71740       -7.33460        2.69950
H         -7.02970       -7.59900        2.22980
H         -8.00070       -8.94690        2.82440
H          1.22010       -3.66580        5.26550
H          0.79050       -4.99430        7.29660
H         -3.32820       -4.08530        9.54530
H         -2.67440       -4.74320       11.06120
H         -2.26150       -3.08280       10.58410
H         -2.33060       -2.28180        8.39410
H         -1.90170       -0.97220        6.39590
H          1.91390       -0.80580        6.08010
H          4.29480       -0.67290        5.44740
H          5.51620       -2.63120        1.26920
H          5.32750       -0.93160        0.72200
H          6.93030       -1.55820        1.17060
H          3.26220       -1.70510        1.42270
H          0.91250       -1.84080        2.05460
H         -5.43220        3.49510       -0.16350
H         -5.77550        3.46340       -2.58780
H         -3.01140        0.48270       -5.26330
H         -1.97390        1.93700       -5.10140
H         -2.99760        1.71560       -6.54220
H         -2.29580        1.01250       -3.04880
H         -2.09360        0.86980       -0.63780
H         -6.00490        1.18320        0.65510
H         -7.87590        1.10860        2.25030
H         -6.82490        2.24960        6.97590
H         -7.97900        0.90660        7.10510
H         -6.46810        0.68330        6.18320
H         -5.45570        3.04520        5.19000
H         -3.60100        3.15330        3.59210
H          4.17530        1.30670       -0.36710
H          4.61450       -0.78740       -1.57870
H          3.67310       -3.58230       -0.21910
H          4.19550       -4.69400       -1.49900
H          5.01290       -3.12700       -1.31780
H          0.43570       -1.63480       -1.65990
H         -0.01210        0.48710       -0.50020
H          2.03650        4.77410        1.01770
H          3.51530        5.73010        2.67340
H          5.51840        6.62100        3.51680
H          4.24330        6.47870        4.77120
H          5.95240        6.60940        5.23990
H          4.95820        1.82500        3.65950
H          3.42770        0.85810        2.00020
H         -2.03700        7.33930       -0.83950
H         -4.41110        7.28700       -0.26350
H         -6.66780        7.80190        0.01140
H         -7.95980        6.59570        0.18310
H         -6.29040        6.14740        0.59580
H         -5.25020        5.30500       -3.96810
H         -2.84410        5.24810       -4.47650
H          1.35150        7.67730       -2.64820
H          2.22680        9.49150       -4.03060
H          3.45320       10.61580       -5.69780
H          3.27300       10.68560       -7.46210
H          2.92920        9.16020       -6.60790
H         -1.37170        9.47960       -6.33100
H         -2.25260        7.64450       -4.95200
H          1.16810        6.28350       -5.00080
H          5.42290        6.01690       -8.15590
H          5.26720        1.54810       -5.77460
H          8.37230        2.07280       -7.15960
H          7.02320        0.33760       -8.66570
H          9.43480        0.61390       -9.67450
H          9.53410        2.94040      -10.95290
H          7.18450        4.09520      -10.73370
H          5.50400        2.37420       -9.53550
H          6.34200        1.59200      -10.89510
H          8.47150        4.35190       -8.41420
