208

C          8.06250       -1.07580        6.17730
C          8.39410       -2.37200        6.43670
C          7.64530       -3.57270        6.02710
O          6.75180       -3.63920        5.20260
C          8.18300       -4.68030        6.83250
C          7.72940       -5.99780        6.85530
C          8.41700       -6.81130        7.72290
C          9.47410       -6.34790        8.51890
C          9.93310       -5.05230        8.50600
C          9.25470       -4.20950        7.62130
C          9.46550       -2.79630        7.32320
C         10.52760       -2.03440        7.72740
C         10.79530       -0.71490        7.29590
N         11.12430        0.33290        6.96200
C         11.55350       -2.49590        8.57930
N         12.41310       -2.81120        9.27180
C          9.69710       -7.69920        9.14910
C         10.90080       -8.53590        8.64970
C         11.16920       -8.09690        7.23140
C         10.17190       -8.53690        6.47580
C          9.21060       -9.28090        7.36960
C         10.19450       -9.87610        8.38950
C          8.52240       -8.21650        8.26010
C          7.04250       -0.54890        5.35760
S          6.04380       -1.46960        4.26080
C          5.28220       -0.03090        3.68340
C          5.78850        1.11780        4.28480
C          5.52860        2.48600        3.81280
O          4.97800        2.73300        2.75300
C          6.08110        3.51700        4.68900
C          5.84070        4.86030        4.54990
C          5.06160        5.56230        3.49790
C          5.93250        5.81600        2.26370
S          6.64030        5.76050        5.79430
C          7.31110        4.33240        6.50280
C          8.21440        4.43800        7.67650
C          9.68170        4.31580        7.25170
C          6.92500        3.21260        5.80590
C          7.31150        1.84990        6.16480
O          7.98800        1.58920        7.14720
C          6.75220        0.81880        5.27100
C          4.16500       -0.12380        2.79880
C          3.85340       -1.07770        1.86260
C          2.60640       -0.70240        1.30260
C          1.78010       -1.23650        0.29340
C          2.08980       -2.38720       -0.51020
C          1.23970       -3.07670       -1.33680
C          1.89480       -4.07030       -2.08620
Cl         1.06870       -5.04210       -3.24510
C          3.23500       -4.17540       -1.84000
C          4.23080       -5.05980       -2.50430
C          4.76890       -4.40410       -3.77950
S          3.70760       -3.01490       -0.65060
C          0.62460       -0.48850        0.06400
C          0.24020        0.67810        0.77400
C          1.05240        1.19280        1.80440
C          0.75440        2.36160        2.58780
S          2.02920        3.17430        3.45200
C          0.93820        4.36410        4.07530
C          1.41730        5.46940        4.95250
C          2.29630        4.95650        6.09160
C         -0.33110        4.10830        3.63950
C         -0.44750        2.98380        2.80010
Cl        -1.69370        5.07340        4.06900
C          2.23470        0.47780        1.99590
O          3.18330        0.81030        2.88930
C         -0.93990        1.13450        0.12990
C         -1.17830        0.27130       -0.90480
O         -0.25940       -0.73160       -0.92710
C         -2.15060        0.28850       -1.95220
C         -1.97010       -0.15290       -3.25860
N         -0.77260       -0.53300       -3.83260
C         -0.77950       -1.59520       -4.75330
C         -1.59130       -2.70400       -4.53970
C         -1.59490       -3.75910       -5.43140
C         -0.77370       -3.72330       -6.54920
S         -0.67080       -5.01380       -7.74730
C         -1.83660       -6.26720       -7.14370
C          0.03970       -2.61160       -6.76760
C          0.03510       -1.55670       -5.88440
C          0.44000        0.02180       -3.40300
C          1.60790       -0.74170       -3.37650
C          2.74530       -0.24960       -2.77750
C          2.74600        1.00770       -2.17870
S          4.17400        1.45370       -1.24330
C          3.59320        2.83640       -0.22210
C          1.63060        1.82260       -2.32580
C          0.49560        1.33700       -2.94290
C         -3.19270       -0.08310       -3.97190
S         -3.64500       -0.45900       -5.59150
C         -5.31220        0.04620       -5.26980
C         -5.45810        0.58260       -3.97400
N         -6.53950        1.25350       -3.47900
C         -7.48030        1.89530       -4.29290
C         -8.83580        1.83940       -3.96000
C         -9.77820        2.40580       -4.78810
C         -9.39430        3.05150       -5.96300
S        -10.69190        3.65410       -6.98680
C         -9.83920        4.38070       -8.41330
C         -8.04070        3.17050       -6.26100
C         -7.09700        2.59530       -5.43500
C         -6.72260        1.32450       -2.08120
C         -6.97800        2.55090       -1.47920
C         -7.13520        2.63880       -0.10950
C         -7.04040        1.49570        0.67410
S         -7.20020        1.48570        2.42940
C         -7.27320        3.24400        2.87590
C         -6.81680        0.26080        0.06560
C         -6.65850        0.17270       -1.29880
C         -4.25010        0.44900       -3.24760
S         -3.76220        0.89520       -1.64450
C         -6.23290       -0.11600       -6.31010
C         -7.59830       -0.22750       -6.16480
C         -8.25830       -0.74130       -4.95330
O         -7.72610       -1.09640       -3.91720
C         -9.69020       -0.86170       -5.29700
C        -10.71970       -1.29030       -4.46590
C        -11.96280       -1.25980       -5.05320
C        -12.16710       -0.84220       -6.37370
C        -11.15720       -0.42280       -7.20770
C         -9.88800       -0.44360       -6.62750
C         -8.59890       -0.03080       -7.17600
C         -8.39920        0.59990       -8.38010
C         -7.17300        1.17200       -8.77110
N         -6.22890        1.71830       -9.13330
C         -9.40160        0.84210       -9.33720
N        -10.16100        1.08500      -10.16500
C        -13.65620       -1.07140       -6.30090
C        -14.22730       -2.34310       -6.97530
C        -13.11590       -3.36290       -6.97920
C        -12.92270       -3.75630       -5.72750
C        -13.90030       -3.00930       -4.85430
C        -15.08760       -2.88490       -5.82240
C        -13.42890       -1.53450       -4.82730
H          8.62380       -0.30850        6.69920
H          6.90670       -6.31100        6.23160
H         10.74170       -4.70880        9.12950
H          9.57850       -7.74650       10.22970
H         11.75570       -8.54110        9.32030
H         12.00150       -7.48220        6.94280
H         10.00420       -8.36330        5.42900
H          8.52690       -9.96590        6.87510
H         10.85550      -10.62200        7.95090
H          9.70810      -10.28900        9.27230
H          7.63640       -8.60350        8.75970
H          4.21830        4.93380        3.20420
H          4.69270        6.51260        3.88890
H          6.25910        4.86880        1.84330
H          5.36030        6.35120        1.51100
H          6.80700        6.40770        2.52590
H          8.05230        5.39650        8.17380
H          7.98730        3.62730        8.37170
H          9.92700        5.06240        6.49920
H         10.32540        4.46330        8.11410
H          9.87260        3.32570        6.84770
H          4.46030       -1.92180        1.60990
H          0.18760       -2.88450       -1.41420
H          3.75120       -6.00770       -2.75840
H          5.05680       -5.25760       -1.81930
H          5.49640       -5.05490       -4.25710
H          5.24950       -3.45730       -3.54370
H          3.95740       -4.21730       -4.47890
H          0.54900        5.99360        5.35680
H          1.98980        6.18290        4.35150
H          1.73450        4.27470        6.72560
H          2.64740        5.78660        6.69940
H          3.15870        4.42530        5.69470
H         -1.38680        2.63820        2.41420
H         -1.51150        2.01270        0.34310
H         -2.21740       -2.74790       -3.66020
H         -2.23260       -4.60470       -5.23170
H         -1.52310       -6.62600       -6.16760
H         -1.79320       -7.07730       -7.86500
H         -2.84130       -5.85560       -7.11170
H          0.67050       -2.58840       -7.64290
H          0.66270       -0.69600       -6.06030
H          1.60730       -1.73890       -3.78710
H          3.63840       -0.85260       -2.72680
H          2.58860        2.62320        0.12910
H          4.26910        2.89280        0.62590
H          3.62320        3.76170       -0.79090
H          1.63080        2.83530       -1.95500
H         -0.36820        1.97800       -3.04090
H         -9.14080        1.32680       -3.06040
H        -10.82800        2.33500       -4.54850
H         -9.25140        3.62490       -8.92560
H         -9.22300        5.21570       -8.09340
H        -10.62790        4.73290       -9.07080
H         -7.70640        3.69660       -7.14030
H         -6.05120        2.68440       -5.68760
H         -7.04650        3.44100       -2.08750
H         -7.32590        3.60370        0.33140
H         -7.28610        3.26840        3.96120
H         -6.38900        3.75470        2.50630
H         -8.18290        3.69340        2.48820
H         -6.77070       -0.62500        0.68010
H         -6.50950       -0.78070       -1.78010
H         -5.80790       -0.19410       -7.30400
H        -10.52280       -1.60000       -3.45110
H        -11.32640       -0.10440       -8.22310
H        -14.28050       -0.19620       -6.46990
H        -14.71990       -2.16640       -7.92770
H        -12.56210       -3.64150       -7.85660
H        -12.17480       -4.42890       -5.34990
H        -14.09570       -3.43960       -3.87530
H        -15.54560       -3.84560       -6.05340
H        -15.85100       -2.18500       -5.48490
H        -13.90590       -0.96100       -4.03450
