205

C          5.76140        3.75280        7.61020
C          5.12670        4.87090        8.04890
C          4.20130        5.73490        7.26270
O          3.72360        5.53290        6.16780
C          4.03900        6.96740        8.05800
C          3.29170        8.08890        7.70080
C          3.31980        9.09910        8.63100
C          4.05020        9.00890        9.82460
C          4.79590        7.91330       10.18590
C          4.76950        6.86580        9.25790
C          5.41500        5.55920        9.29950
C          6.09750        5.04130       10.36800
C          6.64220        3.74070       10.43860
N          7.09890        2.69840       10.59400
C          6.32610        5.72790       11.57920
N          6.54950        6.22480       12.58980
C          3.62610       10.38230       10.28180
C          2.52680       10.43700       11.36400
C          1.98790       11.84550       11.26130
C          1.29470       11.93100       10.13310
C          1.35300       10.58150        9.45450
C          1.38500        9.66810       10.68670
C          2.80970       10.48190        8.95330
C          5.47660        2.97300        6.43620
C          4.17540        2.82230        5.93510
C          3.98880        2.07870        4.79880
C          2.68890        1.78440        4.09140
C          1.85760        3.00980        3.80210
C          2.17210        4.10590        3.02700
C          1.26820        5.14980        2.95770
C          0.05880        5.11490        3.65900
O         -0.71270        6.23590        3.53400
C         -1.86210        6.39000        4.34370
C         -3.10280        5.71880        3.76180
C         -0.27110        3.99850        4.41900
C          0.63590        2.95340        4.48160
C          0.56890        1.69630        5.21050
C         -0.41070        1.17050        6.02730
C         -0.19080       -0.06520        6.64210
O         -1.20510       -0.50780        7.43520
C         -1.05810       -1.73130        8.12600
C         -2.32000       -1.95370        8.94470
C          1.00390       -0.74800        6.42790
C          1.98620       -0.21900        5.59840
C          1.76240        0.99220        4.98870
C          3.16480        1.01370        2.88980
C          4.55130        0.79130        2.95890
C          5.06200        1.45450        4.14040
C          6.34630        1.55750        4.66080
C          6.53810        2.30110        5.80580
C          5.19080        0.07190        1.95970
C          4.44510       -0.41160        0.90300
C          3.06760       -0.18400        0.82760
C          2.42560        0.54750        1.83180
C          2.28490       -0.69110       -0.28440
C          2.31010       -1.94420       -0.86360
N          3.10480       -2.99930       -0.43160
C          3.62730       -3.89030       -1.37470
C          3.98840       -3.44200       -2.64260
C          4.45630       -4.32250       -3.59880
C          4.58160       -5.67080       -3.29800
S          5.16280       -6.88810       -4.43720
C          5.15250       -6.02300       -6.03330
C          4.24800       -6.12010       -2.02110
C          3.77200       -5.24510       -1.07190
C          3.34360       -3.15660        0.93760
C          2.33900       -2.87150        1.86210
C          2.59040       -2.93610        3.21500
C          3.84600       -3.31460        3.66910
S          4.23430       -3.35690        5.40200
C          2.82270       -4.30790        6.04950
C          4.84400       -3.62930        2.75610
C          4.59790       -3.55030        1.40140
C          1.34680       -2.04550       -1.90080
S          0.88200       -3.29070       -3.00590
C         -0.38050       -2.25720       -3.66760
C         -0.38410       -0.98980       -3.10250
N         -1.16520        0.07960       -3.49770
C         -1.48570        1.04580       -2.52850
C         -1.32710        2.40250       -2.79200
C         -1.53870        3.33680       -1.79770
C         -1.90560        2.92710       -0.52160
S         -2.11420        4.02860        0.83900
C         -1.24350        5.52800        0.30570
C         -2.12820        1.57470       -0.27340
C         -1.92540        0.64350       -1.26680
C         -1.53620        0.26150       -4.83570
C         -2.78280        0.80040       -5.14170
C         -3.21920        0.87050       -6.45010
C         -2.41440        0.39810       -7.47800
S         -2.90570        0.36960       -9.17080
C         -4.71680        0.45570       -9.07110
C         -1.13530       -0.06990       -7.18280
C         -0.69750       -0.13080       -5.87980
C          0.59440       -0.89690       -2.08030
S          1.05750        0.34740       -0.97500
C         -1.22980       -2.75150       -4.70370
C         -2.55960       -2.46540       -4.90220
C         -3.09080       -3.04000       -6.06520
S         -4.65450       -2.62120       -6.72000
C         -5.70350       -2.55580       -5.21830
C         -5.98030       -1.14170       -4.74830
C         -2.17350       -3.82110       -6.76090
S         -0.60800       -3.75240       -5.97710
C         -2.28220       -4.60390       -7.92960
C         -3.36730       -5.31090       -8.36890
C         -4.53670       -5.67710       -7.54690
O         -4.79570       -5.30660       -6.41760
C         -5.29170       -6.66670       -8.33710
C         -6.45660       -7.32810       -7.95450
C         -6.93280       -8.21200       -8.89280
C         -6.29460       -8.42810      -10.12100
C         -5.14530       -7.78300      -10.51140
C         -4.64540       -6.87630       -9.57160
C         -3.46270       -6.02110       -9.62810
C         -2.63620       -5.86440      -10.71010
C         -1.54100       -4.97660      -10.77150
N         -0.63950       -4.27830      -10.90900
C         -2.77970       -6.55470      -11.93130
N         -2.83210       -7.08820      -12.94680
C         -7.30850       -9.45590      -10.55870
C         -6.87790      -10.93470      -10.46190
C         -8.18460      -11.69430      -10.48500
C         -8.79160      -11.48830       -9.32330
C         -7.90500      -10.58630       -8.49530
C         -6.52640      -11.05970       -8.97370
C         -8.02210       -9.21300       -9.19020
H          6.61680        3.40860        8.18080
H          2.75260        8.11740        6.76670
H          5.36180        7.86440       11.10100
H          4.42980       11.09520       10.45500
H          2.84130       10.10320       12.34890
H          2.20560       12.62420       11.96850
H          0.81800       12.79560        9.70960
H          0.59720       10.37990        8.70000
H          1.62050        8.62910       10.46340
H          0.46010        9.71680       11.25910
H          3.06850       11.26210        8.23990
H          3.33310        3.26170        6.44260
H          3.11030        4.15880        2.49530
H          1.48930        6.03100        2.37580
H         -1.66220        6.02640        5.35870
H         -2.01950        7.47240        4.39290
H         -3.94500        5.86770        4.43220
H         -2.94200        4.65350        3.62090
H         -3.34350        6.15110        2.79420
H         -1.19960        3.92890        4.96200
H         -1.33880        1.68610        6.21620
H         -0.18050       -1.69030        8.78640
H         -0.92160       -2.55590        7.41120
H         -3.18550       -1.99320        8.28910
H         -2.24460       -2.88730        9.49490
H         -2.45450       -1.13510        9.64620
H          1.19110       -1.68980        6.91910
H          2.91370       -0.75240        5.44960
H          7.17760        1.06350        4.18100
H          7.53180        2.39860        6.21910
H          6.25540       -0.10150        1.99940
H          4.93250       -0.95190        0.10550
H          1.36190        0.72930        1.77510
H          3.90780       -2.39160       -2.88230
H          4.72480       -3.93980       -4.57000
H          4.17060       -5.59400       -6.21010
H          5.36470       -6.78260       -6.77930
H          5.92760       -5.26230       -6.05510
H          4.35370       -7.16910       -1.79100
H          3.49570       -5.60520       -0.09230
H          1.35870       -2.58190        1.51460
H          1.80710       -2.68010        3.91170
H          3.01690       -4.45280        7.10720
H          1.89790       -3.75730        5.91180
H          2.77650       -5.26660        5.54200
H          5.81810       -3.92050        3.11720
H          5.37990       -3.78310        0.69400
H         -1.01550        2.72050       -3.77600
H         -1.39690        4.38120       -2.02430
H         -1.82760        6.06110       -0.43950
H         -1.13260        6.13600        1.19840
H         -0.26510        5.25420       -0.07700
H         -2.44490        1.26620        0.71090
H         -2.08100       -0.40690       -1.06780
H         -3.41670        1.15680       -4.34150
H         -4.19540        1.27950       -6.65430
H         -5.06920       -0.29690       -8.37170
H         -5.07620        0.23220      -10.07060
H         -5.03570        1.45340       -8.78300
H         -0.49720       -0.39670       -7.98910
H          0.29260       -0.50170       -5.66160
H         -3.12710       -1.85910       -4.22120
H         -6.62590       -3.05740       -5.50870
H         -5.20150       -3.15840       -4.46550
H         -6.51140       -0.58380       -5.51630
H         -6.59580       -1.16770       -3.85090
H         -5.05590       -0.61600       -4.52310
H         -1.35580       -4.71110       -8.48230
H         -6.91650       -7.13230       -6.99830
H         -4.66440       -7.96200      -11.45850
H         -7.84910       -9.22930      -11.47570
H         -6.12290      -11.23690      -11.18250
H         -8.54680      -12.23930      -11.33690
H         -9.76230      -11.82660       -9.01100
H         -8.08600      -10.57210       -7.42370
H         -6.32150      -12.08910       -8.68420
H         -5.70360      -10.42170       -8.65670
H         -9.03860       -8.82350       -9.19530
