
  xtb     02042204463D
 energy: -256.202729052359 gnorm: 0.000600394569 xtb: 6.4.1 (unknown)
144159  0     0  0            999 V2000
    3.3169    2.3686    4.2038 C   0  0  0  0  0  0  0  0  0  0  0  0
    4.3136    3.1851    3.7433 C   0  0  0  0  0  0  0  0  0  0  0  0
    5.0909    4.0191    4.6932 C   0  0  0  0  0  0  0  0  0  0  0  0
    4.8289    4.2429    5.8543 O   0  0  0  0  0  0  0  0  0  0  0  0
    6.2745    4.4793    3.9335 C   0  0  0  0  0  0  0  0  0  0  0  0
    7.3647    5.1979    4.4172 C   0  0  0  0  0  0  0  0  0  0  0  0
    8.3292    5.4566    3.4718 C   0  0  0  0  0  0  0  0  0  0  0  0
    8.2227    5.0309    2.1415 C   0  0  0  0  0  0  0  0  0  0  0  0
    7.1473    4.3311    1.6475 C   0  0  0  0  0  0  0  0  0  0  0  0
    6.1552    4.0601    2.5929 C   0  0  0  0  0  0  0  0  0  0  0  0
    4.8751    3.3750    2.4325 C   0  0  0  0  0  0  0  0  0  0  0  0
    4.2471    3.1636    1.2268 C   0  0  0  0  0  0  0  0  0  0  0  0
    4.8213    3.3636   -0.0399 C   0  0  0  0  0  0  0  0  0  0  0  0
    5.2024    3.4544   -1.1217 N   0  0  0  0  0  0  0  0  0  0  0  0
    2.9082    2.7592    1.0743 C   0  0  0  0  0  0  0  0  0  0  0  0
    1.8219    2.4608    0.8427 N   0  0  0  0  0  0  0  0  0  0  0  0
    9.5586    5.6202    1.7610 C   0  0  0  0  0  0  0  0  0  0  0  0
   10.7369    4.6325    1.6271 C   0  0  0  0  0  0  0  0  0  0  0  0
   11.9609    5.5137    1.7289 C   0  0  0  0  0  0  0  0  0  0  0  0
   12.0607    5.9215    2.9876 C   0  0  0  0  0  0  0  0  0  0  0  0
   10.9062    5.3222    3.7577 C   0  0  0  0  0  0  0  0  0  0  0  0
   10.7607    3.9860    3.0182 C   0  0  0  0  0  0  0  0  0  0  0  0
    9.6756    6.0990    3.2435 C   0  0  0  0  0  0  0  0  0  0  0  0
    2.7293    1.2617    3.5533 C   0  0  0  0  0  0  0  0  0  0  0  0
    1.4214    0.8284    3.8705 C   0  0  0  0  0  0  0  0  0  0  0  0
    0.6972   -0.0868    3.0196 C   0  0  0  0  0  0  0  0  0  0  0  0
   -0.5554   -0.2598    3.4315 N   0  0  0  0  0  0  0  0  0  0  0  0
   -0.8007    0.6165    4.7596 S   0  0  0  0  0  4  0  0  0  0  0  0
    0.6615    1.2785    4.8663 N   0  0  0  0  0  0  0  0  0  0  0  0
    1.2393   -0.6613    1.8412 C   0  0  0  0  0  0  0  0  0  0  0  0
    2.6363   -0.4595    1.7123 C   0  0  0  0  0  0  0  0  0  0  0  0
    3.4388   -1.0160    0.8148 N   0  0  0  0  0  0  0  0  0  0  0  0
    4.9213   -0.4147    0.9584 S   0  0  0  0  0  0  0  0  0  0  0  0
    4.6260    0.6047    2.1726 N   0  0  0  0  0  0  0  0  0  0  0  0
    3.3478    0.5092    2.5275 C   0  0  0  0  0  0  0  0  0  0  0  0
    0.3654   -1.1324    0.8359 C   0  0  0  0  0  0  0  0  0  0  0  0
    0.6403   -1.5276   -0.4856 C   0  0  0  0  0  0  0  0  0  0  0  0
    1.8600   -1.9401   -1.0107 N   0  0  0  0  0  0  0  0  0  0  0  0
    2.4604   -3.0955   -0.5342 C   0  0  0  0  0  0  0  0  0  0  0  0
    3.8195   -3.3512   -0.7278 C   0  0  0  0  0  0  0  0  0  0  0  0
    4.3979   -4.5097   -0.2558 C   0  0  0  0  0  0  0  0  0  0  0  0
    3.6331   -5.4464    0.4301 C   0  0  0  0  0  0  0  0  0  0  0  0
    4.2589   -6.9595    1.0800 S   0  0  0  0  0  0  0  0  0  0  0  0
    5.9989   -6.9768    0.5634 C   0  0  0  0  0  0  0  0  0  0  0  0
    2.2771   -5.1951    0.6346 C   0  0  0  0  0  0  0  0  0  0  0  0
    1.6981   -4.0422    0.1586 C   0  0  0  0  0  0  0  0  0  0  0  0
    2.4146   -1.1364   -2.0141 C   0  0  0  0  0  0  0  0  0  0  0  0
    2.3443    0.2501   -1.8794 C   0  0  0  0  0  0  0  0  0  0  0  0
    2.9568    1.0804   -2.7937 C   0  0  0  0  0  0  0  0  0  0  0  0
    3.6416    0.5369   -3.8746 C   0  0  0  0  0  0  0  0  0  0  0  0
    4.5140    1.4950   -5.0617 S   0  0  0  0  0  0  0  0  0  0  0  0
    4.4533    3.1827   -4.3981 C   0  0  0  0  0  0  0  0  0  0  0  0
    3.6564   -0.8485   -4.0483 C   0  0  0  0  0  0  0  0  0  0  0  0
    3.0500   -1.6777   -3.1324 C   0  0  0  0  0  0  0  0  0  0  0  0
   -0.5230   -1.5040   -1.2759 C   0  0  0  0  0  0  0  0  0  0  0  0
   -0.8361   -1.8401   -2.9429 S   0  0  0  0  0  0  0  0  0  0  0  0
   -2.5564   -1.6430   -2.6672 C   0  0  0  0  0  0  0  0  0  0  0  0
   -2.8548   -1.2486   -1.3642 C   0  0  0  0  0  0  0  0  0  0  0  0
   -4.0857   -0.8460   -0.8911 N   0  0  0  0  0  0  0  0  0  0  0  0
   -4.3896   -1.1076    0.4565 C   0  0  0  0  0  0  0  0  0  0  0  0
   -4.0633   -2.3391    1.0232 C   0  0  0  0  0  0  0  0  0  0  0  0
   -4.3115   -2.5698    2.3574 C   0  0  0  0  0  0  0  0  0  0  0  0
   -4.8933   -1.5813    3.1487 C   0  0  0  0  0  0  0  0  0  0  0  0
   -5.1449   -1.9802    4.8500 S   0  0  0  0  0  0  0  0  0  0  0  0
   -5.5787   -0.3884    5.6076 C   0  0  0  0  0  0  0  0  0  0  0  0
   -5.2540   -0.3684    2.5765 C   0  0  0  0  0  0  0  0  0  0  0  0
   -4.9999   -0.1339    1.2392 C   0  0  0  0  0  0  0  0  0  0  0  0
   -5.0545   -0.3005   -1.7372 C   0  0  0  0  0  0  0  0  0  0  0  0
   -4.6927    0.5326   -2.7939 C   0  0  0  0  0  0  0  0  0  0  0  0
   -5.6277    0.9495   -3.7197 C   0  0  0  0  0  0  0  0  0  0  0  0
   -6.9517    0.5484   -3.5998 C   0  0  0  0  0  0  0  0  0  0  0  0
   -8.2087    0.9091   -4.7834 S   0  0  0  0  0  0  0  0  0  0  0  0
   -7.2982    1.6720   -6.1567 C   0  0  0  0  0  0  0  0  0  0  0  0
   -7.3380   -0.1963   -2.4873 C   0  0  0  0  0  0  0  0  0  0  0  0
   -6.4049   -0.6097   -1.5638 C   0  0  0  0  0  0  0  0  0  0  0  0
   -1.6824   -1.1993   -0.5771 C   0  0  0  0  0  0  0  0  0  0  0  0
   -1.3587   -0.8894    1.0944 S   0  0  0  0  0  0  0  0  0  0  0  0
   -3.5164   -1.9048   -3.7053 C   0  0  0  0  0  0  0  0  0  0  0  0
   -3.3856   -1.4813   -5.0193 C   0  0  0  0  0  0  0  0  0  0  0  0
   -2.2638   -0.8352   -5.3929 F   0  0  0  0  0  0  0  0  0  0  0  0
   -4.3872   -1.6186   -5.9709 C   0  0  0  0  0  0  0  0  0  0  0  0
   -5.5960   -2.2219   -5.6559 C   0  0  0  0  0  0  0  0  0  0  0  0
   -5.7679   -2.7062   -4.3294 C   0  0  0  0  0  0  0  0  0  0  0  0
   -6.9577   -3.1917   -3.9376 N   0  0  0  0  0  0  0  0  0  0  0  0
   -7.0840   -3.6830   -2.7410 C   0  0  0  0  0  0  0  0  0  0  0  0
   -5.9706   -3.7511   -1.8545 C   0  0  0  0  0  0  0  0  0  0  0  0
   -5.9758   -4.3282   -0.6557 O   0  0  0  0  0  0  0  0  0  0  0  0
   -7.1732   -4.9029   -0.1488 C   0  0  0  0  0  0  0  0  0  0  0  0
   -6.8665   -5.4167    1.2482 C   0  0  0  0  0  0  0  0  0  0  0  0
   -4.8328   -3.1803   -2.1800 N   0  0  0  0  0  0  0  0  0  0  0  0
   -4.7176   -2.6047   -3.3852 C   0  0  0  0  0  0  0  0  0  0  0  0
   -6.6446   -2.3043   -6.6326 C   0  0  0  0  0  0  0  0  0  0  0  0
   -7.6540   -3.2101   -6.6719 C   0  0  0  0  0  0  0  0  0  0  0  0
   -7.7918   -4.3734   -5.8763 C   0  0  0  0  0  0  0  0  0  0  0  0
   -7.9512   -5.4108   -5.4091 N   0  0  0  0  0  0  0  0  0  0  0  0
   -8.6459   -3.1045   -7.6775 C   0  0  0  0  0  0  0  0  0  0  0  0
   -9.4454   -3.0064   -8.4928 N   0  0  0  0  0  0  0  0  0  0  0  0
    2.9472    2.5829    5.2009 H   0  0  0  0  0  0  0  0  0  0  0  0
    7.4106    5.5100    5.4488 H   0  0  0  0  0  0  0  0  0  0  0  0
    7.0734    4.0050    0.6227 H   0  0  0  0  0  0  0  0  0  0  0  0
    9.5396    6.3692    0.9714 H   0  0  0  0  0  0  0  0  0  0  0  0
   10.6808    3.9704    0.7672 H   0  0  0  0  0  0  0  0  0  0  0  0
   12.5754    5.7864    0.8909 H   0  0  0  0  0  0  0  0  0  0  0  0
   12.7752    6.6028    3.4110 H   0  0  0  0  0  0  0  0  0  0  0  0
   11.0046    5.2883    4.8393 H   0  0  0  0  0  0  0  0  0  0  0  0
   11.6275    3.3419    3.1580 H   0  0  0  0  0  0  0  0  0  0  0  0
    9.8547    3.4371    3.2679 H   0  0  0  0  0  0  0  0  0  0  0  0
    9.7332    7.1678    3.4415 H   0  0  0  0  0  0  0  0  0  0  0  0
    4.4343   -2.6198   -1.2276 H   0  0  0  0  0  0  0  0  0  0  0  0
    5.4522   -4.6648   -0.4192 H   0  0  0  0  0  0  0  0  0  0  0  0
    6.0644   -6.9349   -0.5198 H   0  0  0  0  0  0  0  0  0  0  0  0
    6.5332   -6.1518    1.0252 H   0  0  0  0  0  0  0  0  0  0  0  0
    6.3997   -7.9202    0.9207 H   0  0  0  0  0  0  0  0  0  0  0  0
    1.6830   -5.9232    1.1653 H   0  0  0  0  0  0  0  0  0  0  0  0
    0.6433   -3.8746    0.3144 H   0  0  0  0  0  0  0  0  0  0  0  0
    1.8379    0.6820   -1.0285 H   0  0  0  0  0  0  0  0  0  0  0  0
    2.9104    2.1457   -2.6388 H   0  0  0  0  0  0  0  0  0  0  0  0
    4.8424    3.1989   -3.3838 H   0  0  0  0  0  0  0  0  0  0  0  0
    3.4356    3.5603   -4.4394 H   0  0  0  0  0  0  0  0  0  0  0  0
    5.0899    3.7731   -5.0500 H   0  0  0  0  0  0  0  0  0  0  0  0
    4.1572   -1.2617   -4.9104 H   0  0  0  0  0  0  0  0  0  0  0  0
    3.0621   -2.7473   -3.2763 H   0  0  0  0  0  0  0  0  0  0  0  0
   -3.6334   -3.1086    0.4021 H   0  0  0  0  0  0  0  0  0  0  0  0
   -4.0546   -3.5171    2.8058 H   0  0  0  0  0  0  0  0  0  0  0  0
   -5.5960   -0.5682    6.6780 H   0  0  0  0  0  0  0  0  0  0  0  0
   -6.5618   -0.0671    5.2752 H   0  0  0  0  0  0  0  0  0  0  0  0
   -4.8184    0.3488    5.3674 H   0  0  0  0  0  0  0  0  0  0  0  0
   -5.7253    0.4055    3.1605 H   0  0  0  0  0  0  0  0  0  0  0  0
   -5.2693    0.8145    0.7977 H   0  0  0  0  0  0  0  0  0  0  0  0
   -3.6645    0.8446   -2.9007 H   0  0  0  0  0  0  0  0  0  0  0  0
   -5.3077    1.5832   -4.5307 H   0  0  0  0  0  0  0  0  0  0  0  0
   -6.9215    2.6473   -5.8625 H   0  0  0  0  0  0  0  0  0  0  0  0
   -6.4908    1.0173   -6.4707 H   0  0  0  0  0  0  0  0  0  0  0  0
   -8.0208    1.7844   -6.9591 H   0  0  0  0  0  0  0  0  0  0  0  0
   -8.3763   -0.4685   -2.3751 H   0  0  0  0  0  0  0  0  0  0  0  0
   -6.7073   -1.2079   -0.7168 H   0  0  0  0  0  0  0  0  0  0  0  0
   -4.2050   -1.2375   -6.9648 H   0  0  0  0  0  0  0  0  0  0  0  0
   -8.0717   -4.0276   -2.4734 H   0  0  0  0  0  0  0  0  0  0  0  0
   -7.5000   -5.7223   -0.8012 H   0  0  0  0  0  0  0  0  0  0  0  0
   -7.9644   -4.1433   -0.1091 H   0  0  0  0  0  0  0  0  0  0  0  0
   -6.0770   -6.1612    1.2043 H   0  0  0  0  0  0  0  0  0  0  0  0
   -6.5351   -4.5967    1.8798 H   0  0  0  0  0  0  0  0  0  0  0  0
   -7.7567   -5.8650    1.6788 H   0  0  0  0  0  0  0  0  0  0  0  0
   -6.6154   -1.5681   -7.4279 H   0  0  0  0  0  0  0  0  0  0  0  0
  1  2  2  0  0  0  0
  2  3  1  0  0  0  0
  3  4  2  0  0  0  0
  3  5  1  0  0  0  0
  5  6  2  0  0  0  0
  6  7  1  0  0  0  0
  7  8  2  0  0  0  0
  8  9  1  0  0  0  0
  9 10  2  0  0  0  0
 10 11  1  0  0  0  0
 11 12  2  0  0  0  0
 12 13  1  0  0  0  0
 13 14  3  0  0  0  0
 12 15  1  0  0  0  0
 15 16  3  0  0  0  0
  8 17  1  0  0  0  0
 17 18  1  0  0  0  0
 18 19  1  0  0  0  0
 19 20  2  0  0  0  0
 20 21  1  0  0  0  0
 21 22  1  0  0  0  0
 21 23  1  0  0  0  0
  1 24  1  0  0  0  0
 24 25  2  0  0  0  0
 25 26  1  0  0  0  0
 26 27  1  0  0  0  0
 27 28  2  0  0  0  0
 28 29  2  0  0  0  0
 26 30  2  0  0  0  0
 30 31  1  0  0  0  0
 31 32  2  0  0  0  0
 32 33  1  0  0  0  0
 33 34  1  0  0  0  0
 34 35  2  0  0  0  0
 30 36  1  0  0  0  0
 36 37  2  0  0  0  0
 37 38  1  0  0  0  0
 38 39  1  0  0  0  0
 39 40  2  0  0  0  0
 40 41  1  0  0  0  0
 41 42  2  0  0  0  0
 42 43  1  0  0  0  0
 43 44  1  0  0  0  0
 42 45  1  0  0  0  0
 45 46  2  0  0  0  0
 38 47  1  0  0  0  0
 47 48  2  0  0  0  0
 48 49  1  0  0  0  0
 49 50  2  0  0  0  0
 50 51  1  0  0  0  0
 51 52  1  0  0  0  0
 50 53  1  0  0  0  0
 53 54  2  0  0  0  0
 37 55  1  0  0  0  0
 55 56  1  0  0  0  0
 56 57  1  0  0  0  0
 57 58  2  0  0  0  0
 58 59  1  0  0  0  0
 59 60  1  0  0  0  0
 60 61  2  0  0  0  0
 61 62  1  0  0  0  0
 62 63  2  0  0  0  0
 63 64  1  0  0  0  0
 64 65  1  0  0  0  0
 63 66  1  0  0  0  0
 66 67  2  0  0  0  0
 59 68  1  0  0  0  0
 68 69  2  0  0  0  0
 69 70  1  0  0  0  0
 70 71  2  0  0  0  0
 71 72  1  0  0  0  0
 72 73  1  0  0  0  0
 71 74  1  0  0  0  0
 74 75  2  0  0  0  0
 58 76  1  0  0  0  0
 76 77  1  0  0  0  0
 57 78  1  0  0  0  0
 78 79  2  0  0  0  0
 79 80  1  0  0  0  0
 79 81  1  0  0  0  0
 81 82  2  0  0  0  0
 82 83  1  0  0  0  0
 83 84  2  0  0  0  0
 84 85  1  0  0  0  0
 85 86  2  0  0  0  0
 86 87  1  0  0  0  0
 87 88  1  0  0  0  0
 88 89  1  0  0  0  0
 86 90  1  0  0  0  0
 90 91  2  0  0  0  0
 82 92  1  0  0  0  0
 92 93  2  0  0  0  0
 93 94  1  0  0  0  0
 94 95  3  0  0  0  0
 93 96  1  0  0  0  0
 96 97  3  0  0  0  0
 11  2  1  0  0  0  0
 23 17  1  0  0  0  0
 35 24  1  0  0  0  0
 77 36  1  0  0  0  0
 91 78  1  0  0  0  0
 10  5  1  0  0  0  0
 22 18  1  0  0  0  0
 29 25  1  0  0  0  0
 35 31  1  0  0  0  0
 46 39  1  0  0  0  0
 54 47  1  0  0  0  0
 76 55  2  0  0  0  0
 91 83  1  0  0  0  0
 23  7  1  0  0  0  0
 67 60  1  0  0  0  0
 75 68  1  0  0  0  0
  1 98  1  0  0  0  0
  6 99  1  0  0  0  0
  9100  1  0  0  0  0
 17101  1  0  0  0  0
 18102  1  0  0  0  0
 19103  1  0  0  0  0
 20104  1  0  0  0  0
 21105  1  0  0  0  0
 22106  1  0  0  0  0
 22107  1  0  0  0  0
 23108  1  0  0  0  0
 40109  1  0  0  0  0
 41110  1  0  0  0  0
 44111  1  0  0  0  0
 44112  1  0  0  0  0
 44113  1  0  0  0  0
 45114  1  0  0  0  0
 46115  1  0  0  0  0
 48116  1  0  0  0  0
 49117  1  0  0  0  0
 52118  1  0  0  0  0
 52119  1  0  0  0  0
 52120  1  0  0  0  0
 53121  1  0  0  0  0
 54122  1  0  0  0  0
 61123  1  0  0  0  0
 62124  1  0  0  0  0
 65125  1  0  0  0  0
 65126  1  0  0  0  0
 65127  1  0  0  0  0
 66128  1  0  0  0  0
 67129  1  0  0  0  0
 69130  1  0  0  0  0
 70131  1  0  0  0  0
 73132  1  0  0  0  0
 73133  1  0  0  0  0
 73134  1  0  0  0  0
 74135  1  0  0  0  0
 75136  1  0  0  0  0
 81137  1  0  0  0  0
 85138  1  0  0  0  0
 88139  1  0  0  0  0
 88140  1  0  0  0  0
 89141  1  0  0  0  0
 89142  1  0  0  0  0
 89143  1  0  0  0  0
 92144  1  0  0  0  0
M  END
