218

C         -2.87420        0.22520        7.92190
C         -2.08700       -0.32080        8.91050
C         -1.20310       -1.49070        8.81270
O         -1.30820       -2.45220        8.07060
C         -0.17590       -1.31280        9.85630
C          0.97600       -2.07220       10.04690
C          1.75160       -1.64980       11.10050
C          1.40770       -0.55890       11.90900
C          0.27040        0.19520       11.73500
C         -0.52850       -0.21350       10.66460
C         -1.79590        0.32210       10.17240
C         -2.61790        1.18350       10.85600
C         -2.27590        1.81890       12.06540
N         -2.04780        2.38130       13.04060
C         -3.96260        1.41080       10.51650
N         -5.09310        1.55330       10.36540
C          2.65030       -0.69110       12.75470
C          3.78680        0.31380       12.47140
C          5.00780       -0.34040       13.07650
C          5.33290       -1.37430       12.31090
C          4.33680       -1.43660       11.17570
C          4.06250        0.06060       10.98360
C          3.03300       -1.90870       11.85330
C         -3.04330       -0.19690        6.59850
C         -3.51300        0.61220        5.53440
N         -3.97470        1.90370        5.62530
C         -3.80490        2.72820        4.49320
C         -2.54390        2.86610        3.92080
C         -2.37900        3.57070        2.74500
C         -3.47860        4.14940        2.12670
S         -3.39460        4.99420        0.57750
C         -1.87390        4.34030       -0.16860
C         -4.72840        4.07690        2.73740
C         -4.89280        3.37510        3.91020
C         -4.84960        2.34900        6.62780
C         -4.80600        3.68760        7.01860
C         -5.68800        4.16180        7.96290
C         -6.63010        3.31130        8.53670
S         -7.72320        4.00820        9.72660
C         -8.23470        2.55860       10.69370
C         -6.68380        1.98010        8.13820
C         -5.79930        1.50280        7.19410
C         -3.35150       -0.03540        4.29560
S         -3.68000        0.40890        2.64210
C         -3.00450       -1.11370        2.08430
C         -2.70160       -1.97380        3.13960
N         -2.30960       -3.29840        3.04040
C         -2.93520       -4.20110        2.17940
C         -2.27870       -5.38370        1.82550
C         -2.87550       -6.28540        0.97530
C         -4.13920       -6.03130        0.44480
S         -4.79680       -7.25890       -0.64090
C         -6.43520       -6.61870       -1.08850
C         -4.79430       -4.85760        0.78930
C         -4.19900       -3.95540        1.64890
C         -1.45470       -3.77040        4.06000
C         -1.80740       -4.85270        4.85870
C         -1.00160       -5.22630        5.91430
C          0.16200       -4.51960        6.18710
S          1.20370       -4.91610        7.55580
C         -0.00450       -5.51160        8.77700
C          0.54230       -3.46820        5.36120
C         -0.26120       -3.09570        4.30580
C         -2.86530       -1.32980        4.39070
S         -2.52350       -1.78520        6.01930
C         -2.67650       -1.21860        0.69620
C         -1.80140       -2.15490        0.15620
C         -1.31630       -2.03530       -1.13790
C         -1.67320       -0.98720       -1.97480
C         -2.67120       -0.08760       -1.51420
N         -3.10060        0.91060       -2.30420
C         -3.96490        1.76160       -1.81450
C         -4.43460        1.66130       -0.49530
N         -4.02610        0.69640        0.28950
C         -3.14860       -0.19830       -0.18080
C         -0.97790       -0.71790       -3.20630
C          0.39480       -0.79470       -3.40570
N          1.33340       -1.09850       -2.43220
C          1.16690       -0.67260       -1.11070
C          1.61490       -1.46710       -0.05790
C          1.40440       -1.08000        1.25140
C          0.73310        0.09710        1.55250
C          0.45590        0.50740        2.96680
C          0.31010        0.89710        0.49640
C          0.53030        0.53300       -0.81440
C          2.52300       -1.73170       -2.83210
C          3.75220       -1.32710       -2.32010
C          4.91430       -1.92720       -2.75900
C          4.88720       -2.93480       -3.71630
C          6.15890       -3.53680       -4.22850
C          3.65500       -3.34480       -4.20770
C          2.48390       -2.75870       -3.77080
C          0.73990       -0.42750       -4.72790
S          2.24790       -0.24230       -5.55000
C          1.39740        0.32340       -6.99140
C         -0.00140        0.42480       -6.77800
N         -0.91270        0.92450       -7.67020
C         -2.22930        0.42580       -7.63690
C         -2.45190       -0.94540       -7.54550
C         -3.74120       -1.43590       -7.51200
C         -4.83540       -0.58110       -7.57580
C         -6.23080       -1.12150       -7.51580
C         -4.60210        0.78520       -7.67670
C         -3.31740        1.28970       -7.70590
C         -0.62060        1.99470       -8.53630
C         -1.17530        2.02690       -9.81310
C         -0.87810        3.06880      -10.66880
C         -0.01890        4.09170      -10.28560
C          0.33920        5.18180      -11.24780
C          0.50890        4.06350       -8.99960
C          0.20690        3.03790       -8.12670
C         -0.35020       -0.03830       -5.49690
S         -1.83380       -0.09200       -4.59570
C          2.00330        0.56700       -8.22240
C          3.33370        0.62600       -8.57070
C          4.47850        0.51100       -7.66500
O          4.47540        0.18350       -6.49000
C          5.66700        0.88560       -8.45440
C          6.98260        0.96140       -8.00610
C          7.87920        1.36080       -8.96840
C          7.49500        1.65630      -10.28210
C          6.20040        1.57660      -10.73930
C          5.27170        1.17960       -9.77440
C          3.82640        0.97720       -9.88070
C          3.09240        1.08840      -11.03810
C          3.60600        1.53680      -12.27020
N          3.94240        1.91760      -13.30100
C          1.73510        0.74400      -11.18090
N          0.64510        0.45000      -11.40100
C          8.90170        2.00530      -10.70010
C          9.26270        3.50540      -10.83360
C          8.33980        4.25330       -9.90390
C          8.70440        3.97340       -8.65980
C          9.88040        3.03080       -8.72600
C         10.55960        3.53520      -10.00920
C          9.33030        1.67550       -9.23560
H         -3.33610        1.17960        8.15570
H          1.21570       -2.89970        9.39790
H          0.01710        1.03570       12.35990
H          2.48630       -0.85980       13.81730
H          3.57730        1.33570       12.77610
H          5.46060       -0.02780       13.99920
H          6.11150       -2.09790       12.46640
H          4.62710       -2.01000       10.29940
H          4.94120        0.59820       10.63070
H          3.21750        0.27660       10.33240
H          3.12500       -2.89010       12.31510
H         -1.69310        2.39790        4.39360
H         -1.39250        3.65750        2.31850
H         -1.89600        4.64900       -1.20910
H         -0.99810        4.76040        0.31780
H         -1.88170        3.25600       -0.10500
H         -5.57240        4.55610        2.26570
H         -5.86890        3.29370        4.36350
H         -4.07160        4.34600        6.57860
H         -5.65170        5.19410        8.27460
H         -8.99670        1.99680       10.16070
H         -8.64620        2.94740       11.61990
H         -7.35580        1.95450       10.89380
H         -7.41690        1.30940        8.55430
H         -5.84630        0.46940        6.88350
H         -1.29540       -5.58710        2.22310
H         -2.36670       -7.19780        0.70470
H         -6.33480       -5.67410       -1.61530
H         -6.86890       -7.36410       -1.74790
H         -7.04870       -6.51290       -0.19850
H         -5.77510       -4.63160        0.40300
H         -4.73110       -3.05570        1.91730
H         -2.72580       -5.38590        4.66210
H         -1.29820       -6.05900        6.53170
H         -0.31050       -6.52830        8.54810
H          0.49720       -5.49100        9.73980
H         -0.84970       -4.82950        8.77410
H          1.45940       -2.93820        5.56840
H          0.00840       -2.26370        3.67330
H         -1.42340       -2.95790        0.76450
H         -0.60950       -2.76960       -1.49320
H         -4.29500        2.55210       -2.47420
H         -5.13600        2.36850       -0.07670
H          2.12330       -2.39530       -0.27340
H          1.76380       -1.71360        2.04980
H         -0.58940        0.31460        3.21310
H          0.63800        1.57260        3.09940
H          1.08180       -0.04130        3.66670
H         -0.19400        1.82860        0.71140
H          0.20600        1.17870       -1.61750
H          3.78910       -0.53150       -1.59050
H          5.86320       -1.59510       -2.36340
H          6.91420       -3.57770       -3.44660
H          5.98970       -4.54060       -4.61130
H          6.54850       -2.92510       -5.04280
H          3.60970       -4.13310       -4.94530
H          1.53150       -3.08910       -4.16020
H         -1.60940       -1.62020       -7.51100
H         -3.90140       -2.50210       -7.44350
H         -6.93280       -0.44140       -7.99190
H         -6.53440       -1.24830       -6.47590
H         -6.29200       -2.09180       -8.00320
H         -5.43920        1.46630       -7.72790
H         -3.14950        2.35400       -7.77860
H         -1.82220        1.22600      -10.13490
H         -1.30240        3.07370      -11.66130
H         -0.54680        5.54780      -11.76260
H          0.81990        6.01270      -10.73720
H          1.02670        4.79880      -12.00270
H          1.16240        4.85970       -8.67260
H          0.62070        3.03310       -7.12880
H          1.30290        0.76710       -9.02280
H          7.23420        0.72240       -6.98440
H          5.92240        1.80530      -11.75460
H          9.32490        1.40450      -11.50280
H          9.31060        3.86880      -11.85660
H          7.50580        4.84370      -10.23550
H          8.23560        4.28300       -7.74400
H         10.49180        2.96230       -7.82980
H         11.32880        2.86250      -10.38620
H         10.96870        4.53890       -9.90290
H         10.03350        0.85880       -9.08270
