
  xtb     02142216243D
 energy: -375.138301925617 gnorm: 0.000343466917 xtb: 6.4.1 (unknown)
228249  0     0  0            999 V2000
    2.8718   -6.0509    2.2238 C   0  0  0  0  0  0  0  0  0  0  0  0
    2.3099   -7.2702    1.9660 C   0  0  0  0  0  0  0  0  0  0  0  0
    3.0514   -8.1945    1.0740 C   0  0  0  0  0  0  0  0  0  0  0  0
    4.2422   -8.1854    0.8420 O   0  0  0  0  0  0  0  0  0  0  0  0
    2.0130   -9.0391    0.4512 C   0  0  0  0  0  0  0  0  0  0  0  0
    2.1733   -9.9216   -0.6138 C   0  0  0  0  0  0  0  0  0  0  0  0
    0.9971  -10.4673   -1.0695 C   0  0  0  0  0  0  0  0  0  0  0  0
   -0.2486  -10.1629   -0.5064 C   0  0  0  0  0  0  0  0  0  0  0  0
   -0.4201   -9.3144    0.5620 C   0  0  0  0  0  0  0  0  0  0  0  0
    0.7624   -8.7465    1.0349 C   0  0  0  0  0  0  0  0  0  0  0  0
    0.9750   -7.7858    2.1167 C   0  0  0  0  0  0  0  0  0  0  0  0
    0.1516   -7.6060    3.2002 C   0  0  0  0  0  0  0  0  0  0  0  0
   -1.1297   -8.1796    3.2989 C   0  0  0  0  0  0  0  0  0  0  0  0
   -2.1852   -8.6206    3.3994 N   0  0  0  0  0  0  0  0  0  0  0  0
    0.5720   -6.9469    4.3701 C   0  0  0  0  0  0  0  0  0  0  0  0
    0.9121   -6.4914    5.3695 N   0  0  0  0  0  0  0  0  0  0  0  0
   -0.9968  -11.0001   -1.5122 C   0  0  0  0  0  0  0  0  0  0  0  0
   -1.7072  -10.2504   -2.6672 C   0  0  0  0  0  0  0  0  0  0  0  0
   -0.9502   -8.9619   -2.8755 C   0  0  0  0  0  0  0  0  0  0  0  0
    0.2257   -9.2662   -3.4081 C   0  0  0  0  0  0  0  0  0  0  0  0
    0.2870  -10.7654   -3.5646 C   0  0  0  0  0  0  0  0  0  0  0  0
   -1.1902  -11.0663   -3.8627 C   0  0  0  0  0  0  0  0  0  0  0  0
    0.3922  -11.3497   -2.1334 C   0  0  0  0  0  0  0  0  0  0  0  0
    2.2623   -4.8156    2.4809 C   0  0  0  0  0  0  0  0  0  0  0  0
    2.9072   -3.5749    2.3023 C   0  0  0  0  0  0  0  0  0  0  0  0
    4.2652   -3.4018    2.2318 N   0  0  0  0  0  0  0  0  0  0  0  0
    4.7847   -2.3377    1.4719 C   0  0  0  0  0  0  0  0  0  0  0  0
    5.7675   -1.5033    1.9934 C   0  0  0  0  0  0  0  0  0  0  0  0
    6.2656   -0.4534    1.2477 C   0  0  0  0  0  0  0  0  0  0  0  0
    5.7850   -0.2193   -0.0346 C   0  0  0  0  0  0  0  0  0  0  0  0
    6.3300    1.0947   -1.0747 S   0  0  0  0  0  0  0  0  0  0  0  0
    7.5326    1.9949   -0.0565 C   0  0  0  0  0  0  0  0  0  0  0  0
    4.8110   -1.0634   -0.5655 C   0  0  0  0  0  0  0  0  0  0  0  0
    4.3189   -2.1120    0.1772 C   0  0  0  0  0  0  0  0  0  0  0  0
    5.1449   -4.1702    3.0164 C   0  0  0  0  0  0  0  0  0  0  0  0
    6.4073   -4.4983    2.5221 C   0  0  0  0  0  0  0  0  0  0  0  0
    7.2756   -5.2465    3.2843 C   0  0  0  0  0  0  0  0  0  0  0  0
    6.9037   -5.6884    4.5530 C   0  0  0  0  0  0  0  0  0  0  0  0
    8.0958   -6.6399    5.4365 S   0  0  0  0  0  0  0  0  0  0  0  0
    7.1726   -7.2715    6.8664 C   0  0  0  0  0  0  0  0  0  0  0  0
    5.6512   -5.3525    5.0517 C   0  0  0  0  0  0  0  0  0  0  0  0
    4.7827   -4.5961    4.2911 C   0  0  0  0  0  0  0  0  0  0  0  0
    1.9641   -2.5331    2.1887 C   0  0  0  0  0  0  0  0  0  0  0  0
    2.0519   -0.8682    1.7380 S   0  0  0  0  0  0  0  0  0  0  0  0
    0.2915   -0.7291    1.8383 C   0  0  0  0  0  0  0  0  0  0  0  0
   -0.3033   -1.8770    2.3452 C   0  0  0  0  0  0  0  0  0  0  0  0
   -1.6162   -2.0578    2.7138 N   0  0  0  0  0  0  0  0  0  0  0  0
   -2.5022   -0.9848    2.9548 C   0  0  0  0  0  0  0  0  0  0  0  0
   -2.0790    0.2407    3.4675 C   0  0  0  0  0  0  0  0  0  0  0  0
   -2.9884    1.2520    3.6891 C   0  0  0  0  0  0  0  0  0  0  0  0
   -4.3448    1.0552    3.4409 C   0  0  0  0  0  0  0  0  0  0  0  0
   -5.4053    2.4396    3.7139 S   0  0  0  0  0  0  0  0  0  0  0  0
   -7.0650    1.7974    3.3637 C   0  0  0  0  0  0  0  0  0  0  0  0
   -4.7791   -0.1858    2.9940 C   0  0  0  0  0  0  0  0  0  0  0  0
   -3.8624   -1.1891    2.7492 C   0  0  0  0  0  0  0  0  0  0  0  0
   -1.8867   -3.1991    3.5409 C   0  0  0  0  0  0  0  0  0  0  0  0
   -2.6594   -4.2626    3.0947 C   0  0  0  0  0  0  0  0  0  0  0  0
   -2.9138   -5.3274    3.9348 C   0  0  0  0  0  0  0  0  0  0  0  0
   -2.3933   -5.3513    5.2273 C   0  0  0  0  0  0  0  0  0  0  0  0
   -2.7861   -6.7469    6.2220 S   0  0  0  0  0  0  0  0  0  0  0  0
   -1.5750   -6.6579    7.5730 C   0  0  0  0  0  0  0  0  0  0  0  0
   -1.6233   -4.2845    5.6749 C   0  0  0  0  0  0  0  0  0  0  0  0
   -1.3812   -3.2166    4.8359 C   0  0  0  0  0  0  0  0  0  0  0  0
    0.6551   -2.9183    2.4430 C   0  0  0  0  0  0  0  0  0  0  0  0
    0.5254   -4.6174    2.7020 S   0  0  0  0  0  0  0  0  0  0  0  0
   -0.2836    0.4526    1.2737 C   0  0  0  0  0  0  0  0  0  0  0  0
   -1.3039    0.5692    0.3401 C   0  0  0  0  0  0  0  0  0  0  0  0
   -2.0190   -0.4832   -0.2092 N   0  0  0  0  0  0  0  0  0  0  0  0
   -1.4221   -1.7371   -0.4061 C   0  0  0  0  0  0  0  0  0  0  0  0
   -2.1627   -2.9009   -0.1940 C   0  0  0  0  0  0  0  0  0  0  0  0
   -1.5796   -4.1382   -0.3407 C   0  0  0  0  0  0  0  0  0  0  0  0
   -0.2384   -4.2519   -0.7030 C   0  0  0  0  0  0  0  0  0  0  0  0
    0.3982   -5.8988   -0.8125 S   0  0  0  0  0  0  0  0  0  0  0  0
    2.1326   -5.6762   -1.2866 C   0  0  0  0  0  0  0  0  0  0  0  0
    0.4935   -3.1001   -0.9508 C   0  0  0  0  0  0  0  0  0  0  0  0
   -0.0949   -1.8564   -0.8088 C   0  0  0  0  0  0  0  0  0  0  0  0
   -3.3246   -0.2569   -0.6666 C   0  0  0  0  0  0  0  0  0  0  0  0
   -4.1655    0.6373   -0.0029 C   0  0  0  0  0  0  0  0  0  0  0  0
   -5.4294    0.8930   -0.4831 C   0  0  0  0  0  0  0  0  0  0  0  0
   -5.8964    0.2557   -1.6288 C   0  0  0  0  0  0  0  0  0  0  0  0
   -7.5304    0.6748   -2.1482 S   0  0  0  0  0  0  0  0  0  0  0  0
   -7.7489   -0.2407   -3.6985 C   0  0  0  0  0  0  0  0  0  0  0  0
   -5.0755   -0.6543   -2.2794 C   0  0  0  0  0  0  0  0  0  0  0  0
   -3.8012   -0.8989   -1.8065 C   0  0  0  0  0  0  0  0  0  0  0  0
   -1.4968    1.9249   -0.0294 C   0  0  0  0  0  0  0  0  0  0  0  0
   -2.5124    2.7231   -1.1886 S   0  0  0  0  0  0  0  0  0  0  0  0
   -1.8467    4.2697   -0.7160 C   0  0  0  0  0  0  0  0  0  0  0  0
   -0.7822    4.1523    0.1742 C   0  0  0  0  0  0  0  0  0  0  0  0
    0.0838    5.1800    0.5093 N   0  0  0  0  0  0  0  0  0  0  0  0
    0.4045    6.1543   -0.4481 C   0  0  0  0  0  0  0  0  0  0  0  0
    0.5357    7.4940   -0.0816 C   0  0  0  0  0  0  0  0  0  0  0  0
    0.7220    8.4637   -1.0432 C   0  0  0  0  0  0  0  0  0  0  0  0
    0.7722    8.1219   -2.3917 C   0  0  0  0  0  0  0  0  0  0  0  0
    0.8933    9.4388   -3.5641 S   0  0  0  0  0  0  0  0  0  0  0  0
    1.6559    8.6562   -5.0115 C   0  0  0  0  0  0  0  0  0  0  0  0
    0.6924    6.7845   -2.7603 C   0  0  0  0  0  0  0  0  0  0  0  0
    0.5265    5.8137   -1.7951 C   0  0  0  0  0  0  0  0  0  0  0  0
    0.6450    5.2128    1.7904 C   0  0  0  0  0  0  0  0  0  0  0  0
   -0.1009    4.8040    2.8931 C   0  0  0  0  0  0  0  0  0  0  0  0
    0.4483    4.8135    4.1605 C   0  0  0  0  0  0  0  0  0  0  0  0
    1.7542    5.2439    4.3474 C   0  0  0  0  0  0  0  0  0  0  0  0
    2.5656    5.3097    5.9134 S   0  0  0  0  0  0  0  0  0  0  0  0
    1.3392    4.6411    7.0726 C   0  0  0  0  0  0  0  0  0  0  0  0
    2.5002    5.6655    3.2471 C   0  0  0  0  0  0  0  0  0  0  0  0
    1.9569    5.6475    1.9833 C   0  0  0  0  0  0  0  0  0  0  0  0
   -0.6202    2.8090    0.5804 C   0  0  0  0  0  0  0  0  0  0  0  0
    0.4827    1.9964    1.6328 S   0  0  0  0  0  0  0  0  0  0  0  0
   -2.3632    5.4662   -1.2955 C   0  0  0  0  0  0  0  0  0  0  0  0
   -2.3309    6.7044   -0.6608 C   0  0  0  0  0  0  0  0  0  0  0  0
   -2.5786    7.8823   -1.3467 C   0  0  0  0  0  0  0  0  0  0  0  0
   -2.8395    7.8874   -2.7111 C   0  0  0  0  0  0  0  0  0  0  0  0
   -3.0734    6.6249   -3.3356 C   0  0  0  0  0  0  0  0  0  0  0  0
   -3.4474    6.5670   -4.6176 N   0  0  0  0  0  0  0  0  0  0  0  0
   -3.6521    5.4069   -5.1995 C   0  0  0  0  0  0  0  0  0  0  0  0
   -3.8550    5.4613   -6.6482 C   0  0  0  0  0  0  0  0  0  0  0  0
   -3.2994    4.5015   -7.4914 C   0  0  0  0  0  0  0  0  0  0  0  0
   -3.4207    4.6330   -8.8613 C   0  0  0  0  0  0  0  0  0  0  0  0
   -4.0914    5.7165   -9.4045 C   0  0  0  0  0  0  0  0  0  0  0  0
   -4.6375    6.6797   -8.5720 C   0  0  0  0  0  0  0  0  0  0  0  0
   -4.5155    6.5565   -7.2026 C   0  0  0  0  0  0  0  0  0  0  0  0
   -3.6117    4.2058   -4.4225 C   0  0  0  0  0  0  0  0  0  0  0  0
   -3.2056    4.2485   -3.1736 N   0  0  0  0  0  0  0  0  0  0  0  0
   -2.8924    5.4215   -2.6141 C   0  0  0  0  0  0  0  0  0  0  0  0
   -4.0617    2.9087   -4.9358 C   0  0  0  0  0  0  0  0  0  0  0  0
   -5.1816    2.8113   -5.7600 C   0  0  0  0  0  0  0  0  0  0  0  0
   -5.5782    1.5809   -6.2471 C   0  0  0  0  0  0  0  0  0  0  0  0
   -4.8631    0.4380   -5.9228 C   0  0  0  0  0  0  0  0  0  0  0  0
   -3.7655    0.5260   -5.0822 C   0  0  0  0  0  0  0  0  0  0  0  0
   -3.3727    1.7517   -4.5804 C   0  0  0  0  0  0  0  0  0  0  0  0
   -2.8615    9.0540   -3.5389 C   0  0  0  0  0  0  0  0  0  0  0  0
   -2.5326    9.0739   -4.8697 C   0  0  0  0  0  0  0  0  0  0  0  0
   -1.8419    8.0758   -5.5757 C   0  0  0  0  0  0  0  0  0  0  0  0
   -1.1263    7.3441   -6.0996 N   0  0  0  0  0  0  0  0  0  0  0  0
   -2.8431   10.3850   -5.3857 C   0  0  0  0  0  0  0  0  0  0  0  0
   -2.7506   10.8180   -6.6811 C   0  0  0  0  0  0  0  0  0  0  0  0
   -3.1134   12.1311   -7.0400 C   0  0  0  0  0  0  0  0  0  0  0  0
   -3.4067   13.1986   -7.3407 N   0  0  0  0  0  0  0  0  0  0  0  0
   -2.3443    9.9754   -7.7315 C   0  0  0  0  0  0  0  0  0  0  0  0
   -2.0529    9.3242   -8.6305 N   0  0  0  0  0  0  0  0  0  0  0  0
   -3.3111   11.1635   -4.4034 O   0  0  0  0  0  0  0  0  0  0  0  0
   -3.3127   10.4447   -3.1569 C   0  0  0  0  0  0  0  0  0  0  0  0
   -2.3356   11.1740   -2.2264 C   0  0  0  0  0  0  0  0  0  0  0  0
   -4.7358   10.4523   -2.5977 C   0  0  0  0  0  0  0  0  0  0  0  0
    3.9317   -6.0030    1.9906 H   0  0  0  0  0  0  0  0  0  0  0  0
    3.1494  -10.1206   -1.0290 H   0  0  0  0  0  0  0  0  0  0  0  0
   -1.3833   -9.0756    0.9816 H   0  0  0  0  0  0  0  0  0  0  0  0
   -1.5989  -11.8136   -1.1128 H   0  0  0  0  0  0  0  0  0  0  0  0
   -2.7840  -10.1606   -2.5504 H   0  0  0  0  0  0  0  0  0  0  0  0
   -1.3053   -7.9975   -2.5632 H   0  0  0  0  0  0  0  0  0  0  0  0
    1.0414   -8.6053   -3.6363 H   0  0  0  0  0  0  0  0  0  0  0  0
    1.0264  -11.1468   -4.2643 H   0  0  0  0  0  0  0  0  0  0  0  0
   -1.5168  -10.6645   -4.8209 H   0  0  0  0  0  0  0  0  0  0  0  0
   -1.4373  -12.1254   -3.8044 H   0  0  0  0  0  0  0  0  0  0  0  0
    0.7038  -12.3923   -2.1299 H   0  0  0  0  0  0  0  0  0  0  0  0
    6.1378   -1.6758    2.9930 H   0  0  0  0  0  0  0  0  0  0  0  0
    7.0216    0.1787    1.6838 H   0  0  0  0  0  0  0  0  0  0  0  0
    7.0494    2.3723    0.8400 H   0  0  0  0  0  0  0  0  0  0  0  0
    8.3732    1.3511    0.1853 H   0  0  0  0  0  0  0  0  0  0  0  0
    7.8701    2.8243   -0.6703 H   0  0  0  0  0  0  0  0  0  0  0  0
    4.4511   -0.8847   -1.5670 H   0  0  0  0  0  0  0  0  0  0  0  0
    3.5702   -2.7688   -0.2389 H   0  0  0  0  0  0  0  0  0  0  0  0
    6.6958   -4.1727    1.5339 H   0  0  0  0  0  0  0  0  0  0  0  0
    8.2491   -5.5094    2.9011 H   0  0  0  0  0  0  0  0  0  0  0  0
    7.8430   -7.9662    7.3629 H   0  0  0  0  0  0  0  0  0  0  0  0
    6.9208   -6.4589    7.5417 H   0  0  0  0  0  0  0  0  0  0  0  0
    6.2836   -7.7939    6.5259 H   0  0  0  0  0  0  0  0  0  0  0  0
    5.3387   -5.6651    6.0344 H   0  0  0  0  0  0  0  0  0  0  0  0
    3.8130   -4.3399    4.6906 H   0  0  0  0  0  0  0  0  0  0  0  0
   -1.0425    0.3985    3.7199 H   0  0  0  0  0  0  0  0  0  0  0  0
   -2.6571    2.2056    4.0718 H   0  0  0  0  0  0  0  0  0  0  0  0
   -7.2999    0.9877    4.0485 H   0  0  0  0  0  0  0  0  0  0  0  0
   -7.1301    1.4721    2.3294 H   0  0  0  0  0  0  0  0  0  0  0  0
   -7.7411    2.6301    3.5314 H   0  0  0  0  0  0  0  0  0  0  0  0
   -5.8234   -0.3817    2.8152 H   0  0  0  0  0  0  0  0  0  0  0  0
   -4.2109   -2.1481    2.4004 H   0  0  0  0  0  0  0  0  0  0  0  0
   -3.0429   -4.2644    2.0876 H   0  0  0  0  0  0  0  0  0  0  0  0
   -3.5065   -6.1632    3.5967 H   0  0  0  0  0  0  0  0  0  0  0  0
   -0.5804   -6.5434    7.1503 H   0  0  0  0  0  0  0  0  0  0  0  0
   -1.6517   -7.6069    8.0945 H   0  0  0  0  0  0  0  0  0  0  0  0
   -1.8212   -5.8461    8.2514 H   0  0  0  0  0  0  0  0  0  0  0  0
   -1.2117   -4.2749    6.6703 H   0  0  0  0  0  0  0  0  0  0  0  0
   -0.7855   -2.3842    5.1840 H   0  0  0  0  0  0  0  0  0  0  0  0
   -3.2005   -2.8160    0.0909 H   0  0  0  0  0  0  0  0  0  0  0  0
   -2.1474   -5.0396   -0.1666 H   0  0  0  0  0  0  0  0  0  0  0  0
    2.5471   -6.6773   -1.3589 H   0  0  0  0  0  0  0  0  0  0  0  0
    2.6609   -5.1215   -0.5159 H   0  0  0  0  0  0  0  0  0  0  0  0
    2.1955   -5.1795   -2.2505 H   0  0  0  0  0  0  0  0  0  0  0  0
    1.5229   -3.1525   -1.2670 H   0  0  0  0  0  0  0  0  0  0  0  0
    0.4861   -0.9697   -1.0148 H   0  0  0  0  0  0  0  0  0  0  0  0
   -3.8191    1.1353    0.8875 H   0  0  0  0  0  0  0  0  0  0  0  0
   -6.0687    1.6021    0.0203 H   0  0  0  0  0  0  0  0  0  0  0  0
   -8.7325    0.0366   -4.0648 H   0  0  0  0  0  0  0  0  0  0  0  0
   -7.7158   -1.3097   -3.5082 H   0  0  0  0  0  0  0  0  0  0  0  0
   -6.9871    0.0630   -4.4109 H   0  0  0  0  0  0  0  0  0  0  0  0
   -5.4089   -1.1699   -3.1650 H   0  0  0  0  0  0  0  0  0  0  0  0
   -3.1641   -1.5941   -2.3332 H   0  0  0  0  0  0  0  0  0  0  0  0
    0.4713    7.7720    0.9601 H   0  0  0  0  0  0  0  0  0  0  0  0
    0.8088    9.5013   -0.7599 H   0  0  0  0  0  0  0  0  0  0  0  0
    0.9296    8.0403   -5.5366 H   0  0  0  0  0  0  0  0  0  0  0  0
    1.9743    9.4729   -5.6521 H   0  0  0  0  0  0  0  0  0  0  0  0
    2.5153    8.0770   -4.6879 H   0  0  0  0  0  0  0  0  0  0  0  0
    0.7421    6.4955   -3.7981 H   0  0  0  0  0  0  0  0  0  0  0  0
    0.4624    4.7775   -2.0921 H   0  0  0  0  0  0  0  0  0  0  0  0
   -1.1235    4.4828    2.7573 H   0  0  0  0  0  0  0  0  0  0  0  0
   -0.1585    4.4910    4.9910 H   0  0  0  0  0  0  0  0  0  0  0  0
    1.8245    4.6442    8.0437 H   0  0  0  0  0  0  0  0  0  0  0  0
    1.0805    3.6243    6.7923 H   0  0  0  0  0  0  0  0  0  0  0  0
    0.4620    5.2811    7.0985 H   0  0  0  0  0  0  0  0  0  0  0  0
    3.5154    5.9983    3.3995 H   0  0  0  0  0  0  0  0  0  0  0  0
    2.5448    5.9619    1.1342 H   0  0  0  0  0  0  0  0  0  0  0  0
   -2.0797    6.7517    0.3872 H   0  0  0  0  0  0  0  0  0  0  0  0
   -2.4683    8.8153   -0.8190 H   0  0  0  0  0  0  0  0  0  0  0  0
   -2.7469    3.6726   -7.0745 H   0  0  0  0  0  0  0  0  0  0  0  0
   -2.9783    3.8911   -9.5095 H   0  0  0  0  0  0  0  0  0  0  0  0
   -4.1776    5.8176  -10.4757 H   0  0  0  0  0  0  0  0  0  0  0  0
   -5.1467    7.5333   -8.9931 H   0  0  0  0  0  0  0  0  0  0  0  0
   -4.9312    7.3033   -6.5424 H   0  0  0  0  0  0  0  0  0  0  0  0
   -5.7453    3.6975   -6.0106 H   0  0  0  0  0  0  0  0  0  0  0  0
   -6.4462    1.5133   -6.8867 H   0  0  0  0  0  0  0  0  0  0  0  0
   -5.1637   -0.5195   -6.3245 H   0  0  0  0  0  0  0  0  0  0  0  0
   -3.2113   -0.3628   -4.8204 H   0  0  0  0  0  0  0  0  0  0  0  0
   -2.5219    1.8299   -3.9222 H   0  0  0  0  0  0  0  0  0  0  0  0
   -2.5145   12.2427   -2.3181 H   0  0  0  0  0  0  0  0  0  0  0  0
   -1.3074   10.9642   -2.5152 H   0  0  0  0  0  0  0  0  0  0  0  0
   -2.4873   10.8828   -1.1924 H   0  0  0  0  0  0  0  0  0  0  0  0
   -5.4230   10.0179   -3.3209 H   0  0  0  0  0  0  0  0  0  0  0  0
   -4.7764    9.8713   -1.6807 H   0  0  0  0  0  0  0  0  0  0  0  0
   -5.0418   11.4752   -2.3959 H   0  0  0  0  0  0  0  0  0  0  0  0
  1  2  2  0  0  0  0
  2  3  1  0  0  0  0
  3  4  2  0  0  0  0
  3  5  1  0  0  0  0
  5  6  2  0  0  0  0
  6  7  1  0  0  0  0
  7  8  2  0  0  0  0
  8  9  1  0  0  0  0
  9 10  2  0  0  0  0
 10 11  1  0  0  0  0
 11 12  2  0  0  0  0
 12 13  1  0  0  0  0
 13 14  3  0  0  0  0
 12 15  1  0  0  0  0
 15 16  3  0  0  0  0
  8 17  1  0  0  0  0
 17 18  1  0  0  0  0
 18 19  1  0  0  0  0
 19 20  2  0  0  0  0
 20 21  1  0  0  0  0
 21 22  1  0  0  0  0
 21 23  1  0  0  0  0
  1 24  1  0  0  0  0
 24 25  2  0  0  0  0
 25 26  1  0  0  0  0
 26 27  1  0  0  0  0
 27 28  2  0  0  0  0
 28 29  1  0  0  0  0
 29 30  2  0  0  0  0
 30 31  1  0  0  0  0
 31 32  1  0  0  0  0
 30 33  1  0  0  0  0
 33 34  2  0  0  0  0
 26 35  1  0  0  0  0
 35 36  2  0  0  0  0
 36 37  1  0  0  0  0
 37 38  2  0  0  0  0
 38 39  1  0  0  0  0
 39 40  1  0  0  0  0
 38 41  1  0  0  0  0
 41 42  2  0  0  0  0
 25 43  1  0  0  0  0
 43 44  1  0  0  0  0
 44 45  1  0  0  0  0
 45 46  2  0  0  0  0
 46 47  1  0  0  0  0
 47 48  1  0  0  0  0
 48 49  2  0  0  0  0
 49 50  1  0  0  0  0
 50 51  2  0  0  0  0
 51 52  1  0  0  0  0
 52 53  1  0  0  0  0
 51 54  1  0  0  0  0
 54 55  2  0  0  0  0
 47 56  1  0  0  0  0
 56 57  2  0  0  0  0
 57 58  1  0  0  0  0
 58 59  2  0  0  0  0
 59 60  1  0  0  0  0
 60 61  1  0  0  0  0
 59 62  1  0  0  0  0
 62 63  2  0  0  0  0
 46 64  1  0  0  0  0
 64 65  1  0  0  0  0
 45 66  1  0  0  0  0
 66 67  2  0  0  0  0
 67 68  1  0  0  0  0
 68 69  1  0  0  0  0
 69 70  2  0  0  0  0
 70 71  1  0  0  0  0
 71 72  2  0  0  0  0
 72 73  1  0  0  0  0
 73 74  1  0  0  0  0
 72 75  1  0  0  0  0
 75 76  2  0  0  0  0
 68 77  1  0  0  0  0
 77 78  2  0  0  0  0
 78 79  1  0  0  0  0
 79 80  2  0  0  0  0
 80 81  1  0  0  0  0
 81 82  1  0  0  0  0
 80 83  1  0  0  0  0
 83 84  2  0  0  0  0
 67 85  1  0  0  0  0
 85 86  1  0  0  0  0
 86 87  1  0  0  0  0
 87 88  2  0  0  0  0
 88 89  1  0  0  0  0
 89 90  1  0  0  0  0
 90 91  2  0  0  0  0
 91 92  1  0  0  0  0
 92 93  2  0  0  0  0
 93 94  1  0  0  0  0
 94 95  1  0  0  0  0
 93 96  1  0  0  0  0
 96 97  2  0  0  0  0
 89 98  1  0  0  0  0
 98 99  2  0  0  0  0
 99100  1  0  0  0  0
100101  2  0  0  0  0
101102  1  0  0  0  0
102103  1  0  0  0  0
101104  1  0  0  0  0
104105  2  0  0  0  0
 88106  1  0  0  0  0
106107  1  0  0  0  0
 87108  1  0  0  0  0
108109  2  0  0  0  0
109110  1  0  0  0  0
110111  2  0  0  0  0
111112  1  0  0  0  0
112113  2  0  0  0  0
113114  1  0  0  0  0
114115  1  0  0  0  0
115116  2  0  0  0  0
116117  1  0  0  0  0
117118  2  0  0  0  0
118119  1  0  0  0  0
119120  2  0  0  0  0
114121  2  0  0  0  0
121122  1  0  0  0  0
122123  2  0  0  0  0
121124  1  0  0  0  0
124125  2  0  0  0  0
125126  1  0  0  0  0
126127  2  0  0  0  0
127128  1  0  0  0  0
128129  2  0  0  0  0
111130  1  0  0  0  0
130131  2  0  0  0  0
131132  1  0  0  0  0
132133  3  0  0  0  0
131134  1  0  0  0  0
134135  2  0  0  0  0
135136  1  0  0  0  0
136137  3  0  0  0  0
135138  1  0  0  0  0
138139  3  0  0  0  0
134140  1  0  0  0  0
140141  1  0  0  0  0
141142  1  0  0  0  0
141143  1  0  0  0  0
 11  2  1  0  0  0  0
 23 17  1  0  0  0  0
 65 24  1  0  0  0  0
107 66  1  0  0  0  0
123108  1  0  0  0  0
129124  1  0  0  0  0
141130  1  0  0  0  0
 10  5  1  0  0  0  0
 22 18  1  0  0  0  0
 34 27  1  0  0  0  0
 42 35  1  0  0  0  0
 64 43  2  0  0  0  0
 76 69  1  0  0  0  0
 84 77  1  0  0  0  0
106 85  2  0  0  0  0
123112  1  0  0  0  0
 23  7  1  0  0  0  0
 55 48  1  0  0  0  0
 63 56  1  0  0  0  0
 97 90  1  0  0  0  0
105 98  1  0  0  0  0
120115  1  0  0  0  0
  1144  1  0  0  0  0
  6145  1  0  0  0  0
  9146  1  0  0  0  0
 17147  1  0  0  0  0
 18148  1  0  0  0  0
 19149  1  0  0  0  0
 20150  1  0  0  0  0
 21151  1  0  0  0  0
 22152  1  0  0  0  0
 22153  1  0  0  0  0
 23154  1  0  0  0  0
 28155  1  0  0  0  0
 29156  1  0  0  0  0
 32157  1  0  0  0  0
 32158  1  0  0  0  0
 32159  1  0  0  0  0
 33160  1  0  0  0  0
 34161  1  0  0  0  0
 36162  1  0  0  0  0
 37163  1  0  0  0  0
 40164  1  0  0  0  0
 40165  1  0  0  0  0
 40166  1  0  0  0  0
 41167  1  0  0  0  0
 42168  1  0  0  0  0
 49169  1  0  0  0  0
 50170  1  0  0  0  0
 53171  1  0  0  0  0
 53172  1  0  0  0  0
 53173  1  0  0  0  0
 54174  1  0  0  0  0
 55175  1  0  0  0  0
 57176  1  0  0  0  0
 58177  1  0  0  0  0
 61178  1  0  0  0  0
 61179  1  0  0  0  0
 61180  1  0  0  0  0
 62181  1  0  0  0  0
 63182  1  0  0  0  0
 70183  1  0  0  0  0
 71184  1  0  0  0  0
 74185  1  0  0  0  0
 74186  1  0  0  0  0
 74187  1  0  0  0  0
 75188  1  0  0  0  0
 76189  1  0  0  0  0
 78190  1  0  0  0  0
 79191  1  0  0  0  0
 82192  1  0  0  0  0
 82193  1  0  0  0  0
 82194  1  0  0  0  0
 83195  1  0  0  0  0
 84196  1  0  0  0  0
 91197  1  0  0  0  0
 92198  1  0  0  0  0
 95199  1  0  0  0  0
 95200  1  0  0  0  0
 95201  1  0  0  0  0
 96202  1  0  0  0  0
 97203  1  0  0  0  0
 99204  1  0  0  0  0
100205  1  0  0  0  0
103206  1  0  0  0  0
103207  1  0  0  0  0
103208  1  0  0  0  0
104209  1  0  0  0  0
105210  1  0  0  0  0
109211  1  0  0  0  0
110212  1  0  0  0  0
116213  1  0  0  0  0
117214  1  0  0  0  0
118215  1  0  0  0  0
119216  1  0  0  0  0
120217  1  0  0  0  0
125218  1  0  0  0  0
126219  1  0  0  0  0
127220  1  0  0  0  0
128221  1  0  0  0  0
129222  1  0  0  0  0
142223  1  0  0  0  0
142224  1  0  0  0  0
142225  1  0  0  0  0
143226  1  0  0  0  0
143227  1  0  0  0  0
143228  1  0  0  0  0
M  END
