
  xtb     02042217543D
 energy: -347.446760999868 gnorm: 0.000923879101 xtb: 6.4.1 (unknown)
209231  0     0  0            999 V2000
    9.3992   -1.6126    1.3184 C   0  0  0  0  0  0  0  0  0  0  0  0
    9.1915   -1.3255    2.6198 C   0  0  0  0  0  0  0  0  0  0  0  0
    7.8891   -0.8564    3.1878 C   0  0  0  0  0  0  0  0  0  0  0  0
    6.8906   -0.5339    2.5801 O   0  0  0  0  0  0  0  0  0  0  0  0
    8.0874   -0.7852    4.6390 C   0  0  0  0  0  0  0  0  0  0  0  0
    7.1275   -0.4314    5.5867 C   0  0  0  0  0  0  0  0  0  0  0  0
    7.5808   -0.4822    6.8812 C   0  0  0  0  0  0  0  0  0  0  0  0
    8.8919   -0.8580    7.2123 C   0  0  0  0  0  0  0  0  0  0  0  0
    9.8549   -1.1813    6.2867 C   0  0  0  0  0  0  0  0  0  0  0  0
    9.4187   -1.1296    4.9568 C   0  0  0  0  0  0  0  0  0  0  0  0
   10.1515   -1.3707    3.7194 C   0  0  0  0  0  0  0  0  0  0  0  0
   11.5004   -1.5619    3.6062 C   0  0  0  0  0  0  0  0  0  0  0  0
   12.3937   -1.6133    4.6985 C   0  0  0  0  0  0  0  0  0  0  0  0
   13.1732   -1.6705    5.5387 N   0  0  0  0  0  0  0  0  0  0  0  0
   12.2005   -1.6845    2.3861 C   0  0  0  0  0  0  0  0  0  0  0  0
   12.8428   -1.7675    1.4382 N   0  0  0  0  0  0  0  0  0  0  0  0
    8.6405   -0.7168    8.6930 C   0  0  0  0  0  0  0  0  0  0  0  0
    8.4142   -2.0255    9.4809 C   0  0  0  0  0  0  0  0  0  0  0  0
    7.7365   -1.5674   10.7525 C   0  0  0  0  0  0  0  0  0  0  0  0
    6.5013   -1.1962   10.4405 C   0  0  0  0  0  0  0  0  0  0  0  0
    6.3229   -1.3980    8.9533 C   0  0  0  0  0  0  0  0  0  0  0  0
    7.2112   -2.6315    8.7459 C   0  0  0  0  0  0  0  0  0  0  0  0
    7.1852   -0.2853    8.3217 C   0  0  0  0  0  0  0  0  0  0  0  0
    8.3144   -1.6272    0.3527 C   0  0  0  0  0  0  0  0  0  0  0  0
    7.1309   -2.3053    0.5716 C   0  0  0  0  0  0  0  0  0  0  0  0
    7.0365   -3.1579    1.6083 F   0  0  0  0  0  0  0  0  0  0  0  0
    6.0039   -2.1249   -0.2199 C   0  0  0  0  0  0  0  0  0  0  0  0
    6.0289   -1.2314   -1.2707 C   0  0  0  0  0  0  0  0  0  0  0  0
    7.2590   -0.6492   -1.6426 C   0  0  0  0  0  0  0  0  0  0  0  0
    7.3357    0.1339   -2.7454 N   0  0  0  0  0  0  0  0  0  0  0  0
    8.4778    0.6730   -3.0288 C   0  0  0  0  0  0  0  0  0  0  0  0
    9.6349    0.4733   -2.2119 C   0  0  0  0  0  0  0  0  0  0  0  0
   10.7659    1.0455   -2.5898 O   0  0  0  0  0  0  0  0  0  0  0  0
   11.9230    0.8099   -1.7836 C   0  0  0  0  0  0  0  0  0  0  0  0
   11.8838    1.5709   -0.4673 C   0  0  0  0  0  0  0  0  0  0  0  0
    9.5830   -0.2775   -1.1389 N   0  0  0  0  0  0  0  0  0  0  0  0
    8.4072   -0.8602   -0.8342 C   0  0  0  0  0  0  0  0  0  0  0  0
    4.7402   -0.7605   -1.7852 C   0  0  0  0  0  0  0  0  0  0  0  0
    4.0645    0.2492   -1.1426 C   0  0  0  0  0  0  0  0  0  0  0  0
    4.6239    1.0372   -0.1254 N   0  0  0  0  0  0  0  0  0  0  0  0
    4.2482    0.8161    1.1970 C   0  0  0  0  0  0  0  0  0  0  0  0
    3.5847   -0.3499    1.5704 C   0  0  0  0  0  0  0  0  0  0  0  0
    3.2626   -0.5934    2.8911 C   0  0  0  0  0  0  0  0  0  0  0  0
    3.5964    0.3298    3.8686 C   0  0  0  0  0  0  0  0  0  0  0  0
    3.2825    0.0897    5.5964 S   0  0  0  0  0  0  0  0  0  0  0  0
    3.0190   -1.7038    5.7232 C   0  0  0  0  0  0  0  0  0  0  0  0
    4.1968    1.5294    3.4957 C   0  0  0  0  0  0  0  0  0  0  0  0
    4.5086    1.7753    2.1784 C   0  0  0  0  0  0  0  0  0  0  0  0
    5.7534    1.7965   -0.4632 C   0  0  0  0  0  0  0  0  0  0  0  0
    6.8879    1.8221    0.3486 C   0  0  0  0  0  0  0  0  0  0  0  0
    7.9852    2.5659   -0.0196 C   0  0  0  0  0  0  0  0  0  0  0  0
    7.9813    3.2978   -1.2063 C   0  0  0  0  0  0  0  0  0  0  0  0
    9.4472    4.2157   -1.5666 S   0  0  0  0  0  0  0  0  0  0  0  0
    9.1907    4.8075   -3.2620 C   0  0  0  0  0  0  0  0  0  0  0  0
    6.8586    3.2698   -2.0197 C   0  0  0  0  0  0  0  0  0  0  0  0
    5.7575    2.5208   -1.6511 C   0  0  0  0  0  0  0  0  0  0  0  0
    2.7339    0.3461   -1.6048 C   0  0  0  0  0  0  0  0  0  0  0  0
    1.3904    1.3227   -1.1640 S   0  0  0  0  0  0  0  0  0  0  0  0
    0.3509    0.4445   -2.2929 C   0  0  0  0  0  0  0  0  0  0  0  0
    1.0566   -0.5067   -3.0228 C   0  0  0  0  0  0  0  0  0  0  0  0
    0.5595   -1.3216   -4.0214 N   0  0  0  0  0  0  0  0  0  0  0  0
   -0.3459   -0.8617   -4.9827 C   0  0  0  0  0  0  0  0  0  0  0  0
   -0.3667    0.4728   -5.3778 C   0  0  0  0  0  0  0  0  0  0  0  0
   -1.2931    0.9222   -6.2993 C   0  0  0  0  0  0  0  0  0  0  0  0
   -2.2076    0.0386   -6.8550 C   0  0  0  0  0  0  0  0  0  0  0  0
   -3.4537    0.4933   -8.0198 S   0  0  0  0  0  0  0  0  0  0  0  0
   -3.2375    2.2834   -8.2221 C   0  0  0  0  0  0  0  0  0  0  0  0
   -2.1708   -1.3050   -6.4842 C   0  0  0  0  0  0  0  0  0  0  0  0
   -1.2582   -1.7499   -5.5582 C   0  0  0  0  0  0  0  0  0  0  0  0
    1.0882   -2.6199   -4.1285 C   0  0  0  0  0  0  0  0  0  0  0  0
    1.2694   -3.3935   -2.9862 C   0  0  0  0  0  0  0  0  0  0  0  0
    1.8196   -4.6580   -3.0685 C   0  0  0  0  0  0  0  0  0  0  0  0
    2.1924   -5.1720   -4.3025 C   0  0  0  0  0  0  0  0  0  0  0  0
    2.9082   -6.7669   -4.5371 S   0  0  0  0  0  0  0  0  0  0  0  0
    3.2224   -7.3564   -2.8489 C   0  0  0  0  0  0  0  0  0  0  0  0
    1.9943   -4.4069   -5.4515 C   0  0  0  0  0  0  0  0  0  0  0  0
    1.4526   -3.1450   -5.3681 C   0  0  0  0  0  0  0  0  0  0  0  0
    2.4120   -0.5673   -2.5931 C   0  0  0  0  0  0  0  0  0  0  0  0
    3.7808   -1.5599   -2.9962 S   0  0  0  0  0  0  0  0  0  0  0  0
   -1.0362    0.7465   -2.1946 C   0  0  0  0  0  0  0  0  0  0  0  0
   -1.5452    1.7457   -1.4060 C   0  0  0  0  0  0  0  0  0  0  0  0
   -2.9517    1.7516   -1.3102 C   0  0  0  0  0  0  0  0  0  0  0  0
   -3.7650    2.5896   -0.5256 C   0  0  0  0  0  0  0  0  0  0  0  0
   -3.1751    3.5770    0.3898 C   0  0  0  0  0  0  0  0  0  0  0  0
   -3.6415    4.8867    0.4286 C   0  0  0  0  0  0  0  0  0  0  0  0
   -3.0749    5.7964    1.3053 C   0  0  0  0  0  0  0  0  0  0  0  0
   -2.0316    5.4213    2.1271 C   0  0  0  0  0  0  0  0  0  0  0  0
   -1.5511    4.1140    2.0885 C   0  0  0  0  0  0  0  0  0  0  0  0
   -0.1983    3.7391    3.1673 S   0  0  0  0  0  0  0  0  0  0  0  0
    0.5686    2.2405    2.4542 C   0  0  0  0  0  0  0  0  0  0  0  0
    0.0408    0.9568    3.0660 C   0  0  0  0  0  0  0  0  0  0  0  0
   -2.1384    3.1919    1.2385 C   0  0  0  0  0  0  0  0  0  0  0  0
   -5.1333    2.4010   -0.6405 C   0  0  0  0  0  0  0  0  0  0  0  0
   -5.7138    1.4134   -1.4855 C   0  0  0  0  0  0  0  0  0  0  0  0
   -4.8935    0.5645   -2.2541 C   0  0  0  0  0  0  0  0  0  0  0  0
   -5.4451   -0.4569   -3.1570 C   0  0  0  0  0  0  0  0  0  0  0  0
   -5.1035   -0.4275   -4.5048 C   0  0  0  0  0  0  0  0  0  0  0  0
   -5.6237   -1.3742   -5.3696 C   0  0  0  0  0  0  0  0  0  0  0  0
   -6.4460   -2.3732   -4.8912 C   0  0  0  0  0  0  0  0  0  0  0  0
   -6.7714   -2.4243   -3.5366 C   0  0  0  0  0  0  0  0  0  0  0  0
   -7.7925   -3.7795   -3.0437 S   0  0  0  0  0  0  0  0  0  0  0  0
   -7.6488   -3.8512   -1.2220 C   0  0  0  0  0  0  0  0  0  0  0  0
   -8.7477   -3.0757   -0.5205 C   0  0  0  0  0  0  0  0  0  0  0  0
   -6.2926   -1.4502   -2.6750 C   0  0  0  0  0  0  0  0  0  0  0  0
   -3.5311    0.7500   -2.1311 C   0  0  0  0  0  0  0  0  0  0  0  0
   -2.3084   -0.2235   -2.9131 S   0  0  0  0  0  0  0  0  0  0  0  0
   -7.1206    1.4146   -1.4284 C   0  0  0  0  0  0  0  0  0  0  0  0
   -7.6382    2.3340   -0.5492 C   0  0  0  0  0  0  0  0  0  0  0  0
   -6.3606    3.2794    0.2217 S   0  0  0  0  0  0  0  0  0  0  0  0
   -8.9643    2.6702   -0.1946 C   0  0  0  0  0  0  0  0  0  0  0  0
  -10.1394    2.0115   -0.4189 C   0  0  0  0  0  0  0  0  0  0  0  0
  -10.3380    0.6428   -0.9463 C   0  0  0  0  0  0  0  0  0  0  0  0
   -9.5361   -0.0828   -1.5007 O   0  0  0  0  0  0  0  0  0  0  0  0
  -11.7340    0.2895   -0.6365 C   0  0  0  0  0  0  0  0  0  0  0  0
  -12.3494   -0.9397   -0.8672 C   0  0  0  0  0  0  0  0  0  0  0  0
  -13.6572   -0.9950   -0.4512 C   0  0  0  0  0  0  0  0  0  0  0  0
  -14.3075    0.0924    0.1489 C   0  0  0  0  0  0  0  0  0  0  0  0
  -13.7158    1.3128    0.3717 C   0  0  0  0  0  0  0  0  0  0  0  0
  -12.3827    1.3905   -0.0444 C   0  0  0  0  0  0  0  0  0  0  0  0
  -11.4377    2.5005    0.0207 C   0  0  0  0  0  0  0  0  0  0  0  0
  -11.7507    3.7919    0.3534 C   0  0  0  0  0  0  0  0  0  0  0  0
  -13.0348    4.2220    0.7491 C   0  0  0  0  0  0  0  0  0  0  0  0
  -14.0502    4.6400    1.0834 N   0  0  0  0  0  0  0  0  0  0  0  0
  -10.8645    4.8897    0.2988 C   0  0  0  0  0  0  0  0  0  0  0  0
  -10.2226    5.8411    0.2576 N   0  0  0  0  0  0  0  0  0  0  0  0
  -15.5942   -0.6739    0.3291 C   0  0  0  0  0  0  0  0  0  0  0  0
  -15.8908   -1.1977    1.7504 C   0  0  0  0  0  0  0  0  0  0  0  0
  -16.9203   -2.2821    1.5286 C   0  0  0  0  0  0  0  0  0  0  0  0
  -16.3063   -3.3110    0.9585 C   0  0  0  0  0  0  0  0  0  0  0  0
  -14.8512   -2.9393    0.7857 C   0  0  0  0  0  0  0  0  0  0  0  0
  -14.6539   -2.0617    2.0285 C   0  0  0  0  0  0  0  0  0  0  0  0
  -14.8702   -1.8851   -0.3417 C   0  0  0  0  0  0  0  0  0  0  0  0
   10.3899   -1.7994    0.9291 H   0  0  0  0  0  0  0  0  0  0  0  0
    6.1310   -0.1466    5.2884 H   0  0  0  0  0  0  0  0  0  0  0  0
   10.8618   -1.4528    6.5567 H   0  0  0  0  0  0  0  0  0  0  0  0
    9.2794   -0.0102    9.2185 H   0  0  0  0  0  0  0  0  0  0  0  0
    9.2981   -2.6471    9.5940 H   0  0  0  0  0  0  0  0  0  0  0  0
    8.2274   -1.5100   11.7060 H   0  0  0  0  0  0  0  0  0  0  0  0
    5.7542   -0.7662   11.0812 H   0  0  0  0  0  0  0  0  0  0  0  0
    5.3023   -1.4422    8.5835 H   0  0  0  0  0  0  0  0  0  0  0  0
    6.8205   -3.5111    9.2551 H   0  0  0  0  0  0  0  0  0  0  0  0
    7.4026   -2.8708    7.7013 H   0  0  0  0  0  0  0  0  0  0  0  0
    6.8513    0.7152    8.5879 H   0  0  0  0  0  0  0  0  0  0  0  0
    5.0923   -2.6296    0.0583 H   0  0  0  0  0  0  0  0  0  0  0  0
    8.5425    1.2748   -3.9237 H   0  0  0  0  0  0  0  0  0  0  0  0
   12.7551    1.1479   -2.4041 H   0  0  0  0  0  0  0  0  0  0  0  0
   12.0112   -0.2641   -1.5919 H   0  0  0  0  0  0  0  0  0  0  0  0
   12.8220    1.4205    0.0585 H   0  0  0  0  0  0  0  0  0  0  0  0
   11.7356    2.6326   -0.6483 H   0  0  0  0  0  0  0  0  0  0  0  0
   11.0712    1.1993    0.1511 H   0  0  0  0  0  0  0  0  0  0  0  0
    3.3284   -1.0866    0.8236 H   0  0  0  0  0  0  0  0  0  0  0  0
    2.7660   -1.5171    3.1444 H   0  0  0  0  0  0  0  0  0  0  0  0
    3.0256   -1.9315    6.7846 H   0  0  0  0  0  0  0  0  0  0  0  0
    3.8298   -2.2266    5.2242 H   0  0  0  0  0  0  0  0  0  0  0  0
    2.0560   -1.9752    5.2999 H   0  0  0  0  0  0  0  0  0  0  0  0
    4.4197    2.2654    4.2538 H   0  0  0  0  0  0  0  0  0  0  0  0
    4.9717    2.7103    1.9031 H   0  0  0  0  0  0  0  0  0  0  0  0
    6.9053    1.2329    1.2521 H   0  0  0  0  0  0  0  0  0  0  0  0
    8.8667    2.5825    0.6039 H   0  0  0  0  0  0  0  0  0  0  0  0
   10.1160    5.3012   -3.5419 H   0  0  0  0  0  0  0  0  0  0  0  0
    8.3710    5.5195   -3.2918 H   0  0  0  0  0  0  0  0  0  0  0  0
    9.0079    3.9642   -3.9212 H   0  0  0  0  0  0  0  0  0  0  0  0
    6.8243    3.8248   -2.9432 H   0  0  0  0  0  0  0  0  0  0  0  0
    4.8901    2.4977   -2.2933 H   0  0  0  0  0  0  0  0  0  0  0  0
    0.3422    1.1699   -4.9559 H   0  0  0  0  0  0  0  0  0  0  0  0
   -1.2850    1.9648   -6.5741 H   0  0  0  0  0  0  0  0  0  0  0  0
   -2.2578    2.4957   -8.6404 H   0  0  0  0  0  0  0  0  0  0  0  0
   -4.0098    2.5933   -8.9192 H   0  0  0  0  0  0  0  0  0  0  0  0
   -3.3791    2.7853   -7.2693 H   0  0  0  0  0  0  0  0  0  0  0  0
   -2.8786   -1.9918   -6.9208 H   0  0  0  0  0  0  0  0  0  0  0  0
   -1.2562   -2.7862   -5.2580 H   0  0  0  0  0  0  0  0  0  0  0  0
    0.9720   -3.0001   -2.0249 H   0  0  0  0  0  0  0  0  0  0  0  0
    1.9439   -5.2315   -2.1643 H   0  0  0  0  0  0  0  0  0  0  0  0
    2.2840   -7.5253   -2.3287 H   0  0  0  0  0  0  0  0  0  0  0  0
    3.8467   -6.6418   -2.3207 H   0  0  0  0  0  0  0  0  0  0  0  0
    3.7526   -8.2968   -2.9624 H   0  0  0  0  0  0  0  0  0  0  0  0
    2.2839   -4.8140   -6.4079 H   0  0  0  0  0  0  0  0  0  0  0  0
    1.3159   -2.5527   -6.2601 H   0  0  0  0  0  0  0  0  0  0  0  0
   -0.9173    2.4693   -0.9177 H   0  0  0  0  0  0  0  0  0  0  0  0
   -4.4314    5.1977   -0.2375 H   0  0  0  0  0  0  0  0  0  0  0  0
   -3.4424    6.8109    1.3357 H   0  0  0  0  0  0  0  0  0  0  0  0
   -1.5747    6.1283    2.8019 H   0  0  0  0  0  0  0  0  0  0  0  0
    0.4240    2.2747    1.3757 H   0  0  0  0  0  0  0  0  0  0  0  0
    1.6327    2.3496    2.6657 H   0  0  0  0  0  0  0  0  0  0  0  0
    0.5295    0.1057    2.5948 H   0  0  0  0  0  0  0  0  0  0  0  0
   -1.0348    0.8642    2.9317 H   0  0  0  0  0  0  0  0  0  0  0  0
    0.2548    0.9373    4.1320 H   0  0  0  0  0  0  0  0  0  0  0  0
   -1.8200    2.1617    1.2340 H   0  0  0  0  0  0  0  0  0  0  0  0
   -4.4526    0.3492   -4.8764 H   0  0  0  0  0  0  0  0  0  0  0  0
   -5.3795   -1.3303   -6.4201 H   0  0  0  0  0  0  0  0  0  0  0  0
   -6.8431   -3.1277   -5.5529 H   0  0  0  0  0  0  0  0  0  0  0  0
   -7.7151   -4.9143   -0.9873 H   0  0  0  0  0  0  0  0  0  0  0  0
   -6.6535   -3.4976   -0.9572 H   0  0  0  0  0  0  0  0  0  0  0  0
   -8.7775   -2.0424   -0.8585 H   0  0  0  0  0  0  0  0  0  0  0  0
   -9.7137   -3.5292   -0.7311 H   0  0  0  0  0  0  0  0  0  0  0  0
   -8.5853   -3.0904    0.5564 H   0  0  0  0  0  0  0  0  0  0  0  0
   -6.5504   -1.4493   -1.6277 H   0  0  0  0  0  0  0  0  0  0  0  0
   -7.7323    0.7637   -2.0240 H   0  0  0  0  0  0  0  0  0  0  0  0
   -9.0281    3.5814    0.3899 H   0  0  0  0  0  0  0  0  0  0  0  0
  -11.8113   -1.7486   -1.3360 H   0  0  0  0  0  0  0  0  0  0  0  0
  -14.2298    2.1392    0.8333 H   0  0  0  0  0  0  0  0  0  0  0  0
  -16.4700   -0.2527   -0.1605 H   0  0  0  0  0  0  0  0  0  0  0  0
  -16.1387   -0.4282    2.4764 H   0  0  0  0  0  0  0  0  0  0  0  0
  -17.9654   -2.1713    1.7505 H   0  0  0  0  0  0  0  0  0  0  0  0
  -16.7359   -4.2313    0.6088 H   0  0  0  0  0  0  0  0  0  0  0  0
  -14.1521   -3.7573    0.6332 H   0  0  0  0  0  0  0  0  0  0  0  0
  -14.7483   -2.6298    2.9526 H   0  0  0  0  0  0  0  0  0  0  0  0
  -13.7172   -1.5072    2.0363 H   0  0  0  0  0  0  0  0  0  0  0  0
  -15.2627   -2.2719   -1.2802 H   0  0  0  0  0  0  0  0  0  0  0  0
  1  2  2  0  0  0  0
  2  3  1  0  0  0  0
  3  4  2  0  0  0  0
  3  5  1  0  0  0  0
  5  6  2  0  0  0  0
  6  7  1  0  0  0  0
  7  8  2  0  0  0  0
  8  9  1  0  0  0  0
  9 10  2  0  0  0  0
 10 11  1  0  0  0  0
 11 12  2  0  0  0  0
 12 13  1  0  0  0  0
 13 14  3  0  0  0  0
 12 15  1  0  0  0  0
 15 16  3  0  0  0  0
  8 17  1  0  0  0  0
 17 18  1  0  0  0  0
 18 19  1  0  0  0  0
 19 20  2  0  0  0  0
 20 21  1  0  0  0  0
 21 22  1  0  0  0  0
 21 23  1  0  0  0  0
  1 24  1  0  0  0  0
 24 25  2  0  0  0  0
 25 26  1  0  0  0  0
 25 27  1  0  0  0  0
 27 28  2  0  0  0  0
 28 29  1  0  0  0  0
 29 30  2  0  0  0  0
 30 31  1  0  0  0  0
 31 32  2  0  0  0  0
 32 33  1  0  0  0  0
 33 34  1  0  0  0  0
 34 35  1  0  0  0  0
 32 36  1  0  0  0  0
 36 37  2  0  0  0  0
 28 38  1  0  0  0  0
 38 39  2  0  0  0  0
 39 40  1  0  0  0  0
 40 41  1  0  0  0  0
 41 42  2  0  0  0  0
 42 43  1  0  0  0  0
 43 44  2  0  0  0  0
 44 45  1  0  0  0  0
 45 46  1  0  0  0  0
 44 47  1  0  0  0  0
 47 48  2  0  0  0  0
 40 49  1  0  0  0  0
 49 50  2  0  0  0  0
 50 51  1  0  0  0  0
 51 52  2  0  0  0  0
 52 53  1  0  0  0  0
 53 54  1  0  0  0  0
 52 55  1  0  0  0  0
 55 56  2  0  0  0  0
 39 57  1  0  0  0  0
 57 58  1  0  0  0  0
 58 59  1  0  0  0  0
 59 60  2  0  0  0  0
 60 61  1  0  0  0  0
 61 62  1  0  0  0  0
 62 63  2  0  0  0  0
 63 64  1  0  0  0  0
 64 65  2  0  0  0  0
 65 66  1  0  0  0  0
 66 67  1  0  0  0  0
 65 68  1  0  0  0  0
 68 69  2  0  0  0  0
 61 70  1  0  0  0  0
 70 71  2  0  0  0  0
 71 72  1  0  0  0  0
 72 73  2  0  0  0  0
 73 74  1  0  0  0  0
 74 75  1  0  0  0  0
 73 76  1  0  0  0  0
 76 77  2  0  0  0  0
 60 78  1  0  0  0  0
 78 79  1  0  0  0  0
 59 80  1  0  0  0  0
 80 81  2  0  0  0  0
 81 82  1  0  0  0  0
 82 83  2  0  0  0  0
 83 84  1  0  0  0  0
 84 85  2  0  0  0  0
 85 86  1  0  0  0  0
 86 87  2  0  0  0  0
 87 88  1  0  0  0  0
 88 89  1  0  0  0  0
 89 90  1  0  0  0  0
 90 91  1  0  0  0  0
 88 92  2  0  0  0  0
 83 93  1  0  0  0  0
 93 94  2  0  0  0  0
 94 95  1  0  0  0  0
 95 96  1  0  0  0  0
 96 97  2  0  0  0  0
 97 98  1  0  0  0  0
 98 99  2  0  0  0  0
 99100  1  0  0  0  0
100101  1  0  0  0  0
101102  1  0  0  0  0
102103  1  0  0  0  0
100104  2  0  0  0  0
 95105  2  0  0  0  0
105106  1  0  0  0  0
 94107  1  0  0  0  0
107108  2  0  0  0  0
108109  1  0  0  0  0
108110  1  0  0  0  0
110111  2  0  0  0  0
111112  1  0  0  0  0
112113  2  0  0  0  0
112114  1  0  0  0  0
114115  2  0  0  0  0
115116  1  0  0  0  0
116117  2  0  0  0  0
117118  1  0  0  0  0
118119  2  0  0  0  0
119120  1  0  0  0  0
120121  2  0  0  0  0
121122  1  0  0  0  0
122123  3  0  0  0  0
121124  1  0  0  0  0
124125  3  0  0  0  0
117126  1  0  0  0  0
126127  1  0  0  0  0
127128  1  0  0  0  0
128129  2  0  0  0  0
129130  1  0  0  0  0
130131  1  0  0  0  0
130132  1  0  0  0  0
 11  2  1  0  0  0  0
 23 17  1  0  0  0  0
 37 24  1  0  0  0  0
 79 38  1  0  0  0  0
106 80  1  0  0  0  0
120111  1  0  0  0  0
132126  1  0  0  0  0
 10  5  1  0  0  0  0
 22 18  1  0  0  0  0
 37 29  1  0  0  0  0
 48 41  1  0  0  0  0
 56 49  1  0  0  0  0
 78 57  2  0  0  0  0
105 82  1  0  0  0  0
119114  1  0  0  0  0
131127  1  0  0  0  0
 23  7  1  0  0  0  0
 69 62  1  0  0  0  0
 77 70  1  0  0  0  0
 92 84  1  0  0  0  0
109 93  1  0  0  0  0
132116  1  0  0  0  0
104 96  1  0  0  0  0
  1133  1  0  0  0  0
  6134  1  0  0  0  0
  9135  1  0  0  0  0
 17136  1  0  0  0  0
 18137  1  0  0  0  0
 19138  1  0  0  0  0
 20139  1  0  0  0  0
 21140  1  0  0  0  0
 22141  1  0  0  0  0
 22142  1  0  0  0  0
 23143  1  0  0  0  0
 27144  1  0  0  0  0
 31145  1  0  0  0  0
 34146  1  0  0  0  0
 34147  1  0  0  0  0
 35148  1  0  0  0  0
 35149  1  0  0  0  0
 35150  1  0  0  0  0
 42151  1  0  0  0  0
 43152  1  0  0  0  0
 46153  1  0  0  0  0
 46154  1  0  0  0  0
 46155  1  0  0  0  0
 47156  1  0  0  0  0
 48157  1  0  0  0  0
 50158  1  0  0  0  0
 51159  1  0  0  0  0
 54160  1  0  0  0  0
 54161  1  0  0  0  0
 54162  1  0  0  0  0
 55163  1  0  0  0  0
 56164  1  0  0  0  0
 63165  1  0  0  0  0
 64166  1  0  0  0  0
 67167  1  0  0  0  0
 67168  1  0  0  0  0
 67169  1  0  0  0  0
 68170  1  0  0  0  0
 69171  1  0  0  0  0
 71172  1  0  0  0  0
 72173  1  0  0  0  0
 75174  1  0  0  0  0
 75175  1  0  0  0  0
 75176  1  0  0  0  0
 76177  1  0  0  0  0
 77178  1  0  0  0  0
 81179  1  0  0  0  0
 85180  1  0  0  0  0
 86181  1  0  0  0  0
 87182  1  0  0  0  0
 90183  1  0  0  0  0
 90184  1  0  0  0  0
 91185  1  0  0  0  0
 91186  1  0  0  0  0
 91187  1  0  0  0  0
 92188  1  0  0  0  0
 97189  1  0  0  0  0
 98190  1  0  0  0  0
 99191  1  0  0  0  0
102192  1  0  0  0  0
102193  1  0  0  0  0
103194  1  0  0  0  0
103195  1  0  0  0  0
103196  1  0  0  0  0
104197  1  0  0  0  0
107198  1  0  0  0  0
110199  1  0  0  0  0
115200  1  0  0  0  0
118201  1  0  0  0  0
126202  1  0  0  0  0
127203  1  0  0  0  0
128204  1  0  0  0  0
129205  1  0  0  0  0
130206  1  0  0  0  0
131207  1  0  0  0  0
131208  1  0  0  0  0
132209  1  0  0  0  0
M  END
