
  xtb     02062213443D
 energy: -282.363666382475 gnorm: 0.000702346054 xtb: 6.4.1 (unknown)
159176  0     0  0            999 V2000
    2.0559    5.4542    3.1118 C   0  0  0  0  0  0  0  0  0  0  0  0
    1.2662    6.5738    3.2411 C   0  0  0  0  0  0  0  0  0  0  0  0
    0.0647    6.8392    2.4316 C   0  0  0  0  0  0  0  0  0  0  0  0
   -0.4011    6.1333    1.5558 O   0  0  0  0  0  0  0  0  0  0  0  0
   -0.3682    8.2040    2.7965 C   0  0  0  0  0  0  0  0  0  0  0  0
   -1.4755    8.8937    2.3121 C   0  0  0  0  0  0  0  0  0  0  0  0
   -1.6392   10.1450    2.8580 C   0  0  0  0  0  0  0  0  0  0  0  0
   -0.7530   10.6850    3.7981 C   0  0  0  0  0  0  0  0  0  0  0  0
    0.3505   10.0198    4.2769 C   0  0  0  0  0  0  0  0  0  0  0  0
    0.5220    8.7378    3.7492 C   0  0  0  0  0  0  0  0  0  0  0  0
    1.5355    7.7313    4.0488 C   0  0  0  0  0  0  0  0  0  0  0  0
    2.4679    7.7962    5.0562 C   0  0  0  0  0  0  0  0  0  0  0  0
    2.6469    8.8978    5.9121 C   0  0  0  0  0  0  0  0  0  0  0  0
    2.8321    9.7456    6.6657 N   0  0  0  0  0  0  0  0  0  0  0  0
    3.2987    6.7215    5.4296 C   0  0  0  0  0  0  0  0  0  0  0  0
    3.9675    5.8754    5.8265 N   0  0  0  0  0  0  0  0  0  0  0  0
   -1.5242   11.9776    3.9038 C   0  0  0  0  0  0  0  0  0  0  0  0
   -2.4011   12.1560    5.1607 C   0  0  0  0  0  0  0  0  0  0  0  0
   -3.3825   13.2364    4.7685 C   0  0  0  0  0  0  0  0  0  0  0  0
   -4.2294   12.7130    3.8913 C   0  0  0  0  0  0  0  0  0  0  0  0
   -3.8324   11.2705    3.6740 C   0  0  0  0  0  0  0  0  0  0  0  0
   -3.3129   10.9260    5.0757 C   0  0  0  0  0  0  0  0  0  0  0  0
   -2.5208   11.3690    2.8657 C   0  0  0  0  0  0  0  0  0  0  0  0
    1.6377    4.1938    2.6721 C   0  0  0  0  0  0  0  0  0  0  0  0
    0.3783    3.5645    2.6718 C   0  0  0  0  0  0  0  0  0  0  0  0
   -0.8090    4.0311    3.1706 N   0  0  0  0  0  0  0  0  0  0  0  0
   -1.9902    3.5244    2.5772 C   0  0  0  0  0  0  0  0  0  0  0  0
   -2.1447    3.5698    1.1926 C   0  0  0  0  0  0  0  0  0  0  0  0
   -3.2573    3.0112    0.6068 C   0  0  0  0  0  0  0  0  0  0  0  0
   -4.2343    2.4012    1.3919 C   0  0  0  0  0  0  0  0  0  0  0  0
   -5.5916    1.6754    0.5291 S   0  0  0  0  0  0  0  0  0  0  0  0
   -6.4975    0.7705    1.8155 C   0  0  0  0  0  0  0  0  0  0  0  0
   -4.1053    2.4003    2.7741 C   0  0  0  0  0  0  0  0  0  0  0  0
   -2.9868    2.9599    3.3628 C   0  0  0  0  0  0  0  0  0  0  0  0
   -0.9352    4.9675    4.1953 C   0  0  0  0  0  0  0  0  0  0  0  0
   -2.0133    5.8593    4.1814 C   0  0  0  0  0  0  0  0  0  0  0  0
   -2.1278    6.8311    5.1461 C   0  0  0  0  0  0  0  0  0  0  0  0
   -1.1711    6.9486    6.1553 C   0  0  0  0  0  0  0  0  0  0  0  0
   -1.3731    8.2979    7.2673 S   0  0  0  0  0  0  0  0  0  0  0  0
   -0.0159    8.1160    8.4558 C   0  0  0  0  0  0  0  0  0  0  0  0
   -0.1327    6.0272    6.2111 C   0  0  0  0  0  0  0  0  0  0  0  0
   -0.0177    5.0491    5.2415 C   0  0  0  0  0  0  0  0  0  0  0  0
    0.4805    2.2634    2.1171 C   0  0  0  0  0  0  0  0  0  0  0  0
   -0.6699    1.0035    1.8173 S   0  0  0  0  0  0  0  0  0  0  0  0
    0.5934   -0.0192    1.1783 C   0  0  0  0  0  0  0  0  0  0  0  0
    1.8347    0.6043    1.1358 C   0  0  0  0  0  0  0  0  0  0  0  0
    2.9548    0.1145    0.4929 N   0  0  0  0  0  0  0  0  0  0  0  0
    4.2236    0.4331    0.9955 C   0  0  0  0  0  0  0  0  0  0  0  0
    5.2809    0.7101    0.1287 C   0  0  0  0  0  0  0  0  0  0  0  0
    6.5134    1.0568    0.6325 C   0  0  0  0  0  0  0  0  0  0  0  0
    6.7187    1.1427    2.0092 C   0  0  0  0  0  0  0  0  0  0  0  0
    8.3335    1.6170    2.5365 S   0  0  0  0  0  0  0  0  0  0  0  0
    8.1357    1.9191    4.3156 C   0  0  0  0  0  0  0  0  0  0  0  0
    5.6746    0.8463    2.8744 C   0  0  0  0  0  0  0  0  0  0  0  0
    4.4394    0.4909    2.3692 C   0  0  0  0  0  0  0  0  0  0  0  0
    2.8246   -0.6578   -0.6713 C   0  0  0  0  0  0  0  0  0  0  0  0
    3.6559   -1.7532   -0.8884 C   0  0  0  0  0  0  0  0  0  0  0  0
    3.4684   -2.5794   -1.9802 C   0  0  0  0  0  0  0  0  0  0  0  0
    2.4372   -2.3281   -2.8748 C   0  0  0  0  0  0  0  0  0  0  0  0
    2.0407   -3.3538   -4.2557 S   0  0  0  0  0  0  0  0  0  0  0  0
    3.2341   -4.7156   -4.1487 C   0  0  0  0  0  0  0  0  0  0  0  0
    1.6364   -1.2008   -2.6914 C   0  0  0  0  0  0  0  0  0  0  0  0
    1.8323   -0.3704   -1.6119 C   0  0  0  0  0  0  0  0  0  0  0  0
    1.7583    1.8918    1.7250 C   0  0  0  0  0  0  0  0  0  0  0  0
    2.9125    3.1253    2.0613 S   0  0  0  0  0  0  0  0  0  0  0  0
    0.2476   -1.2978    0.6231 C   0  0  0  0  0  0  0  0  0  0  0  0
   -0.9089   -1.4689   -0.1651 C   0  0  0  0  0  0  0  0  0  0  0  0
   -1.9326   -0.6402   -0.4082 N   0  0  0  0  0  0  0  0  0  0  0  0
   -2.6649   -1.2786   -1.2756 N   0  0  0  0  0  0  0  0  0  0  0  0
   -3.9039   -0.7381   -1.7559 C   0  0  0  0  0  0  0  0  0  0  0  0
   -5.0768   -1.5529   -1.2242 C   0  0  0  0  0  0  0  0  0  0  0  0
   -2.2340   -2.4490   -1.6552 N   0  0  0  0  0  0  0  0  0  0  0  0
   -1.1002   -2.6284   -0.9682 C   0  0  0  0  0  0  0  0  0  0  0  0
   -0.1708   -3.6938   -1.0054 C   0  0  0  0  0  0  0  0  0  0  0  0
    0.8695   -3.5623   -0.0934 C   0  0  0  0  0  0  0  0  0  0  0  0
    1.0641   -2.4175    0.6893 C   0  0  0  0  0  0  0  0  0  0  0  0
    2.1252   -2.4078    1.5205 F   0  0  0  0  0  0  0  0  0  0  0  0
    1.7992   -4.5299    0.0249 F   0  0  0  0  0  0  0  0  0  0  0  0
   -0.2765   -4.7265   -1.9964 C   0  0  0  0  0  0  0  0  0  0  0  0
   -1.4919   -4.5587   -3.2465 S   0  0  0  0  0  0  0  0  0  0  0  0
   -0.8719   -5.9599   -4.0754 C   0  0  0  0  0  0  0  0  0  0  0  0
   -1.3251   -6.4698   -5.2661 C   0  0  0  0  0  0  0  0  0  0  0  0
   -0.6638   -7.5868   -5.7944 C   0  0  0  0  0  0  0  0  0  0  0  0
   -0.9190   -8.2696   -6.9920 C   0  0  0  0  0  0  0  0  0  0  0  0
   -0.0572   -9.3268   -7.2354 C   0  0  0  0  0  0  0  0  0  0  0  0
    1.1205   -9.5142   -5.9464 S   0  0  0  0  0  0  0  0  0  0  0  0
    0.4359   -8.1612   -5.0936 C   0  0  0  0  0  0  0  0  0  0  0  0
    0.8755   -7.6542   -3.8900 C   0  0  0  0  0  0  0  0  0  0  0  0
    0.2222   -6.5385   -3.3683 C   0  0  0  0  0  0  0  0  0  0  0  0
    0.5230   -5.8199   -2.1892 C   0  0  0  0  0  0  0  0  0  0  0  0
   -0.1689  -10.1106   -8.4007 C   0  0  0  0  0  0  0  0  0  0  0  0
    0.5812  -11.1632   -8.8501 C   0  0  0  0  0  0  0  0  0  0  0  0
    1.7546  -11.7459   -8.1777 C   0  0  0  0  0  0  0  0  0  0  0  0
    2.2459  -11.4278   -7.1146 O   0  0  0  0  0  0  0  0  0  0  0  0
    2.2360  -12.8214   -9.0706 C   0  0  0  0  0  0  0  0  0  0  0  0
    3.3184  -13.6570   -8.8909 C   0  0  0  0  0  0  0  0  0  0  0  0
    3.5694  -14.5936   -9.8843 C   0  0  0  0  0  0  0  0  0  0  0  0
    5.0458  -15.7738   -9.6976 Br  0  0  0  0  0  0  0  0  0  0  0  0
    2.7671  -14.6876  -11.0141 C   0  0  0  0  0  0  0  0  0  0  0  0
    1.6810  -13.8425  -11.1836 C   0  0  0  0  0  0  0  0  0  0  0  0
    1.4080  -12.8980  -10.2035 C   0  0  0  0  0  0  0  0  0  0  0  0
    0.3608  -11.8843  -10.0921 C   0  0  0  0  0  0  0  0  0  0  0  0
   -0.6380  -11.6832  -11.0090 C   0  0  0  0  0  0  0  0  0  0  0  0
   -1.6646  -10.7188  -10.9241 C   0  0  0  0  0  0  0  0  0  0  0  0
   -2.5355   -9.9699  -10.9404 N   0  0  0  0  0  0  0  0  0  0  0  0
   -0.7860  -12.4348  -12.1946 C   0  0  0  0  0  0  0  0  0  0  0  0
   -0.9675  -13.0064  -13.1735 N   0  0  0  0  0  0  0  0  0  0  0  0
    3.1104    5.5351    3.3483 H   0  0  0  0  0  0  0  0  0  0  0  0
   -2.1300    8.4483    1.5791 H   0  0  0  0  0  0  0  0  0  0  0  0
    1.0317   10.4488    4.9929 H   0  0  0  0  0  0  0  0  0  0  0  0
   -0.9781   12.8789    3.6319 H   0  0  0  0  0  0  0  0  0  0  0  0
   -1.8487   12.3047    6.0840 H   0  0  0  0  0  0  0  0  0  0  0  0
   -3.3286   14.2518    5.1151 H   0  0  0  0  0  0  0  0  0  0  0  0
   -5.0227   13.2038    3.3582 H   0  0  0  0  0  0  0  0  0  0  0  0
   -4.5854   10.6162    3.2421 H   0  0  0  0  0  0  0  0  0  0  0  0
   -2.7772    9.9812    5.1386 H   0  0  0  0  0  0  0  0  0  0  0  0
   -4.1020   10.9458    5.8254 H   0  0  0  0  0  0  0  0  0  0  0  0
   -2.6485   11.8708    1.9080 H   0  0  0  0  0  0  0  0  0  0  0  0
   -1.3877    4.0553    0.5975 H   0  0  0  0  0  0  0  0  0  0  0  0
   -3.3820    3.0376   -0.4646 H   0  0  0  0  0  0  0  0  0  0  0  0
   -6.9551    1.4658    2.5133 H   0  0  0  0  0  0  0  0  0  0  0  0
   -5.8250    0.0862    2.3242 H   0  0  0  0  0  0  0  0  0  0  0  0
   -7.2704    0.2140    1.2945 H   0  0  0  0  0  0  0  0  0  0  0  0
   -4.8600    1.9605    3.4056 H   0  0  0  0  0  0  0  0  0  0  0  0
   -2.8791    2.9471    4.4375 H   0  0  0  0  0  0  0  0  0  0  0  0
   -2.7408    5.7984    3.3868 H   0  0  0  0  0  0  0  0  0  0  0  0
   -2.9507    7.5286    5.1194 H   0  0  0  0  0  0  0  0  0  0  0  0
   -0.1576    8.9131    9.1789 H   0  0  0  0  0  0  0  0  0  0  0  0
   -0.0835    7.1521    8.9515 H   0  0  0  0  0  0  0  0  0  0  0  0
    0.9409    8.2444    7.9584 H   0  0  0  0  0  0  0  0  0  0  0  0
    0.6058    6.0656    6.9961 H   0  0  0  0  0  0  0  0  0  0  0  0
    0.7980    4.3442    5.3006 H   0  0  0  0  0  0  0  0  0  0  0  0
    5.1234    0.6635   -0.9385 H   0  0  0  0  0  0  0  0  0  0  0  0
    7.3318    1.2806   -0.0343 H   0  0  0  0  0  0  0  0  0  0  0  0
    7.3345    2.6334    4.4792 H   0  0  0  0  0  0  0  0  0  0  0  0
    7.9478    0.9848    4.8369 H   0  0  0  0  0  0  0  0  0  0  0  0
    9.0801    2.3395    4.6472 H   0  0  0  0  0  0  0  0  0  0  0  0
    5.8086    0.8804    3.9431 H   0  0  0  0  0  0  0  0  0  0  0  0
    3.6360    0.2409    3.0459 H   0  0  0  0  0  0  0  0  0  0  0  0
    4.4349   -1.9775   -0.1756 H   0  0  0  0  0  0  0  0  0  0  0  0
    4.1202   -3.4284   -2.1037 H   0  0  0  0  0  0  0  0  0  0  0  0
    2.9651   -5.4025   -4.9454 H   0  0  0  0  0  0  0  0  0  0  0  0
    3.1404   -5.2130   -3.1885 H   0  0  0  0  0  0  0  0  0  0  0  0
    4.2412   -4.3403   -4.3059 H   0  0  0  0  0  0  0  0  0  0  0  0
    0.8580   -0.9896   -3.4087 H   0  0  0  0  0  0  0  0  0  0  0  0
    1.2058    0.4996   -1.4824 H   0  0  0  0  0  0  0  0  0  0  0  0
   -3.8913   -0.7677   -2.8480 H   0  0  0  0  0  0  0  0  0  0  0  0
   -3.9581    0.2936   -1.4053 H   0  0  0  0  0  0  0  0  0  0  0  0
   -5.0906   -1.5261   -0.1377 H   0  0  0  0  0  0  0  0  0  0  0  0
   -4.9918   -2.5855   -1.5522 H   0  0  0  0  0  0  0  0  0  0  0  0
   -6.0079   -1.1351   -1.5946 H   0  0  0  0  0  0  0  0  0  0  0  0
   -2.1536   -6.0238   -5.7923 H   0  0  0  0  0  0  0  0  0  0  0  0
   -1.7088   -8.0016   -7.6724 H   0  0  0  0  0  0  0  0  0  0  0  0
    1.7081   -8.0996   -3.3685 H   0  0  0  0  0  0  0  0  0  0  0  0
    1.3124   -6.1105   -1.5211 H   0  0  0  0  0  0  0  0  0  0  0  0
   -0.9917   -9.7981   -9.0327 H   0  0  0  0  0  0  0  0  0  0  0  0
    3.9374  -13.5769   -8.0107 H   0  0  0  0  0  0  0  0  0  0  0  0
    2.9926  -15.4266  -11.7675 H   0  0  0  0  0  0  0  0  0  0  0  0
    1.0743  -13.9347  -12.0690 H   0  0  0  0  0  0  0  0  0  0  0  0
  1  2  2  0  0  0  0
  2  3  1  0  0  0  0
  3  4  2  0  0  0  0
  3  5  1  0  0  0  0
  5  6  2  0  0  0  0
  6  7  1  0  0  0  0
  7  8  2  0  0  0  0
  8  9  1  0  0  0  0
  9 10  2  0  0  0  0
 10 11  1  0  0  0  0
 11 12  2  0  0  0  0
 12 13  1  0  0  0  0
 13 14  3  0  0  0  0
 12 15  1  0  0  0  0
 15 16  3  0  0  0  0
  8 17  1  0  0  0  0
 17 18  1  0  0  0  0
 18 19  1  0  0  0  0
 19 20  2  0  0  0  0
 20 21  1  0  0  0  0
 21 22  1  0  0  0  0
 21 23  1  0  0  0  0
  1 24  1  0  0  0  0
 24 25  2  0  0  0  0
 25 26  1  0  0  0  0
 26 27  1  0  0  0  0
 27 28  2  0  0  0  0
 28 29  1  0  0  0  0
 29 30  2  0  0  0  0
 30 31  1  0  0  0  0
 31 32  1  0  0  0  0
 30 33  1  0  0  0  0
 33 34  2  0  0  0  0
 26 35  1  0  0  0  0
 35 36  2  0  0  0  0
 36 37  1  0  0  0  0
 37 38  2  0  0  0  0
 38 39  1  0  0  0  0
 39 40  1  0  0  0  0
 38 41  1  0  0  0  0
 41 42  2  0  0  0  0
 25 43  1  0  0  0  0
 43 44  1  0  0  0  0
 44 45  1  0  0  0  0
 45 46  2  0  0  0  0
 46 47  1  0  0  0  0
 47 48  1  0  0  0  0
 48 49  2  0  0  0  0
 49 50  1  0  0  0  0
 50 51  2  0  0  0  0
 51 52  1  0  0  0  0
 52 53  1  0  0  0  0
 51 54  1  0  0  0  0
 54 55  2  0  0  0  0
 47 56  1  0  0  0  0
 56 57  2  0  0  0  0
 57 58  1  0  0  0  0
 58 59  2  0  0  0  0
 59 60  1  0  0  0  0
 60 61  1  0  0  0  0
 59 62  1  0  0  0  0
 62 63  2  0  0  0  0
 46 64  1  0  0  0  0
 64 65  1  0  0  0  0
 45 66  1  0  0  0  0
 66 67  1  0  0  0  0
 67 68  2  0  0  0  0
 68 69  1  0  0  0  0
 69 70  1  0  0  0  0
 70 71  1  0  0  0  0
 69 72  1  0  0  0  0
 72 73  2  0  0  0  0
 73 74  1  0  0  0  0
 74 75  2  0  0  0  0
 75 76  1  0  0  0  0
 76 77  1  0  0  0  0
 75 78  1  0  0  0  0
 74 79  1  0  0  0  0
 79 80  1  0  0  0  0
 80 81  1  0  0  0  0
 81 82  2  0  0  0  0
 82 83  1  0  0  0  0
 83 84  1  0  0  0  0
 84 85  2  0  0  0  0
 85 86  1  0  0  0  0
 86 87  1  0  0  0  0
 87 88  1  0  0  0  0
 88 89  2  0  0  0  0
 89 90  1  0  0  0  0
 85 91  1  0  0  0  0
 91 92  2  0  0  0  0
 92 93  1  0  0  0  0
 93 94  2  0  0  0  0
 93 95  1  0  0  0  0
 95 96  2  0  0  0  0
 96 97  1  0  0  0  0
 97 98  1  0  0  0  0
 97 99  2  0  0  0  0
 99100  1  0  0  0  0
100101  2  0  0  0  0
101102  1  0  0  0  0
102103  2  0  0  0  0
103104  1  0  0  0  0
104105  3  0  0  0  0
103106  1  0  0  0  0
106107  3  0  0  0  0
 11  2  1  0  0  0  0
 23 17  1  0  0  0  0
 65 24  1  0  0  0  0
 76 66  2  0  0  0  0
 90 79  2  0  0  0  0
102 92  1  0  0  0  0
 10  5  1  0  0  0  0
 22 18  1  0  0  0  0
 34 27  1  0  0  0  0
 42 35  1  0  0  0  0
 64 43  2  0  0  0  0
 73 67  1  0  0  0  0
 89 81  1  0  0  0  0
101 95  1  0  0  0  0
 23  7  1  0  0  0  0
 55 48  1  0  0  0  0
 63 56  1  0  0  0  0
 87 83  2  0  0  0  0
  1108  1  0  0  0  0
  6109  1  0  0  0  0
  9110  1  0  0  0  0
 17111  1  0  0  0  0
 18112  1  0  0  0  0
 19113  1  0  0  0  0
 20114  1  0  0  0  0
 21115  1  0  0  0  0
 22116  1  0  0  0  0
 22117  1  0  0  0  0
 23118  1  0  0  0  0
 28119  1  0  0  0  0
 29120  1  0  0  0  0
 32121  1  0  0  0  0
 32122  1  0  0  0  0
 32123  1  0  0  0  0
 33124  1  0  0  0  0
 34125  1  0  0  0  0
 36126  1  0  0  0  0
 37127  1  0  0  0  0
 40128  1  0  0  0  0
 40129  1  0  0  0  0
 40130  1  0  0  0  0
 41131  1  0  0  0  0
 42132  1  0  0  0  0
 49133  1  0  0  0  0
 50134  1  0  0  0  0
 53135  1  0  0  0  0
 53136  1  0  0  0  0
 53137  1  0  0  0  0
 54138  1  0  0  0  0
 55139  1  0  0  0  0
 57140  1  0  0  0  0
 58141  1  0  0  0  0
 61142  1  0  0  0  0
 61143  1  0  0  0  0
 61144  1  0  0  0  0
 62145  1  0  0  0  0
 63146  1  0  0  0  0
 70147  1  0  0  0  0
 70148  1  0  0  0  0
 71149  1  0  0  0  0
 71150  1  0  0  0  0
 71151  1  0  0  0  0
 82152  1  0  0  0  0
 84153  1  0  0  0  0
 88154  1  0  0  0  0
 90155  1  0  0  0  0
 91156  1  0  0  0  0
 96157  1  0  0  0  0
 99158  1  0  0  0  0
100159  1  0  0  0  0
M  END
