
  xtb     02042207193D
 energy: -257.863697291932 gnorm: 0.000511342306 xtb: 6.4.1 (unknown)
141155  0     0  0            999 V2000
   -5.5704   -3.5362   -1.4028 C   0  0  0  0  0  0  0  0  0  0  0  0
   -4.7658   -3.5561   -2.4844 C   0  0  0  0  0  0  0  0  0  0  0  0
   -3.3832   -2.9855   -2.4715 C   0  0  0  0  0  0  0  0  0  0  0  0
   -2.9156   -2.2155   -1.6617 O   0  0  0  0  0  0  0  0  0  0  0  0
   -2.7488   -3.4606   -3.7079 C   0  0  0  0  0  0  0  0  0  0  0  0
   -1.4144   -3.2936   -4.0723 C   0  0  0  0  0  0  0  0  0  0  0  0
   -1.0999   -3.8364   -5.2933 C   0  0  0  0  0  0  0  0  0  0  0  0
   -2.0457   -4.4810   -6.1047 C   0  0  0  0  0  0  0  0  0  0  0  0
   -3.3645   -4.6517   -5.7575 C   0  0  0  0  0  0  0  0  0  0  0  0
   -3.7074   -4.1182   -4.5086 C   0  0  0  0  0  0  0  0  0  0  0  0
   -4.9896   -4.1171   -3.8125 C   0  0  0  0  0  0  0  0  0  0  0  0
   -6.1846   -4.5541   -4.3115 C   0  0  0  0  0  0  0  0  0  0  0  0
   -7.4056   -4.5022   -3.6048 C   0  0  0  0  0  0  0  0  0  0  0  0
   -8.4281   -4.4799   -3.0842 N   0  0  0  0  0  0  0  0  0  0  0  0
   -6.3659   -5.0844   -5.6068 C   0  0  0  0  0  0  0  0  0  0  0  0
   -6.5790   -5.5217   -6.6462 N   0  0  0  0  0  0  0  0  0  0  0  0
   -1.0388   -4.7513   -7.1961 C   0  0  0  0  0  0  0  0  0  0  0  0
   -1.0929   -3.8249   -8.4300 C   0  0  0  0  0  0  0  0  0  0  0  0
    0.2636   -4.0018   -9.0742 C   0  0  0  0  0  0  0  0  0  0  0  0
    1.1598   -3.4031   -8.3000 C   0  0  0  0  0  0  0  0  0  0  0  0
    0.4253   -2.8119   -7.1188 C   0  0  0  0  0  0  0  0  0  0  0  0
   -0.9023   -2.4422   -7.7930 C   0  0  0  0  0  0  0  0  0  0  0  0
    0.0150   -4.0438   -6.2850 C   0  0  0  0  0  0  0  0  0  0  0  0
   -5.0157   -3.0473   -0.1456 C   0  0  0  0  0  0  0  0  0  0  0  0
   -5.4216   -1.8482    0.4579 C   0  0  0  0  0  0  0  0  0  0  0  0
   -4.6102   -1.1991    1.2575 N   0  0  0  0  0  0  0  0  0  0  0  0
   -3.4345   -1.7528    1.5719 C   0  0  0  0  0  0  0  0  0  0  0  0
   -3.2303   -3.1118    1.2568 C   0  0  0  0  0  0  0  0  0  0  0  0
   -3.9824   -3.7119    0.3748 N   0  0  0  0  0  0  0  0  0  0  0  0
   -2.3936   -0.9386    2.1161 C   0  0  0  0  0  0  0  0  0  0  0  0
   -2.4656    0.3448    2.6512 C   0  0  0  0  0  0  0  0  0  0  0  0
   -3.6209    0.9933    3.0161 N   0  0  0  0  0  0  0  0  0  0  0  0
   -4.7250    0.2873    3.5106 C   0  0  0  0  0  0  0  0  0  0  0  0
   -6.0206    0.6870    3.1832 C   0  0  0  0  0  0  0  0  0  0  0  0
   -7.1039   -0.0089    3.6673 C   0  0  0  0  0  0  0  0  0  0  0  0
   -6.9236   -1.1210    4.4886 C   0  0  0  0  0  0  0  0  0  0  0  0
   -8.3893   -1.9396    5.0320 S   0  0  0  0  0  0  0  0  0  0  0  0
   -7.7771   -3.3303    6.0255 C   0  0  0  0  0  0  0  0  0  0  0  0
   -5.6365   -1.5142    4.8280 C   0  0  0  0  0  0  0  0  0  0  0  0
   -4.5497   -0.8115    4.3456 C   0  0  0  0  0  0  0  0  0  0  0  0
   -3.6811    2.3896    2.8879 C   0  0  0  0  0  0  0  0  0  0  0  0
   -3.1200    3.0171    1.7793 C   0  0  0  0  0  0  0  0  0  0  0  0
   -3.1329    4.3933    1.6653 C   0  0  0  0  0  0  0  0  0  0  0  0
   -3.7166    5.1657    2.6599 C   0  0  0  0  0  0  0  0  0  0  0  0
   -3.7801    6.9277    2.6301 S   0  0  0  0  0  0  0  0  0  0  0  0
   -2.6687    7.3746    1.2655 C   0  0  0  0  0  0  0  0  0  0  0  0
   -4.3083    4.5388    3.7562 C   0  0  0  0  0  0  0  0  0  0  0  0
   -4.2896    3.1678    3.8728 C   0  0  0  0  0  0  0  0  0  0  0  0
   -1.1655    0.8963    2.7946 C   0  0  0  0  0  0  0  0  0  0  0  0
   -0.5300    2.4186    3.3201 S   0  0  0  0  0  0  0  0  0  0  0  0
    1.1040    1.8885    2.9683 C   0  0  0  0  0  0  0  0  0  0  0  0
    1.1518    0.5813    2.4945 C   0  0  0  0  0  0  0  0  0  0  0  0
    2.2661   -0.0972    2.0039 N   0  0  0  0  0  0  0  0  0  0  0  0
    2.1933   -0.5199    0.6687 C   0  0  0  0  0  0  0  0  0  0  0  0
    2.7131   -1.7456    0.2619 C   0  0  0  0  0  0  0  0  0  0  0  0
    2.6412   -2.1371   -1.0608 C   0  0  0  0  0  0  0  0  0  0  0  0
    2.0375   -1.3110   -1.9990 C   0  0  0  0  0  0  0  0  0  0  0  0
    1.9102   -1.7039   -3.7172 S   0  0  0  0  0  0  0  0  0  0  0  0
    3.1152   -3.0442   -3.9397 C   0  0  0  0  0  0  0  0  0  0  0  0
    1.4870   -0.0984   -1.5911 C   0  0  0  0  0  0  0  0  0  0  0  0
    1.5661    0.2954   -0.2752 C   0  0  0  0  0  0  0  0  0  0  0  0
    3.3168   -0.4556    2.8416 C   0  0  0  0  0  0  0  0  0  0  0  0
    4.6122   -0.6273    2.3421 C   0  0  0  0  0  0  0  0  0  0  0  0
    5.6389   -0.9782    3.1865 C   0  0  0  0  0  0  0  0  0  0  0  0
    5.4098   -1.1604    4.5512 C   0  0  0  0  0  0  0  0  0  0  0  0
    6.8089   -1.6145    5.5255 S   0  0  0  0  0  0  0  0  0  0  0  0
    6.1562   -1.7110    7.2164 C   0  0  0  0  0  0  0  0  0  0  0  0
    4.1293   -0.9780    5.0549 C   0  0  0  0  0  0  0  0  0  0  0  0
    3.0947   -0.6321    4.2070 C   0  0  0  0  0  0  0  0  0  0  0  0
   -0.1489    0.0415    2.3948 C   0  0  0  0  0  0  0  0  0  0  0  0
   -0.7463   -1.4903    1.8723 S   0  0  0  0  0  0  0  0  0  0  0  0
    2.1290    2.8781    2.9105 C   0  0  0  0  0  0  0  0  0  0  0  0
    3.5192    2.6202    2.8974 C   0  0  0  0  0  0  0  0  0  0  0  0
    4.3282    3.4588    2.3148 N   0  0  0  0  0  0  0  0  0  0  0  0
    3.8581    4.6202    1.8595 C   0  0  0  0  0  0  0  0  0  0  0  0
    2.5873    5.0354    2.3019 C   0  0  0  0  0  0  0  0  0  0  0  0
    1.7377    4.1503    2.7554 N   0  0  0  0  0  0  0  0  0  0  0  0
    4.6298    5.3406    0.8717 C   0  0  0  0  0  0  0  0  0  0  0  0
    5.0883    4.6865   -0.2221 C   0  0  0  0  0  0  0  0  0  0  0  0
    4.6900    3.2974   -0.5783 C   0  0  0  0  0  0  0  0  0  0  0  0
    3.7283    2.6782   -0.1875 O   0  0  0  0  0  0  0  0  0  0  0  0
    5.6548    2.8771   -1.6191 C   0  0  0  0  0  0  0  0  0  0  0  0
    5.8336    1.6193   -2.1654 C   0  0  0  0  0  0  0  0  0  0  0  0
    4.8202    0.3143   -1.7327 Cl  0  0  0  0  0  0  0  0  0  0  0  0
    6.8811    1.4362   -3.0778 C   0  0  0  0  0  0  0  0  0  0  0  0
    7.1195   -0.0907   -3.8042 Cl  0  0  0  0  0  0  0  0  0  0  0  0
    7.7504    2.4886   -3.3636 C   0  0  0  0  0  0  0  0  0  0  0  0
    9.0747    2.2170   -4.4112 Cl  0  0  0  0  0  0  0  0  0  0  0  0
    7.5683    3.7621   -2.7992 C   0  0  0  0  0  0  0  0  0  0  0  0
    8.7707    4.9540   -3.0690 Cl  0  0  0  0  0  0  0  0  0  0  0  0
    6.4697    3.9730   -1.9728 C   0  0  0  0  0  0  0  0  0  0  0  0
    5.9795    5.1587   -1.2753 C   0  0  0  0  0  0  0  0  0  0  0  0
    6.1535    6.4676   -1.6325 C   0  0  0  0  0  0  0  0  0  0  0  0
    5.6188    7.5523   -0.9012 C   0  0  0  0  0  0  0  0  0  0  0  0
    5.2237    8.4791   -0.3518 N   0  0  0  0  0  0  0  0  0  0  0  0
    6.7230    6.9345   -2.8376 C   0  0  0  0  0  0  0  0  0  0  0  0
    7.0730    7.4129   -3.8199 N   0  0  0  0  0  0  0  0  0  0  0  0
   -6.6001   -3.8620   -1.4314 H   0  0  0  0  0  0  0  0  0  0  0  0
   -0.7219   -2.7780   -3.4262 H   0  0  0  0  0  0  0  0  0  0  0  0
   -4.0775   -5.1579   -6.3869 H   0  0  0  0  0  0  0  0  0  0  0  0
   -0.8888   -5.7973   -7.4564 H   0  0  0  0  0  0  0  0  0  0  0  0
   -1.9601   -3.9684   -9.0687 H   0  0  0  0  0  0  0  0  0  0  0  0
    0.4325   -4.5718   -9.9688 H   0  0  0  0  0  0  0  0  0  0  0  0
    2.2270   -3.3731   -8.4213 H   0  0  0  0  0  0  0  0  0  0  0  0
    0.9347   -2.0354   -6.5548 H   0  0  0  0  0  0  0  0  0  0  0  0
   -0.7799   -1.6596   -8.5397 H   0  0  0  0  0  0  0  0  0  0  0  0
   -1.6891   -2.1601   -7.0962 H   0  0  0  0  0  0  0  0  0  0  0  0
    0.8653   -4.6219   -5.9288 H   0  0  0  0  0  0  0  0  0  0  0  0
   -6.3665   -1.3741    0.2355 H   0  0  0  0  0  0  0  0  0  0  0  0
   -2.4376   -3.6947    1.7052 H   0  0  0  0  0  0  0  0  0  0  0  0
   -6.1670    1.5362    2.5341 H   0  0  0  0  0  0  0  0  0  0  0  0
   -8.1073    0.2918    3.4076 H   0  0  0  0  0  0  0  0  0  0  0  0
   -7.1589   -3.9806    5.4133 H   0  0  0  0  0  0  0  0  0  0  0  0
   -8.6627   -3.8658    6.3531 H   0  0  0  0  0  0  0  0  0  0  0  0
   -7.2309   -2.9603    6.8884 H   0  0  0  0  0  0  0  0  0  0  0  0
   -5.4628   -2.3614    5.4719 H   0  0  0  0  0  0  0  0  0  0  0  0
   -3.5528   -1.1225    4.6223 H   0  0  0  0  0  0  0  0  0  0  0  0
   -2.6803    2.4194    0.9945 H   0  0  0  0  0  0  0  0  0  0  0  0
   -2.6914    4.8464    0.7928 H   0  0  0  0  0  0  0  0  0  0  0  0
   -3.1042    7.0826    0.3141 H   0  0  0  0  0  0  0  0  0  0  0  0
   -1.6994    6.9092    1.4178 H   0  0  0  0  0  0  0  0  0  0  0  0
   -2.5728    8.4551    1.3076 H   0  0  0  0  0  0  0  0  0  0  0  0
   -4.7696    5.1454    4.5201 H   0  0  0  0  0  0  0  0  0  0  0  0
   -4.7359    2.6891    4.7314 H   0  0  0  0  0  0  0  0  0  0  0  0
    3.1716   -2.4020    0.9862 H   0  0  0  0  0  0  0  0  0  0  0  0
    3.0526   -3.0931   -1.3430 H   0  0  0  0  0  0  0  0  0  0  0  0
    2.7519   -3.9597   -3.4814 H   0  0  0  0  0  0  0  0  0  0  0  0
    3.2085   -3.1822   -5.0125 H   0  0  0  0  0  0  0  0  0  0  0  0
    4.0709   -2.7447   -3.5200 H   0  0  0  0  0  0  0  0  0  0  0  0
    1.0145    0.5383   -2.3233 H   0  0  0  0  0  0  0  0  0  0  0  0
    1.1702    1.2534    0.0232 H   0  0  0  0  0  0  0  0  0  0  0  0
    4.8049   -0.4587    1.2943 H   0  0  0  0  0  0  0  0  0  0  0  0
    6.6394   -1.1064    2.8031 H   0  0  0  0  0  0  0  0  0  0  0  0
    5.3998   -2.4879    7.2803 H   0  0  0  0  0  0  0  0  0  0  0  0
    5.7602   -0.7456    7.5177 H   0  0  0  0  0  0  0  0  0  0  0  0
    7.0047   -1.9720    7.8411 H   0  0  0  0  0  0  0  0  0  0  0  0
    3.9174   -1.1094    6.1036 H   0  0  0  0  0  0  0  0  0  0  0  0
    2.0995   -0.4998    4.6058 H   0  0  0  0  0  0  0  0  0  0  0  0
    3.9647    1.7578    3.3660 H   0  0  0  0  0  0  0  0  0  0  0  0
    2.2404    6.0543    2.2112 H   0  0  0  0  0  0  0  0  0  0  0  0
    4.8148    6.3932    1.0297 H   0  0  0  0  0  0  0  0  0  0  0  0
  1  2  2  0  0  0  0
  2  3  1  0  0  0  0
  3  4  2  0  0  0  0
  3  5  1  0  0  0  0
  5  6  2  0  0  0  0
  6  7  1  0  0  0  0
  7  8  2  0  0  0  0
  8  9  1  0  0  0  0
  9 10  2  0  0  0  0
 10 11  1  0  0  0  0
 11 12  2  0  0  0  0
 12 13  1  0  0  0  0
 13 14  3  0  0  0  0
 12 15  1  0  0  0  0
 15 16  3  0  0  0  0
  8 17  1  0  0  0  0
 17 18  1  0  0  0  0
 18 19  1  0  0  0  0
 19 20  2  0  0  0  0
 20 21  1  0  0  0  0
 21 22  1  0  0  0  0
 21 23  1  0  0  0  0
  1 24  1  0  0  0  0
 24 25  2  0  0  0  0
 25 26  1  0  0  0  0
 26 27  2  0  0  0  0
 27 28  1  0  0  0  0
 28 29  2  0  0  0  0
 27 30  1  0  0  0  0
 30 31  2  0  0  0  0
 31 32  1  0  0  0  0
 32 33  1  0  0  0  0
 33 34  2  0  0  0  0
 34 35  1  0  0  0  0
 35 36  2  0  0  0  0
 36 37  1  0  0  0  0
 37 38  1  0  0  0  0
 36 39  1  0  0  0  0
 39 40  2  0  0  0  0
 32 41  1  0  0  0  0
 41 42  2  0  0  0  0
 42 43  1  0  0  0  0
 43 44  2  0  0  0  0
 44 45  1  0  0  0  0
 45 46  1  0  0  0  0
 44 47  1  0  0  0  0
 47 48  2  0  0  0  0
 31 49  1  0  0  0  0
 49 50  1  0  0  0  0
 50 51  1  0  0  0  0
 51 52  2  0  0  0  0
 52 53  1  0  0  0  0
 53 54  1  0  0  0  0
 54 55  2  0  0  0  0
 55 56  1  0  0  0  0
 56 57  2  0  0  0  0
 57 58  1  0  0  0  0
 58 59  1  0  0  0  0
 57 60  1  0  0  0  0
 60 61  2  0  0  0  0
 53 62  1  0  0  0  0
 62 63  2  0  0  0  0
 63 64  1  0  0  0  0
 64 65  2  0  0  0  0
 65 66  1  0  0  0  0
 66 67  1  0  0  0  0
 65 68  1  0  0  0  0
 68 69  2  0  0  0  0
 52 70  1  0  0  0  0
 70 71  1  0  0  0  0
 51 72  1  0  0  0  0
 72 73  2  0  0  0  0
 73 74  1  0  0  0  0
 74 75  2  0  0  0  0
 75 76  1  0  0  0  0
 76 77  2  0  0  0  0
 75 78  1  0  0  0  0
 78 79  2  0  0  0  0
 79 80  1  0  0  0  0
 80 81  2  0  0  0  0
 80 82  1  0  0  0  0
 82 83  2  0  0  0  0
 83 84  1  0  0  0  0
 83 85  1  0  0  0  0
 85 86  1  0  0  0  0
 85 87  2  0  0  0  0
 87 88  1  0  0  0  0
 87 89  1  0  0  0  0
 89 90  1  0  0  0  0
 89 91  2  0  0  0  0
 91 92  1  0  0  0  0
 92 93  2  0  0  0  0
 93 94  1  0  0  0  0
 94 95  3  0  0  0  0
 93 96  1  0  0  0  0
 96 97  3  0  0  0  0
 11  2  1  0  0  0  0
 23 17  1  0  0  0  0
 29 24  1  0  0  0  0
 71 30  1  0  0  0  0
 77 72  1  0  0  0  0
 92 79  1  0  0  0  0
 10  5  1  0  0  0  0
 22 18  1  0  0  0  0
 40 33  1  0  0  0  0
 48 41  1  0  0  0  0
 70 49  2  0  0  0  0
 91 82  1  0  0  0  0
 23  7  1  0  0  0  0
 61 54  1  0  0  0  0
 69 62  1  0  0  0  0
  1 98  1  0  0  0  0
  6 99  1  0  0  0  0
  9100  1  0  0  0  0
 17101  1  0  0  0  0
 18102  1  0  0  0  0
 19103  1  0  0  0  0
 20104  1  0  0  0  0
 21105  1  0  0  0  0
 22106  1  0  0  0  0
 22107  1  0  0  0  0
 23108  1  0  0  0  0
 25109  1  0  0  0  0
 28110  1  0  0  0  0
 34111  1  0  0  0  0
 35112  1  0  0  0  0
 38113  1  0  0  0  0
 38114  1  0  0  0  0
 38115  1  0  0  0  0
 39116  1  0  0  0  0
 40117  1  0  0  0  0
 42118  1  0  0  0  0
 43119  1  0  0  0  0
 46120  1  0  0  0  0
 46121  1  0  0  0  0
 46122  1  0  0  0  0
 47123  1  0  0  0  0
 48124  1  0  0  0  0
 55125  1  0  0  0  0
 56126  1  0  0  0  0
 59127  1  0  0  0  0
 59128  1  0  0  0  0
 59129  1  0  0  0  0
 60130  1  0  0  0  0
 61131  1  0  0  0  0
 63132  1  0  0  0  0
 64133  1  0  0  0  0
 67134  1  0  0  0  0
 67135  1  0  0  0  0
 67136  1  0  0  0  0
 68137  1  0  0  0  0
 69138  1  0  0  0  0
 73139  1  0  0  0  0
 76140  1  0  0  0  0
 78141  1  0  0  0  0
M  END
