
  xtb     02062208403D
 energy: -381.918963668812 gnorm: 0.000304889787 xtb: 6.4.1 (unknown)
232255  0     0  0            999 V2000
   -1.2365    3.6274   -6.8219 C   0  0  0  0  0  0  0  0  0  0  0  0
   -2.1253    3.7539   -7.8630 C   0  0  0  0  0  0  0  0  0  0  0  0
   -3.4470    3.1275   -7.9576 C   0  0  0  0  0  0  0  0  0  0  0  0
   -4.0902    2.6116   -7.0595 O   0  0  0  0  0  0  0  0  0  0  0  0
   -3.8583    3.2500   -9.3679 C   0  0  0  0  0  0  0  0  0  0  0  0
   -5.0096    2.7337   -9.9573 C   0  0  0  0  0  0  0  0  0  0  0  0
   -5.1009    2.9729  -11.3080 C   0  0  0  0  0  0  0  0  0  0  0  0
   -4.1219    3.6772  -12.0203 C   0  0  0  0  0  0  0  0  0  0  0  0
   -2.9842    4.1980  -11.4492 C   0  0  0  0  0  0  0  0  0  0  0  0
   -2.8702    3.9631  -10.0765 C   0  0  0  0  0  0  0  0  0  0  0  0
   -1.8153    4.3490   -9.1408 C   0  0  0  0  0  0  0  0  0  0  0  0
   -0.7297    5.1344   -9.4455 C   0  0  0  0  0  0  0  0  0  0  0  0
   -0.3995    5.5910  -10.7359 C   0  0  0  0  0  0  0  0  0  0  0  0
   -0.0310    5.9844  -11.7508 N   0  0  0  0  0  0  0  0  0  0  0  0
    0.2046    5.6271   -8.5161 C   0  0  0  0  0  0  0  0  0  0  0  0
    0.9992    6.1017   -7.8331 N   0  0  0  0  0  0  0  0  0  0  0  0
   -4.8555    3.5314  -13.3305 C   0  0  0  0  0  0  0  0  0  0  0  0
   -5.6252    4.7693  -13.8368 C   0  0  0  0  0  0  0  0  0  0  0  0
   -6.6031    4.2009  -14.8398 C   0  0  0  0  0  0  0  0  0  0  0  0
   -7.5307    3.5335  -14.1654 C   0  0  0  0  0  0  0  0  0  0  0  0
   -7.1954    3.6395  -12.6952 C   0  0  0  0  0  0  0  0  0  0  0  0
   -6.5775    5.0434  -12.6657 C   0  0  0  0  0  0  0  0  0  0  0  0
   -5.9476    2.7457  -12.5359 C   0  0  0  0  0  0  0  0  0  0  0  0
   -1.3263    2.8878   -5.6411 C   0  0  0  0  0  0  0  0  0  0  0  0
   -0.2091    2.6001   -4.8169 C   0  0  0  0  0  0  0  0  0  0  0  0
    1.1033    2.8491   -5.1376 N   0  0  0  0  0  0  0  0  0  0  0  0
    1.5516    2.7851   -6.4743 C   0  0  0  0  0  0  0  0  0  0  0  0
    1.0643    1.8073   -7.3439 C   0  0  0  0  0  0  0  0  0  0  0  0
    1.4378    1.8168   -8.6679 C   0  0  0  0  0  0  0  0  0  0  0  0
    2.3207    2.7859   -9.1461 C   0  0  0  0  0  0  0  0  0  0  0  0
    2.6645    2.7640  -10.8755 S   0  0  0  0  0  0  0  0  0  0  0  0
    3.3492    4.4146  -11.1897 C   0  0  0  0  0  0  0  0  0  0  0  0
    2.8785    3.6985   -8.2609 C   0  0  0  0  0  0  0  0  0  0  0  0
    2.4907    3.7016   -6.9346 C   0  0  0  0  0  0  0  0  0  0  0  0
    2.0694    2.8874   -4.1177 C   0  0  0  0  0  0  0  0  0  0  0  0
    3.2832    2.2168   -4.2722 C   0  0  0  0  0  0  0  0  0  0  0  0
    4.1933    2.1842   -3.2425 C   0  0  0  0  0  0  0  0  0  0  0  0
    3.9211    2.8208   -2.0309 C   0  0  0  0  0  0  0  0  0  0  0  0
    5.1181    2.6059   -0.7553 S   0  0  0  0  0  0  0  0  0  0  0  0
    4.5511    3.6941    0.5764 C   0  0  0  0  0  0  0  0  0  0  0  0
    2.7447    3.5463   -1.8978 C   0  0  0  0  0  0  0  0  0  0  0  0
    1.8312    3.5819   -2.9345 C   0  0  0  0  0  0  0  0  0  0  0  0
   -0.6083    1.9117   -3.6611 C   0  0  0  0  0  0  0  0  0  0  0  0
    0.2581    1.2064   -2.3397 S   0  0  0  0  0  0  0  0  0  0  0  0
   -1.2146    0.4439   -1.7573 C   0  0  0  0  0  0  0  0  0  0  0  0
   -2.3106    0.7370   -2.5627 C   0  0  0  0  0  0  0  0  0  0  0  0
   -3.5756    0.1805   -2.4013 N   0  0  0  0  0  0  0  0  0  0  0  0
   -3.7094   -1.2105   -2.3486 C   0  0  0  0  0  0  0  0  0  0  0  0
   -2.7490   -2.0404   -2.9301 C   0  0  0  0  0  0  0  0  0  0  0  0
   -2.8694   -3.4091   -2.8484 C   0  0  0  0  0  0  0  0  0  0  0  0
   -3.9582   -3.9879   -2.2000 C   0  0  0  0  0  0  0  0  0  0  0  0
   -3.9998   -5.7530   -2.1502 S   0  0  0  0  0  0  0  0  0  0  0  0
   -5.6298   -6.1309   -1.4455 C   0  0  0  0  0  0  0  0  0  0  0  0
   -4.9248   -3.1670   -1.6367 C   0  0  0  0  0  0  0  0  0  0  0  0
   -4.7970   -1.7939   -1.7044 C   0  0  0  0  0  0  0  0  0  0  0  0
   -4.6806    1.0290   -2.5204 C   0  0  0  0  0  0  0  0  0  0  0  0
   -5.8498    0.6291   -3.1676 C   0  0  0  0  0  0  0  0  0  0  0  0
   -6.9189    1.4902   -3.2617 C   0  0  0  0  0  0  0  0  0  0  0  0
   -6.8438    2.7737   -2.7268 C   0  0  0  0  0  0  0  0  0  0  0  0
   -8.2892    3.7843   -2.8653 S   0  0  0  0  0  0  0  0  0  0  0  0
   -7.6503    5.4663   -2.6161 C   0  0  0  0  0  0  0  0  0  0  0  0
   -5.6800    3.1817   -2.0905 C   0  0  0  0  0  0  0  0  0  0  0  0
   -4.6102    2.3148   -1.9893 C   0  0  0  0  0  0  0  0  0  0  0  0
   -1.9620    1.5971   -3.6253 C   0  0  0  0  0  0  0  0  0  0  0  0
   -2.8201    2.1868   -5.0038 S   0  0  0  0  0  0  0  0  0  0  0  0
   -1.1930   -0.2608   -0.5295 C   0  0  0  0  0  0  0  0  0  0  0  0
   -0.0782   -0.7704    0.1304 C   0  0  0  0  0  0  0  0  0  0  0  0
    1.2248   -0.7993   -0.3491 N   0  0  0  0  0  0  0  0  0  0  0  0
    2.2060   -0.3242    0.5377 C   0  0  0  0  0  0  0  0  0  0  0  0
    3.4169   -0.9872    0.7093 C   0  0  0  0  0  0  0  0  0  0  0  0
    4.3288   -0.5322    1.6386 C   0  0  0  0  0  0  0  0  0  0  0  0
    4.0341    0.5758    2.4210 C   0  0  0  0  0  0  0  0  0  0  0  0
    5.1587    1.1647    3.6552 S   0  0  0  0  0  0  0  0  0  0  0  0
    5.5786   -0.4057    4.4693 C   0  0  0  0  0  0  0  0  0  0  0  0
    2.8355    1.2524    2.2405 C   0  0  0  0  0  0  0  0  0  0  0  0
    1.9326    0.8122    1.2977 C   0  0  0  0  0  0  0  0  0  0  0  0
    1.5318   -1.2693   -1.6236 C   0  0  0  0  0  0  0  0  0  0  0  0
    2.6512   -0.7955   -2.3074 C   0  0  0  0  0  0  0  0  0  0  0  0
    2.8860   -1.1670   -3.6156 C   0  0  0  0  0  0  0  0  0  0  0  0
    2.0004   -2.0109   -4.2714 C   0  0  0  0  0  0  0  0  0  0  0  0
    2.1548   -2.4821   -5.9679 S   0  0  0  0  0  0  0  0  0  0  0  0
    3.3527   -1.2939   -6.6376 C   0  0  0  0  0  0  0  0  0  0  0  0
    0.9156   -2.5361   -3.5723 C   0  0  0  0  0  0  0  0  0  0  0  0
    0.6870   -2.1790   -2.2629 C   0  0  0  0  0  0  0  0  0  0  0  0
   -0.4105   -1.2168    1.4278 C   0  0  0  0  0  0  0  0  0  0  0  0
    0.5243   -1.8825    2.7156 S   0  0  0  0  0  0  0  0  0  0  0  0
   -0.9245   -1.9805    3.7178 C   0  0  0  0  0  0  0  0  0  0  0  0
   -2.0395   -1.3806    3.1084 C   0  0  0  0  0  0  0  0  0  0  0  0
   -3.1935   -1.0101    3.7506 N   0  0  0  0  0  0  0  0  0  0  0  0
   -3.2104   -0.5955    5.0988 C   0  0  0  0  0  0  0  0  0  0  0  0
   -4.3807   -0.7623    5.8405 C   0  0  0  0  0  0  0  0  0  0  0  0
   -4.4229   -0.3894    7.1640 C   0  0  0  0  0  0  0  0  0  0  0  0
   -3.2973    0.1536    7.7827 C   0  0  0  0  0  0  0  0  0  0  0  0
   -3.4597    0.5664    9.4843 S   0  0  0  0  0  0  0  0  0  0  0  0
   -1.8058    1.1422    9.9546 C   0  0  0  0  0  0  0  0  0  0  0  0
   -2.1401    0.3487    7.0386 C   0  0  0  0  0  0  0  0  0  0  0  0
   -2.1025   -0.0164    5.7080 C   0  0  0  0  0  0  0  0  0  0  0  0
   -4.3350   -0.7586    2.9585 C   0  0  0  0  0  0  0  0  0  0  0  0
   -4.9434    0.4914    2.9687 C   0  0  0  0  0  0  0  0  0  0  0  0
   -6.0229    0.7520    2.1484 C   0  0  0  0  0  0  0  0  0  0  0  0
   -6.5264   -0.2474    1.3251 C   0  0  0  0  0  0  0  0  0  0  0  0
   -7.8532   -0.0219    0.1861 S   0  0  0  0  0  0  0  0  0  0  0  0
   -8.2235    1.7477    0.2870 C   0  0  0  0  0  0  0  0  0  0  0  0
   -5.9565   -1.5194    1.3659 C   0  0  0  0  0  0  0  0  0  0  0  0
   -4.8583   -1.7705    2.1560 C   0  0  0  0  0  0  0  0  0  0  0  0
   -1.7423   -1.0292    1.7727 C   0  0  0  0  0  0  0  0  0  0  0  0
   -2.6527   -0.3725    0.4489 S   0  0  0  0  0  0  0  0  0  0  0  0
   -0.7822   -2.6193    4.9667 C   0  0  0  0  0  0  0  0  0  0  0  0
    0.3999   -2.7168    5.7057 C   0  0  0  0  0  0  0  0  0  0  0  0
    0.1238   -3.4098    6.9045 C   0  0  0  0  0  0  0  0  0  0  0  0
   -1.2722   -3.7922    6.8926 C   0  0  0  0  0  0  0  0  0  0  0  0
   -1.9454   -4.4339    7.6658 O   0  0  0  0  0  0  0  0  0  0  0  0
   -1.7684   -3.2787    5.6699 N   0  0  0  0  0  0  0  0  0  0  0  0
   -2.9984   -3.8187    5.1377 C   0  0  0  0  0  0  0  0  0  0  0  0
   -2.7301   -4.8581    4.0511 C   0  0  0  0  0  0  0  0  0  0  0  0
    1.2732   -3.4321    7.6860 C   0  0  0  0  0  0  0  0  0  0  0  0
    2.2679   -2.7909    6.9625 N   0  0  0  0  0  0  0  0  0  0  0  0
    3.6912   -2.9183    7.1715 C   0  0  0  0  0  0  0  0  0  0  0  0
    4.1625   -4.3579    6.9812 C   0  0  0  0  0  0  0  0  0  0  0  0
    1.7908   -2.3467    5.7135 C   0  0  0  0  0  0  0  0  0  0  0  0
    2.5003   -1.8141    4.8775 O   0  0  0  0  0  0  0  0  0  0  0  0
    1.3907   -4.0286    8.9618 C   0  0  0  0  0  0  0  0  0  0  0  0
    2.2296   -3.7358    9.9980 C   0  0  0  0  0  0  0  0  0  0  0  0
    2.5318   -4.7591   11.0359 C   0  0  0  0  0  0  0  0  0  0  0  0
    1.9698   -5.8181   11.1963 O   0  0  0  0  0  0  0  0  0  0  0  0
    3.7016   -4.2337   11.7700 C   0  0  0  0  0  0  0  0  0  0  0  0
    4.4465   -4.8868   12.7483 C   0  0  0  0  0  0  0  0  0  0  0  0
    5.5058   -4.1536   13.2285 C   0  0  0  0  0  0  0  0  0  0  0  0
    5.8060   -2.8631   12.7723 C   0  0  0  0  0  0  0  0  0  0  0  0
    5.0732   -2.2009   11.8155 C   0  0  0  0  0  0  0  0  0  0  0  0
    3.9933   -2.9306   11.3148 C   0  0  0  0  0  0  0  0  0  0  0  0
    2.9989   -2.5587   10.3109 C   0  0  0  0  0  0  0  0  0  0  0  0
    2.6876   -1.2759    9.9236 C   0  0  0  0  0  0  0  0  0  0  0  0
    1.5577   -0.9513    9.1522 C   0  0  0  0  0  0  0  0  0  0  0  0
    0.6160   -0.6085    8.5895 N   0  0  0  0  0  0  0  0  0  0  0  0
    3.4001   -0.1310   10.3285 C   0  0  0  0  0  0  0  0  0  0  0  0
    3.9518    0.8344   10.6159 N   0  0  0  0  0  0  0  0  0  0  0  0
    7.0088   -2.7378   13.6727 C   0  0  0  0  0  0  0  0  0  0  0  0
    8.4097   -2.9188   13.0371 C   0  0  0  0  0  0  0  0  0  0  0  0
    8.2235   -3.8055   11.8309 C   0  0  0  0  0  0  0  0  0  0  0  0
    7.9382   -5.0258   12.2651 C   0  0  0  0  0  0  0  0  0  0  0  0
    7.9264   -4.9864   13.7732 C   0  0  0  0  0  0  0  0  0  0  0  0
    9.0140   -3.9296   14.0249 C   0  0  0  0  0  0  0  0  0  0  0  0
    6.6729   -4.1743   14.1838 C   0  0  0  0  0  0  0  0  0  0  0  0
   -0.2815    4.1176   -6.9596 H   0  0  0  0  0  0  0  0  0  0  0  0
   -5.7361    2.1910   -9.3728 H   0  0  0  0  0  0  0  0  0  0  0  0
   -2.2354    4.7312  -12.0112 H   0  0  0  0  0  0  0  0  0  0  0  0
   -4.3137    3.0148  -14.1206 H   0  0  0  0  0  0  0  0  0  0  0  0
   -4.9973    5.5889  -14.1754 H   0  0  0  0  0  0  0  0  0  0  0  0
   -6.4916    4.2919  -15.9043 H   0  0  0  0  0  0  0  0  0  0  0  0
   -8.3486    2.9556  -14.5542 H   0  0  0  0  0  0  0  0  0  0  0  0
   -7.9987    3.4303  -11.9938 H   0  0  0  0  0  0  0  0  0  0  0  0
   -6.0736    5.2862  -11.7319 H   0  0  0  0  0  0  0  0  0  0  0  0
   -7.3053    5.8186  -12.8997 H   0  0  0  0  0  0  0  0  0  0  0  0
   -6.1332    1.7053  -12.7971 H   0  0  0  0  0  0  0  0  0  0  0  0
    0.3730    1.0610   -6.9808 H   0  0  0  0  0  0  0  0  0  0  0  0
    1.0465    1.0791   -9.3513 H   0  0  0  0  0  0  0  0  0  0  0  0
    2.7023    5.1666  -10.7478 H   0  0  0  0  0  0  0  0  0  0  0  0
    4.3622    4.4847  -10.8040 H   0  0  0  0  0  0  0  0  0  0  0  0
    3.3568    4.5265  -12.2694 H   0  0  0  0  0  0  0  0  0  0  0  0
    3.5927    4.4322   -8.5954 H   0  0  0  0  0  0  0  0  0  0  0  0
    2.8965    4.4365   -6.2571 H   0  0  0  0  0  0  0  0  0  0  0  0
    3.4994    1.7124   -5.2019 H   0  0  0  0  0  0  0  0  0  0  0  0
    5.1250    1.6506   -3.3526 H   0  0  0  0  0  0  0  0  0  0  0  0
    3.5634    3.3873    0.9049 H   0  0  0  0  0  0  0  0  0  0  0  0
    4.5614    4.7261    0.2376 H   0  0  0  0  0  0  0  0  0  0  0  0
    5.2600    3.5574    1.3876 H   0  0  0  0  0  0  0  0  0  0  0  0
    2.5229    4.0831   -0.9901 H   0  0  0  0  0  0  0  0  0  0  0  0
    0.9189    4.1492   -2.8246 H   0  0  0  0  0  0  0  0  0  0  0  0
   -1.9118   -1.6089   -3.4577 H   0  0  0  0  0  0  0  0  0  0  0  0
   -2.1272   -4.0498   -3.2995 H   0  0  0  0  0  0  0  0  0  0  0  0
   -5.6797   -5.7981   -0.4127 H   0  0  0  0  0  0  0  0  0  0  0  0
   -6.4077   -5.6710   -2.0477 H   0  0  0  0  0  0  0  0  0  0  0  0
   -5.7215   -7.2118   -1.4869 H   0  0  0  0  0  0  0  0  0  0  0  0
   -5.7842   -3.5848   -1.1383 H   0  0  0  0  0  0  0  0  0  0  0  0
   -5.5469   -1.1647   -1.2528 H   0  0  0  0  0  0  0  0  0  0  0  0
   -5.9094   -0.3526   -3.6106 H   0  0  0  0  0  0  0  0  0  0  0  0
   -7.8234    1.1826   -3.7629 H   0  0  0  0  0  0  0  0  0  0  0  0
   -6.7825    5.6187   -3.2504 H   0  0  0  0  0  0  0  0  0  0  0  0
   -8.4519    6.1345   -2.9147 H   0  0  0  0  0  0  0  0  0  0  0  0
   -7.4088    5.6310   -1.5697 H   0  0  0  0  0  0  0  0  0  0  0  0
   -5.5968    4.1680   -1.6610 H   0  0  0  0  0  0  0  0  0  0  0  0
   -3.7104    2.6317   -1.4821 H   0  0  0  0  0  0  0  0  0  0  0  0
    3.6323   -1.8660    0.1203 H   0  0  0  0  0  0  0  0  0  0  0  0
    5.2655   -1.0518    1.7639 H   0  0  0  0  0  0  0  0  0  0  0  0
    6.3546   -0.9261    3.9153 H   0  0  0  0  0  0  0  0  0  0  0  0
    5.9409   -0.1499    5.4603 H   0  0  0  0  0  0  0  0  0  0  0  0
    4.6701   -0.9981    4.5308 H   0  0  0  0  0  0  0  0  0  0  0  0
    2.6159    2.1122    2.8554 H   0  0  0  0  0  0  0  0  0  0  0  0
    0.9983    1.3360    1.1520 H   0  0  0  0  0  0  0  0  0  0  0  0
    3.3218   -0.1034   -1.8224 H   0  0  0  0  0  0  0  0  0  0  0  0
    3.7550   -0.7740   -4.1167 H   0  0  0  0  0  0  0  0  0  0  0  0
    3.0143   -0.2817   -6.4352 H   0  0  0  0  0  0  0  0  0  0  0  0
    4.3396   -1.4742   -6.2217 H   0  0  0  0  0  0  0  0  0  0  0  0
    3.3698   -1.4663   -7.7093 H   0  0  0  0  0  0  0  0  0  0  0  0
    0.2522   -3.2235   -4.0746 H   0  0  0  0  0  0  0  0  0  0  0  0
   -0.1610   -2.5869   -1.7331 H   0  0  0  0  0  0  0  0  0  0  0  0
   -5.2557   -1.1904    5.3729 H   0  0  0  0  0  0  0  0  0  0  0  0
   -5.3246   -0.5269    7.7401 H   0  0  0  0  0  0  0  0  0  0  0  0
   -1.0667    0.3881    9.6986 H   0  0  0  0  0  0  0  0  0  0  0  0
   -1.5892    2.0875    9.4650 H   0  0  0  0  0  0  0  0  0  0  0  0
   -1.8387    1.2836   11.0305 H   0  0  0  0  0  0  0  0  0  0  0  0
   -1.2560    0.7757    7.4795 H   0  0  0  0  0  0  0  0  0  0  0  0
   -1.1991    0.1589    5.1441 H   0  0  0  0  0  0  0  0  0  0  0  0
   -4.5526    1.2667    3.6109 H   0  0  0  0  0  0  0  0  0  0  0  0
   -6.4587    1.7375    2.1578 H   0  0  0  0  0  0  0  0  0  0  0  0
   -7.3242    2.3175    0.0731 H   0  0  0  0  0  0  0  0  0  0  0  0
   -8.9662    1.9372   -0.4821 H   0  0  0  0  0  0  0  0  0  0  0  0
   -8.6307    1.9895    1.2646 H   0  0  0  0  0  0  0  0  0  0  0  0
   -6.3870   -2.3037    0.7652 H   0  0  0  0  0  0  0  0  0  0  0  0
   -4.3998   -2.7481    2.1594 H   0  0  0  0  0  0  0  0  0  0  0  0
   -3.6385   -3.0285    4.7498 H   0  0  0  0  0  0  0  0  0  0  0  0
   -3.4994   -4.2876    5.9893 H   0  0  0  0  0  0  0  0  0  0  0  0
   -2.1026   -5.6570    4.4392 H   0  0  0  0  0  0  0  0  0  0  0  0
   -3.6705   -5.2887    3.7175 H   0  0  0  0  0  0  0  0  0  0  0  0
   -2.2281   -4.4074    3.1969 H   0  0  0  0  0  0  0  0  0  0  0  0
    3.9770   -2.5617    8.1624 H   0  0  0  0  0  0  0  0  0  0  0  0
    4.1570   -2.2719    6.4229 H   0  0  0  0  0  0  0  0  0  0  0  0
    3.6987   -5.0160    7.7134 H   0  0  0  0  0  0  0  0  0  0  0  0
    5.2413   -4.4102    7.1004 H   0  0  0  0  0  0  0  0  0  0  0  0
    3.9033   -4.7084    5.9846 H   0  0  0  0  0  0  0  0  0  0  0  0
    0.7340   -4.8793    9.1200 H   0  0  0  0  0  0  0  0  0  0  0  0
    4.1834   -5.8806   13.0749 H   0  0  0  0  0  0  0  0  0  0  0  0
    5.3134   -1.2095   11.4669 H   0  0  0  0  0  0  0  0  0  0  0  0
    6.9823   -1.9212   14.3913 H   0  0  0  0  0  0  0  0  0  0  0  0
    8.9536   -1.9925   12.8725 H   0  0  0  0  0  0  0  0  0  0  0  0
    8.2615   -3.4527   10.8167 H   0  0  0  0  0  0  0  0  0  0  0  0
    7.6897   -5.8963   11.6866 H   0  0  0  0  0  0  0  0  0  0  0  0
    8.0309   -5.9426   14.2790 H   0  0  0  0  0  0  0  0  0  0  0  0
    9.0398   -3.5697   15.0524 H   0  0  0  0  0  0  0  0  0  0  0  0
   10.0059   -4.2672   13.7282 H   0  0  0  0  0  0  0  0  0  0  0  0
    6.4263   -4.2956   15.2366 H   0  0  0  0  0  0  0  0  0  0  0  0
  1  2  2  0  0  0  0
  2  3  1  0  0  0  0
  3  4  2  0  0  0  0
  3  5  1  0  0  0  0
  5  6  2  0  0  0  0
  6  7  1  0  0  0  0
  7  8  2  0  0  0  0
  8  9  1  0  0  0  0
  9 10  2  0  0  0  0
 10 11  1  0  0  0  0
 11 12  2  0  0  0  0
 12 13  1  0  0  0  0
 13 14  3  0  0  0  0
 12 15  1  0  0  0  0
 15 16  3  0  0  0  0
  8 17  1  0  0  0  0
 17 18  1  0  0  0  0
 18 19  1  0  0  0  0
 19 20  2  0  0  0  0
 20 21  1  0  0  0  0
 21 22  1  0  0  0  0
 21 23  1  0  0  0  0
  1 24  1  0  0  0  0
 24 25  2  0  0  0  0
 25 26  1  0  0  0  0
 26 27  1  0  0  0  0
 27 28  2  0  0  0  0
 28 29  1  0  0  0  0
 29 30  2  0  0  0  0
 30 31  1  0  0  0  0
 31 32  1  0  0  0  0
 30 33  1  0  0  0  0
 33 34  2  0  0  0  0
 26 35  1  0  0  0  0
 35 36  2  0  0  0  0
 36 37  1  0  0  0  0
 37 38  2  0  0  0  0
 38 39  1  0  0  0  0
 39 40  1  0  0  0  0
 38 41  1  0  0  0  0
 41 42  2  0  0  0  0
 25 43  1  0  0  0  0
 43 44  1  0  0  0  0
 44 45  1  0  0  0  0
 45 46  2  0  0  0  0
 46 47  1  0  0  0  0
 47 48  1  0  0  0  0
 48 49  2  0  0  0  0
 49 50  1  0  0  0  0
 50 51  2  0  0  0  0
 51 52  1  0  0  0  0
 52 53  1  0  0  0  0
 51 54  1  0  0  0  0
 54 55  2  0  0  0  0
 47 56  1  0  0  0  0
 56 57  2  0  0  0  0
 57 58  1  0  0  0  0
 58 59  2  0  0  0  0
 59 60  1  0  0  0  0
 60 61  1  0  0  0  0
 59 62  1  0  0  0  0
 62 63  2  0  0  0  0
 46 64  1  0  0  0  0
 64 65  1  0  0  0  0
 45 66  1  0  0  0  0
 66 67  2  0  0  0  0
 67 68  1  0  0  0  0
 68 69  1  0  0  0  0
 69 70  2  0  0  0  0
 70 71  1  0  0  0  0
 71 72  2  0  0  0  0
 72 73  1  0  0  0  0
 73 74  1  0  0  0  0
 72 75  1  0  0  0  0
 75 76  2  0  0  0  0
 68 77  1  0  0  0  0
 77 78  2  0  0  0  0
 78 79  1  0  0  0  0
 79 80  2  0  0  0  0
 80 81  1  0  0  0  0
 81 82  1  0  0  0  0
 80 83  1  0  0  0  0
 83 84  2  0  0  0  0
 67 85  1  0  0  0  0
 85 86  1  0  0  0  0
 86 87  1  0  0  0  0
 87 88  2  0  0  0  0
 88 89  1  0  0  0  0
 89 90  1  0  0  0  0
 90 91  2  0  0  0  0
 91 92  1  0  0  0  0
 92 93  2  0  0  0  0
 93 94  1  0  0  0  0
 94 95  1  0  0  0  0
 93 96  1  0  0  0  0
 96 97  2  0  0  0  0
 89 98  1  0  0  0  0
 98 99  2  0  0  0  0
 99100  1  0  0  0  0
100101  2  0  0  0  0
101102  1  0  0  0  0
102103  1  0  0  0  0
101104  1  0  0  0  0
104105  2  0  0  0  0
 88106  1  0  0  0  0
106107  1  0  0  0  0
 87108  1  0  0  0  0
108109  2  0  0  0  0
109110  1  0  0  0  0
110111  1  0  0  0  0
111112  2  0  0  0  0
111113  1  0  0  0  0
113114  1  0  0  0  0
114115  1  0  0  0  0
110116  2  0  0  0  0
116117  1  0  0  0  0
117118  1  0  0  0  0
118119  1  0  0  0  0
117120  1  0  0  0  0
120121  2  0  0  0  0
116122  1  0  0  0  0
122123  2  0  0  0  0
123124  1  0  0  0  0
124125  2  0  0  0  0
124126  1  0  0  0  0
126127  2  0  0  0  0
127128  1  0  0  0  0
128129  2  0  0  0  0
129130  1  0  0  0  0
130131  2  0  0  0  0
131132  1  0  0  0  0
132133  2  0  0  0  0
133134  1  0  0  0  0
134135  3  0  0  0  0
133136  1  0  0  0  0
136137  3  0  0  0  0
129138  1  0  0  0  0
138139  1  0  0  0  0
139140  1  0  0  0  0
140141  2  0  0  0  0
141142  1  0  0  0  0
142143  1  0  0  0  0
142144  1  0  0  0  0
 11  2  1  0  0  0  0
 23 17  1  0  0  0  0
 65 24  1  0  0  0  0
107 66  1  0  0  0  0
113108  1  0  0  0  0
132123  1  0  0  0  0
144138  1  0  0  0  0
 10  5  1  0  0  0  0
 22 18  1  0  0  0  0
 34 27  1  0  0  0  0
 42 35  1  0  0  0  0
 64 43  2  0  0  0  0
 76 69  1  0  0  0  0
 84 77  1  0  0  0  0
106 85  2  0  0  0  0
120109  1  0  0  0  0
131126  1  0  0  0  0
143139  1  0  0  0  0
 23  7  1  0  0  0  0
 55 48  1  0  0  0  0
 63 56  1  0  0  0  0
 97 90  1  0  0  0  0
105 98  1  0  0  0  0
144128  1  0  0  0  0
  1145  1  0  0  0  0
  6146  1  0  0  0  0
  9147  1  0  0  0  0
 17148  1  0  0  0  0
 18149  1  0  0  0  0
 19150  1  0  0  0  0
 20151  1  0  0  0  0
 21152  1  0  0  0  0
 22153  1  0  0  0  0
 22154  1  0  0  0  0
 23155  1  0  0  0  0
 28156  1  0  0  0  0
 29157  1  0  0  0  0
 32158  1  0  0  0  0
 32159  1  0  0  0  0
 32160  1  0  0  0  0
 33161  1  0  0  0  0
 34162  1  0  0  0  0
 36163  1  0  0  0  0
 37164  1  0  0  0  0
 40165  1  0  0  0  0
 40166  1  0  0  0  0
 40167  1  0  0  0  0
 41168  1  0  0  0  0
 42169  1  0  0  0  0
 49170  1  0  0  0  0
 50171  1  0  0  0  0
 53172  1  0  0  0  0
 53173  1  0  0  0  0
 53174  1  0  0  0  0
 54175  1  0  0  0  0
 55176  1  0  0  0  0
 57177  1  0  0  0  0
 58178  1  0  0  0  0
 61179  1  0  0  0  0
 61180  1  0  0  0  0
 61181  1  0  0  0  0
 62182  1  0  0  0  0
 63183  1  0  0  0  0
 70184  1  0  0  0  0
 71185  1  0  0  0  0
 74186  1  0  0  0  0
 74187  1  0  0  0  0
 74188  1  0  0  0  0
 75189  1  0  0  0  0
 76190  1  0  0  0  0
 78191  1  0  0  0  0
 79192  1  0  0  0  0
 82193  1  0  0  0  0
 82194  1  0  0  0  0
 82195  1  0  0  0  0
 83196  1  0  0  0  0
 84197  1  0  0  0  0
 91198  1  0  0  0  0
 92199  1  0  0  0  0
 95200  1  0  0  0  0
 95201  1  0  0  0  0
 95202  1  0  0  0  0
 96203  1  0  0  0  0
 97204  1  0  0  0  0
 99205  1  0  0  0  0
100206  1  0  0  0  0
103207  1  0  0  0  0
103208  1  0  0  0  0
103209  1  0  0  0  0
104210  1  0  0  0  0
105211  1  0  0  0  0
114212  1  0  0  0  0
114213  1  0  0  0  0
115214  1  0  0  0  0
115215  1  0  0  0  0
115216  1  0  0  0  0
118217  1  0  0  0  0
118218  1  0  0  0  0
119219  1  0  0  0  0
119220  1  0  0  0  0
119221  1  0  0  0  0
122222  1  0  0  0  0
127223  1  0  0  0  0
130224  1  0  0  0  0
138225  1  0  0  0  0
139226  1  0  0  0  0
140227  1  0  0  0  0
141228  1  0  0  0  0
142229  1  0  0  0  0
143230  1  0  0  0  0
143231  1  0  0  0  0
144232  1  0  0  0  0
M  END
