
  xtb     02062219043D
 energy: -373.525321920505 gnorm: 0.000480326324 xtb: 6.4.1 (unknown)
219242  0     0  0            999 V2000
    5.1401    4.5860    4.8380 C   0  0  0  0  0  0  0  0  0  0  0  0
    5.0160    5.3090    5.9980 C   0  0  0  0  0  0  0  0  0  0  0  0
    3.9451    5.1919    6.9931 C   0  0  0  0  0  0  0  0  0  0  0  0
    3.1148    4.3031    7.0928 O   0  0  0  0  0  0  0  0  0  0  0  0
    4.0554    6.3882    7.8513 C   0  0  0  0  0  0  0  0  0  0  0  0
    3.2279    6.7527    8.9102 C   0  0  0  0  0  0  0  0  0  0  0  0
    3.5764    7.9361    9.5166 C   0  0  0  0  0  0  0  0  0  0  0  0
    4.6704    8.7062    9.1036 C   0  0  0  0  0  0  0  0  0  0  0  0
    5.4961    8.3602    8.0601 C   0  0  0  0  0  0  0  0  0  0  0  0
    5.1568    7.1613    7.4291 C   0  0  0  0  0  0  0  0  0  0  0  0
    5.7960    6.4855    6.3035 C   0  0  0  0  0  0  0  0  0  0  0  0
    6.9254    6.9188    5.6526 C   0  0  0  0  0  0  0  0  0  0  0  0
    7.5728    8.1475    5.8877 C   0  0  0  0  0  0  0  0  0  0  0  0
    8.1467    9.1390    5.9775 N   0  0  0  0  0  0  0  0  0  0  0  0
    7.6218    6.2102    4.6553 C   0  0  0  0  0  0  0  0  0  0  0  0
    8.2771    5.7058    3.8556 N   0  0  0  0  0  0  0  0  0  0  0  0
    4.4335    9.7552   10.1607 C   0  0  0  0  0  0  0  0  0  0  0  0
    5.3514    9.7439   11.4079 C   0  0  0  0  0  0  0  0  0  0  0  0
    5.8268    8.3223   11.5779 C   0  0  0  0  0  0  0  0  0  0  0  0
    4.7906    7.5927   11.9692 C   0  0  0  0  0  0  0  0  0  0  0  0
    3.5956    8.5081   12.0711 C   0  0  0  0  0  0  0  0  0  0  0  0
    4.2864    9.8075   12.5145 C   0  0  0  0  0  0  0  0  0  0  0  0
    3.2135    8.8965   10.6214 C   0  0  0  0  0  0  0  0  0  0  0  0
    4.3671    3.5452    4.3184 C   0  0  0  0  0  0  0  0  0  0  0  0
    4.4377    3.1407    2.9655 C   0  0  0  0  0  0  0  0  0  0  0  0
    5.1132    3.7976    1.9678 N   0  0  0  0  0  0  0  0  0  0  0  0
    5.6001    3.0521    0.8807 C   0  0  0  0  0  0  0  0  0  0  0  0
    5.4654    3.5229   -0.4213 C   0  0  0  0  0  0  0  0  0  0  0  0
    5.9260    2.7779   -1.4892 C   0  0  0  0  0  0  0  0  0  0  0  0
    6.5295    1.5457   -1.2707 C   0  0  0  0  0  0  0  0  0  0  0  0
    7.1487    0.5021   -2.5464 S   0  0  0  0  0  0  0  0  0  0  0  0
    6.6823    1.3549   -4.0797 C   0  0  0  0  0  0  0  0  0  0  0  0
    6.6828    1.0809    0.0351 C   0  0  0  0  0  0  0  0  0  0  0  0
    6.2275    1.8245    1.0988 C   0  0  0  0  0  0  0  0  0  0  0  0
    5.2603    5.1958    1.9663 C   0  0  0  0  0  0  0  0  0  0  0  0
    4.2290    6.0189    2.4266 C   0  0  0  0  0  0  0  0  0  0  0  0
    4.4261    7.3758    2.5325 C   0  0  0  0  0  0  0  0  0  0  0  0
    5.6453    7.9454    2.1616 C   0  0  0  0  0  0  0  0  0  0  0  0
    5.8255    9.6796    2.4258 S   0  0  0  0  0  0  0  0  0  0  0  0
    7.6188    9.9376    2.3293 C   0  0  0  0  0  0  0  0  0  0  0  0
    6.6353    7.1402    1.6158 C   0  0  0  0  0  0  0  0  0  0  0  0
    6.4464    5.7743    1.5256 C   0  0  0  0  0  0  0  0  0  0  0  0
    3.6428    2.0054    2.7407 C   0  0  0  0  0  0  0  0  0  0  0  0
    3.2833    1.0797    1.3229 S   0  0  0  0  0  0  0  0  0  0  0  0
    2.0919    0.1616    2.2276 C   0  0  0  0  0  0  0  0  0  0  0  0
    2.1123    0.4458    3.5941 C   0  0  0  0  0  0  0  0  0  0  0  0
    1.5042   -0.3212    4.5570 N   0  0  0  0  0  0  0  0  0  0  0  0
    1.3511   -1.7070    4.3904 C   0  0  0  0  0  0  0  0  0  0  0  0
    2.2990   -2.4608    3.6967 C   0  0  0  0  0  0  0  0  0  0  0  0
    2.1205   -3.8146    3.5267 C   0  0  0  0  0  0  0  0  0  0  0  0
    0.9985   -4.4555    4.0513 C   0  0  0  0  0  0  0  0  0  0  0  0
    0.8768   -6.1892    3.7528 S   0  0  0  0  0  0  0  0  0  0  0  0
   -0.6653   -6.6712    4.5802 C   0  0  0  0  0  0  0  0  0  0  0  0
    0.0642   -3.7133    4.7615 C   0  0  0  0  0  0  0  0  0  0  0  0
    0.2409   -2.3538    4.9268 C   0  0  0  0  0  0  0  0  0  0  0  0
    1.1232    0.2843    5.7634 C   0  0  0  0  0  0  0  0  0  0  0  0
    0.5264    1.5422    5.7476 C   0  0  0  0  0  0  0  0  0  0  0  0
    0.2184    2.1819    6.9304 C   0  0  0  0  0  0  0  0  0  0  0  0
    0.5016    1.5685    8.1433 C   0  0  0  0  0  0  0  0  0  0  0  0
    0.1914    2.3519    9.6925 S   0  0  0  0  0  0  0  0  0  0  0  0
    0.4360    4.1010    9.2621 C   0  0  0  0  0  0  0  0  0  0  0  0
    1.0453    0.2871    8.1614 C   0  0  0  0  0  0  0  0  0  0  0  0
    1.3586   -0.3503    6.9822 C   0  0  0  0  0  0  0  0  0  0  0  0
    2.9618    1.5526    3.8648 C   0  0  0  0  0  0  0  0  0  0  0  0
    3.2444    2.5548    5.2463 S   0  0  0  0  0  0  0  0  0  0  0  0
    1.1816   -0.6316    1.4709 C   0  0  0  0  0  0  0  0  0  0  0  0
   -0.1451   -0.8774    1.7985 C   0  0  0  0  0  0  0  0  0  0  0  0
   -0.6497   -0.4338    2.9644 F   0  0  0  0  0  0  0  0  0  0  0  0
   -1.0683   -1.4441    0.9069 C   0  0  0  0  0  0  0  0  0  0  0  0
   -2.3224   -1.6201    1.3643 F   0  0  0  0  0  0  0  0  0  0  0  0
   -0.7823   -1.7670   -0.4112 C   0  0  0  0  0  0  0  0  0  0  0  0
    0.5896   -1.6612   -0.7460 C   0  0  0  0  0  0  0  0  0  0  0  0
    1.5410   -1.0882    0.1726 C   0  0  0  0  0  0  0  0  0  0  0  0
    2.7028   -1.0493   -0.4419 N   0  0  0  0  0  0  0  0  0  0  0  0
    2.5020   -1.5584   -1.6572 O   0  0  0  0  0  0  0  0  0  0  0  0
    1.2335   -1.9249   -1.8635 N   0  0  0  0  0  0  0  0  0  0  0  0
   -1.7936   -1.9993   -1.4020 C   0  0  0  0  0  0  0  0  0  0  0  0
   -2.9847   -1.2933   -1.5372 C   0  0  0  0  0  0  0  0  0  0  0  0
   -3.3667   -0.1979   -0.7844 N   0  0  0  0  0  0  0  0  0  0  0  0
   -4.7316   -0.0032   -0.5251 C   0  0  0  0  0  0  0  0  0  0  0  0
   -5.2804    1.2792   -0.5371 C   0  0  0  0  0  0  0  0  0  0  0  0
   -6.6251    1.4567   -0.3071 C   0  0  0  0  0  0  0  0  0  0  0  0
   -7.4544    0.3615   -0.0671 C   0  0  0  0  0  0  0  0  0  0  0  0
   -9.1613    0.7149    0.2032 S   0  0  0  0  0  0  0  0  0  0  0  0
   -9.9433   -0.9228    0.2505 C   0  0  0  0  0  0  0  0  0  0  0  0
   -6.9090   -0.9145   -0.0418 C   0  0  0  0  0  0  0  0  0  0  0  0
   -5.5579   -1.0923   -0.2657 C   0  0  0  0  0  0  0  0  0  0  0  0
   -2.4209    0.7146   -0.2992 C   0  0  0  0  0  0  0  0  0  0  0  0
   -2.5755    1.2822    0.9672 C   0  0  0  0  0  0  0  0  0  0  0  0
   -1.6154    2.1293    1.4743 C   0  0  0  0  0  0  0  0  0  0  0  0
   -0.4726    2.4278    0.7361 C   0  0  0  0  0  0  0  0  0  0  0  0
    0.7245    3.4776    1.5024 S   0  0  0  0  0  0  0  0  0  0  0  0
    1.7449    4.0468    0.1126 C   0  0  0  0  0  0  0  0  0  0  0  0
   -0.3217    1.8834   -0.5331 C   0  0  0  0  0  0  0  0  0  0  0  0
   -1.2931    1.0479   -1.0485 C   0  0  0  0  0  0  0  0  0  0  0  0
   -3.7207   -1.7757   -2.6457 C   0  0  0  0  0  0  0  0  0  0  0  0
   -5.2123   -1.3095   -3.3709 S   0  0  0  0  0  0  0  0  0  0  0  0
   -4.9981   -2.5175   -4.6502 C   0  0  0  0  0  0  0  0  0  0  0  0
   -3.7608   -3.1858   -4.5407 C   0  0  0  0  0  0  0  0  0  0  0  0
   -3.1810   -4.0319   -5.4426 N   0  0  0  0  0  0  0  0  0  0  0  0
   -2.2097   -4.9419   -4.9603 C   0  0  0  0  0  0  0  0  0  0  0  0
   -0.9518   -4.9927   -5.5479 C   0  0  0  0  0  0  0  0  0  0  0  0
    0.0094   -5.8592   -5.0648 C   0  0  0  0  0  0  0  0  0  0  0  0
   -0.2823   -6.6877   -3.9884 C   0  0  0  0  0  0  0  0  0  0  0  0
    0.8641   -7.8201   -3.2773 S   0  0  0  0  0  0  0  0  0  0  0  0
    2.4325   -7.4367   -4.1072 C   0  0  0  0  0  0  0  0  0  0  0  0
   -1.5558   -6.6568   -3.4195 C   0  0  0  0  0  0  0  0  0  0  0  0
   -2.5129   -5.7914   -3.8982 C   0  0  0  0  0  0  0  0  0  0  0  0
   -3.4618   -4.0556   -6.8097 C   0  0  0  0  0  0  0  0  0  0  0  0
   -3.4211   -5.2746   -7.4946 C   0  0  0  0  0  0  0  0  0  0  0  0
   -3.7479   -5.3370   -8.8281 C   0  0  0  0  0  0  0  0  0  0  0  0
   -4.1287   -4.1879   -9.5219 C   0  0  0  0  0  0  0  0  0  0  0  0
   -4.6270   -4.4149  -11.1943 S   0  0  0  0  0  0  0  0  0  0  0  0
   -5.0015   -2.7430  -11.7879 C   0  0  0  0  0  0  0  0  0  0  0  0
   -4.1082   -2.9642   -8.8635 C   0  0  0  0  0  0  0  0  0  0  0  0
   -3.7777   -2.9009   -7.5235 C   0  0  0  0  0  0  0  0  0  0  0  0
   -3.0812   -2.7743   -3.3661 C   0  0  0  0  0  0  0  0  0  0  0  0
   -1.5314   -3.1566   -2.6863 S   0  0  0  0  0  0  0  0  0  0  0  0
   -6.0265   -2.5986   -5.5916 C   0  0  0  0  0  0  0  0  0  0  0  0
   -6.2847   -3.6603   -6.4311 C   0  0  0  0  0  0  0  0  0  0  0  0
   -5.9430   -5.0605   -6.1325 C   0  0  0  0  0  0  0  0  0  0  0  0
   -5.4049   -5.4872   -5.1266 O   0  0  0  0  0  0  0  0  0  0  0  0
   -6.5163   -5.8565   -7.2387 C   0  0  0  0  0  0  0  0  0  0  0  0
   -6.4201   -7.2320   -7.4260 C   0  0  0  0  0  0  0  0  0  0  0  0
   -7.0281   -7.6853   -8.5732 C   0  0  0  0  0  0  0  0  0  0  0  0
   -7.7119   -6.8394   -9.4547 C   0  0  0  0  0  0  0  0  0  0  0  0
   -7.8233   -5.4810   -9.2770 C   0  0  0  0  0  0  0  0  0  0  0  0
   -7.1875   -4.9979   -8.1312 C   0  0  0  0  0  0  0  0  0  0  0  0
   -7.0371   -3.6266   -7.6536 C   0  0  0  0  0  0  0  0  0  0  0  0
   -7.3803   -2.4903   -8.3468 C   0  0  0  0  0  0  0  0  0  0  0  0
   -8.0286   -2.4771   -9.5947 C   0  0  0  0  0  0  0  0  0  0  0  0
   -8.5318   -2.3830  -10.6240 N   0  0  0  0  0  0  0  0  0  0  0  0
   -7.0299   -1.1861   -7.9457 C   0  0  0  0  0  0  0  0  0  0  0  0
   -6.7299   -0.1007   -7.7161 N   0  0  0  0  0  0  0  0  0  0  0  0
   -8.0807   -7.9699  -10.3835 C   0  0  0  0  0  0  0  0  0  0  0  0
   -7.2707   -8.0768  -11.6921 C   0  0  0  0  0  0  0  0  0  0  0  0
   -7.4917   -9.5026  -12.1419 C   0  0  0  0  0  0  0  0  0  0  0  0
   -6.8211  -10.2948  -11.3153 C   0  0  0  0  0  0  0  0  0  0  0  0
   -6.1382   -9.4173  -10.2908 C   0  0  0  0  0  0  0  0  0  0  0  0
   -5.8382   -8.1866  -11.1563 C   0  0  0  0  0  0  0  0  0  0  0  0
   -7.3008   -8.9107   -9.4099 C   0  0  0  0  0  0  0  0  0  0  0  0
    5.9338    4.9061    4.1752 H   0  0  0  0  0  0  0  0  0  0  0  0
    2.3915    6.1390    9.2035 H   0  0  0  0  0  0  0  0  0  0  0  0
    6.3331    8.9628    7.7488 H   0  0  0  0  0  0  0  0  0  0  0  0
    4.2401   10.7624    9.7969 H   0  0  0  0  0  0  0  0  0  0  0  0
    6.1212   10.5109   11.4085 H   0  0  0  0  0  0  0  0  0  0  0  0
    6.8230    7.9927   11.3476 H   0  0  0  0  0  0  0  0  0  0  0  0
    4.7480    6.5315   12.1309 H   0  0  0  0  0  0  0  0  0  0  0  0
    2.7667    8.1503   12.6765 H   0  0  0  0  0  0  0  0  0  0  0  0
    3.6442   10.6848   12.4487 H   0  0  0  0  0  0  0  0  0  0  0  0
    4.7128    9.7379   13.5140 H   0  0  0  0  0  0  0  0  0  0  0  0
    2.2233    9.3442   10.5588 H   0  0  0  0  0  0  0  0  0  0  0  0
    4.9926    4.4781   -0.5980 H   0  0  0  0  0  0  0  0  0  0  0  0
    5.8022    3.1693   -2.4860 H   0  0  0  0  0  0  0  0  0  0  0  0
    7.0138    0.7072   -4.8853 H   0  0  0  0  0  0  0  0  0  0  0  0
    7.1909    2.3124   -4.1462 H   0  0  0  0  0  0  0  0  0  0  0  0
    5.6037    1.4731   -4.1225 H   0  0  0  0  0  0  0  0  0  0  0  0
    7.1666    0.1310    0.1997 H   0  0  0  0  0  0  0  0  0  0  0  0
    6.3603    1.4663    2.1084 H   0  0  0  0  0  0  0  0  0  0  0  0
    3.2900    5.5828    2.7352 H   0  0  0  0  0  0  0  0  0  0  0  0
    3.6431    8.0137    2.9127 H   0  0  0  0  0  0  0  0  0  0  0  0
    7.9590    9.8498    1.3015 H   0  0  0  0  0  0  0  0  0  0  0  0
    8.1241    9.2284    2.9782 H   0  0  0  0  0  0  0  0  0  0  0  0
    7.7877   10.9478    2.6885 H   0  0  0  0  0  0  0  0  0  0  0  0
    7.5728    7.5568    1.2873 H   0  0  0  0  0  0  0  0  0  0  0  0
    7.2376    5.1483    1.1441 H   0  0  0  0  0  0  0  0  0  0  0  0
    3.1809   -1.9857    3.2943 H   0  0  0  0  0  0  0  0  0  0  0  0
    2.8534   -4.3962    2.9890 H   0  0  0  0  0  0  0  0  0  0  0  0
   -1.5063   -6.1495    4.1331 H   0  0  0  0  0  0  0  0  0  0  0  0
   -0.7632   -7.7392    4.4125 H   0  0  0  0  0  0  0  0  0  0  0  0
   -0.5944   -6.4704    5.6453 H   0  0  0  0  0  0  0  0  0  0  0  0
   -0.8130   -4.1760    5.1835 H   0  0  0  0  0  0  0  0  0  0  0  0
   -0.5001   -1.7790    5.4607 H   0  0  0  0  0  0  0  0  0  0  0  0
    0.3000    2.0117    4.8018 H   0  0  0  0  0  0  0  0  0  0  0  0
   -0.2406    3.1563    6.8975 H   0  0  0  0  0  0  0  0  0  0  0  0
    0.6582    4.6088   10.1962 H   0  0  0  0  0  0  0  0  0  0  0  0
   -0.4689    4.5168    8.8270 H   0  0  0  0  0  0  0  0  0  0  0  0
    1.2733    4.1673    8.5721 H   0  0  0  0  0  0  0  0  0  0  0  0
    1.2429   -0.1884    9.1096 H   0  0  0  0  0  0  0  0  0  0  0  0
    1.8117   -1.3304    6.9973 H   0  0  0  0  0  0  0  0  0  0  0  0
   -4.6471    2.1303   -0.7375 H   0  0  0  0  0  0  0  0  0  0  0  0
   -7.0553    2.4461   -0.3224 H   0  0  0  0  0  0  0  0  0  0  0  0
   -9.6118   -1.4722    1.1270 H   0  0  0  0  0  0  0  0  0  0  0  0
  -11.0104   -0.7350    0.3175 H   0  0  0  0  0  0  0  0  0  0  0  0
   -9.7194   -1.4632   -0.6644 H   0  0  0  0  0  0  0  0  0  0  0  0
   -7.5197   -1.7795    0.1590 H   0  0  0  0  0  0  0  0  0  0  0  0
   -5.1352   -2.0851   -0.2266 H   0  0  0  0  0  0  0  0  0  0  0  0
   -3.4429    1.0328    1.5586 H   0  0  0  0  0  0  0  0  0  0  0  0
   -1.7326    2.5529    2.4595 H   0  0  0  0  0  0  0  0  0  0  0  0
    2.3502    4.8594    0.5031 H   0  0  0  0  0  0  0  0  0  0  0  0
    1.1000    4.4147   -0.6796 H   0  0  0  0  0  0  0  0  0  0  0  0
    2.3895    3.2440   -0.2368 H   0  0  0  0  0  0  0  0  0  0  0  0
    0.5499    2.1012   -1.1300 H   0  0  0  0  0  0  0  0  0  0  0  0
   -1.1677    0.6376   -2.0399 H   0  0  0  0  0  0  0  0  0  0  0  0
   -0.7241   -4.3441   -6.3811 H   0  0  0  0  0  0  0  0  0  0  0  0
    0.9799   -5.8728   -5.5328 H   0  0  0  0  0  0  0  0  0  0  0  0
    2.6739   -6.3872   -3.9681 H   0  0  0  0  0  0  0  0  0  0  0  0
    2.3738   -7.6958   -5.1604 H   0  0  0  0  0  0  0  0  0  0  0  0
    3.1791   -8.0554   -3.6189 H   0  0  0  0  0  0  0  0  0  0  0  0
   -1.7789   -7.3210   -2.5990 H   0  0  0  0  0  0  0  0  0  0  0  0
   -3.5065   -5.7716   -3.4792 H   0  0  0  0  0  0  0  0  0  0  0  0
   -3.1586   -6.1741   -6.9596 H   0  0  0  0  0  0  0  0  0  0  0  0
   -3.7328   -6.2831   -9.3468 H   0  0  0  0  0  0  0  0  0  0  0  0
   -5.2674   -2.8614  -12.8337 H   0  0  0  0  0  0  0  0  0  0  0  0
   -5.8461   -2.3305  -11.2442 H   0  0  0  0  0  0  0  0  0  0  0  0
   -4.1219   -2.1122  -11.6998 H   0  0  0  0  0  0  0  0  0  0  0  0
   -4.3619   -2.0500   -9.3762 H   0  0  0  0  0  0  0  0  0  0  0  0
   -3.7702   -1.9407   -7.0300 H   0  0  0  0  0  0  0  0  0  0  0  0
   -6.6823   -1.7368   -5.6347 H   0  0  0  0  0  0  0  0  0  0  0  0
   -5.8953   -7.8537   -6.7173 H   0  0  0  0  0  0  0  0  0  0  0  0
   -8.3570   -4.8401   -9.9591 H   0  0  0  0  0  0  0  0  0  0  0  0
   -9.1466   -8.1390  -10.5247 H   0  0  0  0  0  0  0  0  0  0  0  0
   -7.4730   -7.2946  -12.4181 H   0  0  0  0  0  0  0  0  0  0  0  0
   -8.1359   -9.7834  -12.9545 H   0  0  0  0  0  0  0  0  0  0  0  0
   -6.7943  -11.3688  -11.2987 H   0  0  0  0  0  0  0  0  0  0  0  0
   -5.3105   -9.8597   -9.7424 H   0  0  0  0  0  0  0  0  0  0  0  0
   -5.5139   -7.3107  -10.5985 H   0  0  0  0  0  0  0  0  0  0  0  0
   -5.1187   -8.4013  -11.9445 H   0  0  0  0  0  0  0  0  0  0  0  0
   -7.8414   -9.7165   -8.9162 H   0  0  0  0  0  0  0  0  0  0  0  0
  1  2  2  0  0  0  0
  2  3  1  0  0  0  0
  3  4  2  0  0  0  0
  3  5  1  0  0  0  0
  5  6  2  0  0  0  0
  6  7  1  0  0  0  0
  7  8  2  0  0  0  0
  8  9  1  0  0  0  0
  9 10  2  0  0  0  0
 10 11  1  0  0  0  0
 11 12  2  0  0  0  0
 12 13  1  0  0  0  0
 13 14  3  0  0  0  0
 12 15  1  0  0  0  0
 15 16  3  0  0  0  0
  8 17  1  0  0  0  0
 17 18  1  0  0  0  0
 18 19  1  0  0  0  0
 19 20  2  0  0  0  0
 20 21  1  0  0  0  0
 21 22  1  0  0  0  0
 21 23  1  0  0  0  0
  1 24  1  0  0  0  0
 24 25  2  0  0  0  0
 25 26  1  0  0  0  0
 26 27  1  0  0  0  0
 27 28  2  0  0  0  0
 28 29  1  0  0  0  0
 29 30  2  0  0  0  0
 30 31  1  0  0  0  0
 31 32  1  0  0  0  0
 30 33  1  0  0  0  0
 33 34  2  0  0  0  0
 26 35  1  0  0  0  0
 35 36  2  0  0  0  0
 36 37  1  0  0  0  0
 37 38  2  0  0  0  0
 38 39  1  0  0  0  0
 39 40  1  0  0  0  0
 38 41  1  0  0  0  0
 41 42  2  0  0  0  0
 25 43  1  0  0  0  0
 43 44  1  0  0  0  0
 44 45  1  0  0  0  0
 45 46  2  0  0  0  0
 46 47  1  0  0  0  0
 47 48  1  0  0  0  0
 48 49  2  0  0  0  0
 49 50  1  0  0  0  0
 50 51  2  0  0  0  0
 51 52  1  0  0  0  0
 52 53  1  0  0  0  0
 51 54  1  0  0  0  0
 54 55  2  0  0  0  0
 47 56  1  0  0  0  0
 56 57  2  0  0  0  0
 57 58  1  0  0  0  0
 58 59  2  0  0  0  0
 59 60  1  0  0  0  0
 60 61  1  0  0  0  0
 59 62  1  0  0  0  0
 62 63  2  0  0  0  0
 46 64  1  0  0  0  0
 64 65  1  0  0  0  0
 45 66  1  0  0  0  0
 66 67  2  0  0  0  0
 67 68  1  0  0  0  0
 67 69  1  0  0  0  0
 69 70  1  0  0  0  0
 69 71  2  0  0  0  0
 71 72  1  0  0  0  0
 72 73  1  0  0  0  0
 73 74  2  0  0  0  0
 74 75  1  0  0  0  0
 75 76  1  0  0  0  0
 71 77  1  0  0  0  0
 77 78  2  0  0  0  0
 78 79  1  0  0  0  0
 79 80  1  0  0  0  0
 80 81  2  0  0  0  0
 81 82  1  0  0  0  0
 82 83  2  0  0  0  0
 83 84  1  0  0  0  0
 84 85  1  0  0  0  0
 83 86  1  0  0  0  0
 86 87  2  0  0  0  0
 79 88  1  0  0  0  0
 88 89  2  0  0  0  0
 89 90  1  0  0  0  0
 90 91  2  0  0  0  0
 91 92  1  0  0  0  0
 92 93  1  0  0  0  0
 91 94  1  0  0  0  0
 94 95  2  0  0  0  0
 78 96  1  0  0  0  0
 96 97  1  0  0  0  0
 97 98  1  0  0  0  0
 98 99  2  0  0  0  0
 99100  1  0  0  0  0
100101  1  0  0  0  0
101102  2  0  0  0  0
102103  1  0  0  0  0
103104  2  0  0  0  0
104105  1  0  0  0  0
105106  1  0  0  0  0
104107  1  0  0  0  0
107108  2  0  0  0  0
100109  1  0  0  0  0
109110  2  0  0  0  0
110111  1  0  0  0  0
111112  2  0  0  0  0
112113  1  0  0  0  0
113114  1  0  0  0  0
112115  1  0  0  0  0
115116  2  0  0  0  0
 99117  1  0  0  0  0
117118  1  0  0  0  0
 98119  1  0  0  0  0
119120  2  0  0  0  0
120121  1  0  0  0  0
121122  2  0  0  0  0
121123  1  0  0  0  0
123124  2  0  0  0  0
124125  1  0  0  0  0
125126  2  0  0  0  0
126127  1  0  0  0  0
127128  2  0  0  0  0
128129  1  0  0  0  0
129130  2  0  0  0  0
130131  1  0  0  0  0
131132  3  0  0  0  0
130133  1  0  0  0  0
133134  3  0  0  0  0
126135  1  0  0  0  0
135136  1  0  0  0  0
136137  1  0  0  0  0
137138  2  0  0  0  0
138139  1  0  0  0  0
139140  1  0  0  0  0
139141  1  0  0  0  0
 11  2  1  0  0  0  0
 23 17  1  0  0  0  0
 65 24  1  0  0  0  0
 73 66  1  0  0  0  0
118 77  1  0  0  0  0
129120  1  0  0  0  0
141135  1  0  0  0  0
 10  5  1  0  0  0  0
 22 18  1  0  0  0  0
 34 27  1  0  0  0  0
 42 35  1  0  0  0  0
 64 43  2  0  0  0  0
 76 72  2  0  0  0  0
 87 80  1  0  0  0  0
 95 88  1  0  0  0  0
117 96  2  0  0  0  0
128123  1  0  0  0  0
140136  1  0  0  0  0
 23  7  1  0  0  0  0
 55 48  1  0  0  0  0
 63 56  1  0  0  0  0
108101  1  0  0  0  0
116109  1  0  0  0  0
141125  1  0  0  0  0
  1142  1  0  0  0  0
  6143  1  0  0  0  0
  9144  1  0  0  0  0
 17145  1  0  0  0  0
 18146  1  0  0  0  0
 19147  1  0  0  0  0
 20148  1  0  0  0  0
 21149  1  0  0  0  0
 22150  1  0  0  0  0
 22151  1  0  0  0  0
 23152  1  0  0  0  0
 28153  1  0  0  0  0
 29154  1  0  0  0  0
 32155  1  0  0  0  0
 32156  1  0  0  0  0
 32157  1  0  0  0  0
 33158  1  0  0  0  0
 34159  1  0  0  0  0
 36160  1  0  0  0  0
 37161  1  0  0  0  0
 40162  1  0  0  0  0
 40163  1  0  0  0  0
 40164  1  0  0  0  0
 41165  1  0  0  0  0
 42166  1  0  0  0  0
 49167  1  0  0  0  0
 50168  1  0  0  0  0
 53169  1  0  0  0  0
 53170  1  0  0  0  0
 53171  1  0  0  0  0
 54172  1  0  0  0  0
 55173  1  0  0  0  0
 57174  1  0  0  0  0
 58175  1  0  0  0  0
 61176  1  0  0  0  0
 61177  1  0  0  0  0
 61178  1  0  0  0  0
 62179  1  0  0  0  0
 63180  1  0  0  0  0
 81181  1  0  0  0  0
 82182  1  0  0  0  0
 85183  1  0  0  0  0
 85184  1  0  0  0  0
 85185  1  0  0  0  0
 86186  1  0  0  0  0
 87187  1  0  0  0  0
 89188  1  0  0  0  0
 90189  1  0  0  0  0
 93190  1  0  0  0  0
 93191  1  0  0  0  0
 93192  1  0  0  0  0
 94193  1  0  0  0  0
 95194  1  0  0  0  0
102195  1  0  0  0  0
103196  1  0  0  0  0
106197  1  0  0  0  0
106198  1  0  0  0  0
106199  1  0  0  0  0
107200  1  0  0  0  0
108201  1  0  0  0  0
110202  1  0  0  0  0
111203  1  0  0  0  0
114204  1  0  0  0  0
114205  1  0  0  0  0
114206  1  0  0  0  0
115207  1  0  0  0  0
116208  1  0  0  0  0
119209  1  0  0  0  0
124210  1  0  0  0  0
127211  1  0  0  0  0
135212  1  0  0  0  0
136213  1  0  0  0  0
137214  1  0  0  0  0
138215  1  0  0  0  0
139216  1  0  0  0  0
140217  1  0  0  0  0
140218  1  0  0  0  0
141219  1  0  0  0  0
M  END
