265

C         -6.42540        4.43370       -4.35850
C         -7.60570        3.78460       -4.61190
C         -7.78690        2.33630       -4.77420
O         -6.95200        1.51730       -5.11870
C         -9.20550        2.07130       -4.47940
C         -9.81920        0.82910       -4.33700
C        -11.15770        0.90130       -4.03270
C        -11.83780        2.11650       -3.88060
C        -11.24100        3.34930       -4.00600
C         -9.87870        3.29990       -4.31340
C         -8.91400        4.38500       -4.47340
C         -9.20690        5.72540       -4.46200
C         -8.27960        6.76210       -4.68250
N         -7.60410        7.67510       -4.86190
C        -10.48990        6.26840       -4.25420
N        -11.49100        6.80360       -4.07660
C        -13.14870        1.43630       -3.57220
C        -14.18790        1.38590       -4.71200
C        -15.12900        0.27930       -4.29360
C        -14.48470       -0.87230       -4.43230
C        -13.09750       -0.56360       -4.94720
C        -13.40510        0.66300       -5.81590
C        -12.38860        0.08090       -3.73770
C         -5.14550        3.90230       -4.14950
C         -4.13900        4.55560       -3.40410
N         -4.32900        5.71030       -2.68340
C         -3.23870        6.54600       -2.40590
C         -3.10670        7.13640       -1.15220
C         -2.03800        7.96420       -0.87290
C         -1.08710        8.22300       -1.85140
S          0.33590        9.23560       -1.60290
C         -0.01670       10.09910       -0.04300
C         -1.22520        7.64560       -3.11220
C         -2.28380        6.81140       -3.38740
C         -5.57820        6.00690       -2.10150
C         -6.33920        4.99980       -1.50350
C         -7.60570        5.27440       -1.04350
C         -8.13300        6.56290       -1.14670
S         -9.79470        6.77740       -0.59800
C        -10.23430        8.43750       -1.18000
C         -7.34340        7.58280       -1.66040
C         -6.07720        7.30420       -2.13920
C         -2.96530        3.77880       -3.35610
S         -1.43900        3.93370       -2.54230
C         -1.01050        2.28550       -3.00170
C         -1.97270        1.69750       -3.79460
N         -1.89830        0.40320       -4.28810
C         -0.76400       -0.07000       -4.94740
C         -0.52200       -1.44450       -5.00030
C          0.56070       -1.93610       -5.69410
C          1.43170       -1.07040       -6.35220
S          2.78200       -1.80980       -7.21880
C          3.66390       -0.40910       -7.95900
C          1.20570        0.29630       -6.28870
C          0.12090        0.79140       -5.59110
C         -3.12210       -0.29200       -4.37980
C         -3.55560       -0.82970       -5.58680
C         -4.81190       -1.39090       -5.68520
C         -5.65260       -1.41380       -4.58080
S         -7.29760       -2.05100       -4.66730
C         -7.76580       -1.62340       -6.37290
C         -5.20100       -0.93110       -3.35800
C         -3.94390       -0.37480       -3.25720
C         -3.08050        2.55750       -4.00580
S         -4.63500        2.31260       -4.70730
C          0.00490        1.55040       -2.28530
C          1.37940        1.51660       -2.33740
N          2.18440        2.09390       -3.30960
C          2.00620        3.41910       -3.72140
C          1.69250        4.41910       -2.80080
C          1.63590        5.73790       -3.19730
C          1.88570        6.08880       -4.52210
S          1.87200        7.81070       -4.92060
C          2.64950        7.88000       -6.56080
C          2.13840        5.09190       -5.45470
C          2.19820        3.77300       -5.05470
C          3.22840        1.31580       -3.83150
C          4.40200        1.90580       -4.30140
C          5.41420        1.12950       -4.81760
C          5.30290       -0.25980       -4.84430
S          6.67460       -1.15190       -5.50830
C          6.11590       -2.87740       -5.50060
C          4.14940       -0.85500       -4.35670
C          3.11770       -0.07240       -3.87770
C          1.90650        0.69240       -1.30500
S          3.51070        0.30940       -0.78510
C          2.87690       -0.64950        0.55020
C          1.48520       -0.74180        0.50080
N          0.69560       -1.57750        1.28060
C         -0.51010       -1.06430        1.78160
C         -1.66950       -1.83920        1.78750
C         -2.84450       -1.31960        2.27950
C         -2.89480       -0.01320        2.76450
S         -4.46160        0.54170        3.35340
C         -4.09250        2.13070        4.14790
C         -1.74670        0.76630        2.74480
C         -0.56380        0.23930        2.26490
C          1.09310       -2.88590        1.56050
C          0.71560       -3.49470        2.75840
C          1.17900       -4.75070        3.08930
C          2.02110       -5.43370        2.22220
S          2.71980       -7.01400        2.60500
C          1.44640       -7.76510        3.66300
C          2.37210       -4.84860        1.00940
C          1.91770       -3.58970        0.68130
C          0.95160        0.07410       -0.52110
S         -0.64330        0.51880       -0.99920
C          3.66090       -1.19870        1.60620
C          4.93520       -1.76090        1.66670
N          5.87210       -1.77160        0.64650
C          6.20150       -0.59420       -0.03010
C          6.05450        0.64840        0.58540
C          6.32480        1.81310       -0.10690
C          6.75590        1.75240       -1.42300
S          7.04200        3.20380       -2.39200
C          5.77060        4.33340       -1.74210
C          6.98140        0.51360       -2.01700
C          6.69690       -0.64650       -1.33500
C          6.68150       -2.91580        0.51950
C          8.05520       -2.81380        0.30760
C          8.83090       -3.95070        0.25350
C          8.25690       -5.20580        0.42890
S          9.31650       -6.61690        0.40970
C          8.51570       -7.67000        1.65500
C          6.88430       -5.31380        0.60800
C          6.10410       -4.17670        0.64700
C          5.15930       -2.38680        2.92170
S          6.39280       -3.43490        3.52940
C          5.50180       -3.63460        5.04290
C          4.23610       -2.98350        4.99830
N          3.23420       -3.13040        5.91900
C          2.24730       -2.13340        6.01490
C          0.89470       -2.47270        6.05090
C         -0.06530       -1.48740        6.08270
C          0.30320       -0.14280        6.09500
S         -1.00980        1.02890        6.11830
C         -0.17250        2.62610        5.89580
C          1.64860        0.19840        6.10770
C          2.61140       -0.79100        6.06690
C          3.05400       -4.32920        6.63550
C          2.60310       -4.28780        7.95080
C          2.49480       -5.45000        8.69080
C          2.85840       -6.66670        8.13100
S          2.86240       -8.18940        9.01940
C          2.89700       -7.65640       10.75370
C          3.24520       -6.71690        6.79080
C          3.32930       -5.56440        6.04460
C          4.10600       -2.24410        3.81820
S          2.85000       -1.25280        3.17360
C          5.98370       -4.26520        6.17990
C          7.10320       -5.05480        6.37450
C          8.01820       -5.51520        5.33440
O          8.01030       -5.23830        4.14950
C          8.95620       -6.44540        6.01360
C          8.60490       -6.54870        7.37150
C          9.33450       -7.35190        8.22960
C         10.41550       -8.05080        7.70970
F         11.13400       -8.83300        8.52070
C         10.77660       -7.96030        6.36890
F         11.82500       -8.64760        5.90420
C         10.03620       -7.14450        5.50910
F         10.39030       -7.06030        4.22930
C          7.44990       -5.68350        7.61880
C          6.82850       -5.53780        8.83890
C          7.13400       -6.29600        9.98570
N          7.29620       -6.89010       10.95560
C          5.80180       -4.62460        9.13740
N          4.98100       -3.90070        9.49310
H         -6.49820        5.49860       -4.17990
H         -9.25740       -0.08610       -4.43470
H        -11.77000        4.27680       -3.86260
H        -13.58890        1.67310       -2.60550
H        -14.63750        2.34330       -4.96090
H        -16.11400        0.44670       -3.89910
H        -14.82380       -1.85910       -4.17660
H        -12.55420       -1.38350       -5.40960
H        -12.52070        1.19900       -6.15560
H        -14.03240        0.41580       -6.67080
H        -12.31860       -0.58550       -2.88010
H         -3.84360        6.93530       -0.38850
H         -1.95550        8.39360        0.11260
H         -0.98500       10.58610       -0.10550
H          0.02410        9.40590        0.79220
H          0.76600       10.84400        0.06120
H         -0.49520        7.87080       -3.87240
H         -2.39080        6.37750       -4.37000
H         -5.94060        3.99890       -1.42890
H         -8.20850        4.49510       -0.60290
H        -11.29790        8.53860       -0.98870
H         -9.68410        9.18980       -0.62200
H        -10.04680        8.51380       -2.24680
H         -7.71050        8.59370       -1.72350
H         -5.48400        8.09240       -2.57660
H         -1.19840       -2.12040       -4.49860
H          0.74390       -2.99910       -5.73710
H          4.02820        0.25420       -7.17900
H          4.50450       -0.84210       -8.49270
H          3.01310        0.11050       -8.65630
H          1.86070        0.98680       -6.79480
H         -0.05140        1.85740       -5.56220
H         -2.91290       -0.78460       -6.45370
H         -5.13580       -1.78870       -6.63360
H         -7.30820       -2.31000       -7.07920
H         -8.84640       -1.71630       -6.42690
H         -7.46200       -0.59770       -6.56050
H         -5.84980       -0.97740       -2.49700
H         -3.59650        0.02480       -2.31500
H          1.52090        4.15810       -1.76670
H          1.42190        6.51410       -2.47950
H          2.81500        8.93460       -6.75790
H          1.98480        7.46750       -7.31440
H          3.59880        7.35320       -6.53930
H          2.29520        5.32850       -6.49470
H          2.41560        3.00570       -5.78130
H          4.52230        2.97710       -4.26300
H          6.31390        1.59560       -5.18940
H          6.91350       -3.44410       -5.97090
H          5.97640       -3.21910       -4.47890
H          5.20130       -2.97140       -6.07950
H          4.02640       -1.92510       -4.36070
H          2.21100       -0.55330       -3.54250
H         -1.64000       -2.84660        1.40040
H         -3.74420       -1.91550        2.28570
H         -5.02110        2.44720        4.61260
H         -3.32860        1.98410        4.90590
H         -3.78670        2.86090        3.40400
H         -1.75980        1.78230        3.10370
H          0.33450        0.84030        2.26470
H          0.08420       -2.95760        3.44960
H          0.89430       -5.18560        4.03460
H          1.48430       -7.34750        4.66530
H          1.67800       -8.82490        3.69970
H          0.47230       -7.61200        3.20910
H          2.99860       -5.39780        0.32310
H          2.19830       -3.14790       -0.26320
H          5.72230        0.70190        1.61190
H          6.19540        2.76240        0.38860
H          4.84640        3.78140       -1.59970
H          6.10190        4.78830       -0.81320
H          5.63300        5.10410       -2.49410
H          7.36480        0.47200       -3.02330
H          6.84010       -1.60310       -1.81320
H          8.51400       -1.84100        0.21380
H          9.89700       -3.87590        0.10640
H          9.27530       -8.36830        1.99060
H          7.67980       -8.21150        1.22090
H          8.19540       -7.03650        2.47620
H          6.41570       -6.27840        0.72170
H          5.03690       -4.25980        0.79400
H          0.60470       -3.51220        6.03850
H         -1.11370       -1.74410        6.08690
H         -0.96210        3.36680        5.81080
H          0.44300        2.85030        6.76190
H          0.41780        2.60470        4.98450
H          1.96430        1.22780        6.15270
H          3.65730       -0.52290        6.08150
H          2.36070       -3.33980        8.40450
H          2.15610       -5.38620        9.71120
H          1.92160       -7.28610       11.05590
H          3.14770       -8.54250       11.32830
H          3.66580       -6.90050       10.88430
H          3.48890       -7.67170        6.35020
H          3.63790       -5.61120        5.01100
H          5.36630       -4.12110        7.05700
H          9.10240       -7.45790        9.27630
