
  xtb     02172222293D
 energy: -348.961656183267 gnorm: 0.000732572025 xtb: 6.4.1 (unknown)
217241  0     0  0            999 V2000
   -2.2173   -1.1247   -7.0768 C   0  0  0  0  0  0  0  0  0  0  0  0
   -3.5499   -0.8186   -7.1832 C   0  0  0  0  0  0  0  0  0  0  0  0
   -4.3286   -0.0009   -6.2478 C   0  0  0  0  0  0  0  0  0  0  0  0
   -4.0857    0.2275   -5.0749 O   0  0  0  0  0  0  0  0  0  0  0  0
   -5.5009    0.4736   -7.0066 C   0  0  0  0  0  0  0  0  0  0  0  0
   -6.4538    1.4000   -6.5920 C   0  0  0  0  0  0  0  0  0  0  0  0
   -7.4271    1.6577   -7.5280 C   0  0  0  0  0  0  0  0  0  0  0  0
   -7.4559    1.0337   -8.7814 C   0  0  0  0  0  0  0  0  0  0  0  0
   -6.5182    0.1215   -9.2055 C   0  0  0  0  0  0  0  0  0  0  0  0
   -5.5120   -0.1458   -8.2737 C   0  0  0  0  0  0  0  0  0  0  0  0
   -4.3369   -1.0099   -8.3804 C   0  0  0  0  0  0  0  0  0  0  0  0
   -4.0364   -1.8303   -9.4398 C   0  0  0  0  0  0  0  0  0  0  0  0
   -4.8031   -1.9205  -10.6184 C   0  0  0  0  0  0  0  0  0  0  0  0
   -5.3766   -2.0219  -11.6084 N   0  0  0  0  0  0  0  0  0  0  0  0
   -2.9448   -2.7199   -9.4878 C   0  0  0  0  0  0  0  0  0  0  0  0
   -2.0946   -3.4860   -9.5931 N   0  0  0  0  0  0  0  0  0  0  0  0
   -8.6949    1.7772   -9.2131 C   0  0  0  0  0  0  0  0  0  0  0  0
   -8.5164    2.9607  -10.1961 C   0  0  0  0  0  0  0  0  0  0  0  0
   -7.1190    3.4874   -9.9827 C   0  0  0  0  0  0  0  0  0  0  0  0
   -7.0870    4.0810   -8.7970 C   0  0  0  0  0  0  0  0  0  0  0  0
   -8.4624    3.9678   -8.1879 C   0  0  0  0  0  0  0  0  0  0  0  0
   -9.3272    4.0370   -9.4567 C   0  0  0  0  0  0  0  0  0  0  0  0
   -8.6600    2.4767   -7.8176 C   0  0  0  0  0  0  0  0  0  0  0  0
   -1.2945   -0.7738   -6.0860 C   0  0  0  0  0  0  0  0  0  0  0  0
    0.1025   -0.7481   -6.2988 C   0  0  0  0  0  0  0  0  0  0  0  0
    0.7085   -0.8818   -7.5251 N   0  0  0  0  0  0  0  0  0  0  0  0
    2.0053   -1.4107   -7.6021 C   0  0  0  0  0  0  0  0  0  0  0  0
    2.9381   -0.8717   -8.4883 C   0  0  0  0  0  0  0  0  0  0  0  0
    4.2115   -1.3886   -8.5485 C   0  0  0  0  0  0  0  0  0  0  0  0
    4.5859   -2.4514   -7.7262 C   0  0  0  0  0  0  0  0  0  0  0  0
    6.2498   -3.0129   -7.8837 S   0  0  0  0  0  0  0  0  0  0  0  0
    6.3817   -4.3460   -6.6582 C   0  0  0  0  0  0  0  0  0  0  0  0
    3.6552   -2.9997   -6.8544 C   0  0  0  0  0  0  0  0  0  0  0  0
    2.3751   -2.4846   -6.7978 C   0  0  0  0  0  0  0  0  0  0  0  0
    0.0650   -0.4464   -8.6993 C   0  0  0  0  0  0  0  0  0  0  0  0
    0.1332   -1.2056   -9.8665 C   0  0  0  0  0  0  0  0  0  0  0  0
   -0.6178   -0.8487  -10.9655 C   0  0  0  0  0  0  0  0  0  0  0  0
   -1.4523    0.2656  -10.9201 C   0  0  0  0  0  0  0  0  0  0  0  0
   -2.4653    0.5746  -12.3316 S   0  0  0  0  0  0  0  0  0  0  0  0
   -3.7912    1.6247  -11.6657 C   0  0  0  0  0  0  0  0  0  0  0  0
   -1.4498    1.0754   -9.7897 C   0  0  0  0  0  0  0  0  0  0  0  0
   -0.6887    0.7265   -8.6938 C   0  0  0  0  0  0  0  0  0  0  0  0
    0.7821   -0.4601   -5.1027 C   0  0  0  0  0  0  0  0  0  0  0  0
    2.4464   -0.2799   -4.6623 S   0  0  0  0  0  0  0  0  0  0  0  0
    2.0004    0.1244   -3.0081 C   0  0  0  0  0  0  0  0  0  0  0  0
    0.6299    0.0744   -2.8136 C   0  0  0  0  0  0  0  0  0  0  0  0
   -0.0615    0.2839   -1.6193 N   0  0  0  0  0  0  0  0  0  0  0  0
   -1.3213    0.9049   -1.7794 C   0  0  0  0  0  0  0  0  0  0  0  0
   -1.3942    2.1254   -2.4478 C   0  0  0  0  0  0  0  0  0  0  0  0
   -2.6192    2.6853   -2.7390 C   0  0  0  0  0  0  0  0  0  0  0  0
   -3.7921    2.0376   -2.3642 C   0  0  0  0  0  0  0  0  0  0  0  0
   -5.3198    2.7847   -2.8297 S   0  0  0  0  0  0  0  0  0  0  0  0
   -6.4717    1.3796   -2.7838 C   0  0  0  0  0  0  0  0  0  0  0  0
   -3.7214    0.8508   -1.6475 C   0  0  0  0  0  0  0  0  0  0  0  0
   -2.4955    0.2858   -1.3636 C   0  0  0  0  0  0  0  0  0  0  0  0
    0.2204   -0.4197   -0.4502 C   0  0  0  0  0  0  0  0  0  0  0  0
   -0.3297    0.0149    0.7594 C   0  0  0  0  0  0  0  0  0  0  0  0
   -0.1390   -0.7058    1.9161 C   0  0  0  0  0  0  0  0  0  0  0  0
    0.6287   -1.8650    1.9006 C   0  0  0  0  0  0  0  0  0  0  0  0
    0.7545   -2.7957    3.4027 S   0  0  0  0  0  0  0  0  0  0  0  0
    2.4154   -3.5289    3.2761 C   0  0  0  0  0  0  0  0  0  0  0  0
    1.2226   -2.2755    0.7172 C   0  0  0  0  0  0  0  0  0  0  0  0
    1.0236   -1.5582   -0.4459 C   0  0  0  0  0  0  0  0  0  0  0  0
   -0.0545   -0.2447   -4.0149 C   0  0  0  0  0  0  0  0  0  0  0  0
   -1.7261   -0.3345   -4.4373 S   0  0  0  0  0  0  0  0  0  0  0  0
    3.0546    0.4707   -2.0839 C   0  0  0  0  0  0  0  0  0  0  0  0
    2.7875    1.2141   -0.9255 C   0  0  0  0  0  0  0  0  0  0  0  0
    3.8228    1.5125   -0.0768 C   0  0  0  0  0  0  0  0  0  0  0  0
    3.7522    2.2675    1.2240 C   0  0  0  0  0  0  0  0  0  0  0  0
    3.1232    3.6307    1.0824 C   0  0  0  0  0  0  0  0  0  0  0  0
    3.4702    4.6552    0.2341 C   0  0  0  0  0  0  0  0  0  0  0  0
    2.7344    5.8344    0.2558 C   0  0  0  0  0  0  0  0  0  0  0  0
    1.6530    5.9804    1.1212 C   0  0  0  0  0  0  0  0  0  0  0  0
    0.8781    7.0945    1.2133 O   0  0  0  0  0  0  0  0  0  0  0  0
    1.1723    8.2119    0.4000 C   0  0  0  0  0  0  0  0  0  0  0  0
    0.1678    9.3030    0.7365 C   0  0  0  0  0  0  0  0  0  0  0  0
    1.2978    4.9359    1.9800 C   0  0  0  0  0  0  0  0  0  0  0  0
    2.0326    3.7696    1.9566 C   0  0  0  0  0  0  0  0  0  0  0  0
    1.9181    2.5532    2.7470 C   0  0  0  0  0  0  0  0  0  0  0  0
    1.1120    2.2455    3.8236 C   0  0  0  0  0  0  0  0  0  0  0  0
    1.3137    1.0395    4.5007 C   0  0  0  0  0  0  0  0  0  0  0  0
    0.5095    0.8341    5.5760 O   0  0  0  0  0  0  0  0  0  0  0  0
    0.6604   -0.3513    6.3355 C   0  0  0  0  0  0  0  0  0  0  0  0
   -0.3476   -0.2967    7.4727 C   0  0  0  0  0  0  0  0  0  0  0  0
    2.3013    0.1551    4.0709 C   0  0  0  0  0  0  0  0  0  0  0  0
    3.0836    0.4549    2.9644 C   0  0  0  0  0  0  0  0  0  0  0  0
    2.8952    1.6491    2.3083 C   0  0  0  0  0  0  0  0  0  0  0  0
    5.1887    2.2084    1.6828 C   0  0  0  0  0  0  0  0  0  0  0  0
    5.9852    1.5152    0.7589 C   0  0  0  0  0  0  0  0  0  0  0  0
    5.1430    1.1163   -0.3530 C   0  0  0  0  0  0  0  0  0  0  0  0
    5.4173    0.4092   -1.5144 C   0  0  0  0  0  0  0  0  0  0  0  0
    4.3751    0.0928   -2.3618 C   0  0  0  0  0  0  0  0  0  0  0  0
    7.2979    1.1989    1.0841 C   0  0  0  0  0  0  0  0  0  0  0  0
    7.7388    1.4312    2.3760 C   0  0  0  0  0  0  0  0  0  0  0  0
    6.9109    2.0321    3.3236 C   0  0  0  0  0  0  0  0  0  0  0  0
    5.6535    2.5052    2.9402 C   0  0  0  0  0  0  0  0  0  0  0  0
    7.0749    1.8671    4.7776 C   0  0  0  0  0  0  0  0  0  0  0  0
    7.1208    0.5464    5.2076 C   0  0  0  0  0  0  0  0  0  0  0  0
    6.7499    0.2638    6.5109 C   0  0  0  0  0  0  0  0  0  0  0  0
    6.4560   -0.9508    7.0754 N   0  0  0  0  0  0  0  0  0  0  0  0
    6.5759   -2.2404    6.4488 C   0  0  0  0  0  0  0  0  0  0  0  0
    7.8346   -2.9725    6.9104 C   0  0  0  0  0  0  0  0  0  0  0  0
    5.8287   -0.7224    8.2739 C   0  0  0  0  0  0  0  0  0  0  0  0
    5.8179    0.6705    8.5496 C   0  0  0  0  0  0  0  0  0  0  0  0
    6.4107    1.3050    7.4139 C   0  0  0  0  0  0  0  0  0  0  0  0
    6.5315    2.6328    7.0090 C   0  0  0  0  0  0  0  0  0  0  0  0
    6.8347    2.9017    5.6923 C   0  0  0  0  0  0  0  0  0  0  0  0
    5.1893    1.1370    9.7036 C   0  0  0  0  0  0  0  0  0  0  0  0
    4.4862    0.2477   10.4810 C   0  0  0  0  0  0  0  0  0  0  0  0
    4.3832   -1.1144   10.1244 C   0  0  0  0  0  0  0  0  0  0  0  0
    5.1413   -1.6187    9.0673 C   0  0  0  0  0  0  0  0  0  0  0  0
    3.3998   -1.9286   10.7831 C   0  0  0  0  0  0  0  0  0  0  0  0
    2.5888   -2.8290   10.1628 C   0  0  0  0  0  0  0  0  0  0  0  0
    2.3841   -2.9669    8.6953 C   0  0  0  0  0  0  0  0  0  0  0  0
    3.0780   -2.5735    7.7789 O   0  0  0  0  0  0  0  0  0  0  0  0
    1.0865   -3.6469    8.5393 C   0  0  0  0  0  0  0  0  0  0  0  0
    0.4274   -3.9032    7.3374 C   0  0  0  0  0  0  0  0  0  0  0  0
   -0.7900   -4.5182    7.4908 C   0  0  0  0  0  0  0  0  0  0  0  0
   -1.3212   -4.8519    8.7450 C   0  0  0  0  0  0  0  0  0  0  0  0
   -0.6734   -4.6226    9.9358 C   0  0  0  0  0  0  0  0  0  0  0  0
    0.5729   -4.0006    9.8027 C   0  0  0  0  0  0  0  0  0  0  0  0
    1.5346   -3.5902   10.8185 C   0  0  0  0  0  0  0  0  0  0  0  0
    1.5049   -3.9322   12.1430 C   0  0  0  0  0  0  0  0  0  0  0  0
    0.4895   -4.7068   12.7414 C   0  0  0  0  0  0  0  0  0  0  0  0
   -0.3096   -5.3251   13.2863 N   0  0  0  0  0  0  0  0  0  0  0  0
    2.5168   -3.6046   13.0714 C   0  0  0  0  0  0  0  0  0  0  0  0
    3.3102   -3.3943   13.8738 N   0  0  0  0  0  0  0  0  0  0  0  0
   -2.5935   -5.3996    8.1461 C   0  0  0  0  0  0  0  0  0  0  0  0
   -3.8388   -4.4905    8.2265 C   0  0  0  0  0  0  0  0  0  0  0  0
   -4.7634   -5.0496    7.1688 C   0  0  0  0  0  0  0  0  0  0  0  0
   -4.2538   -4.7412    5.9830 C   0  0  0  0  0  0  0  0  0  0  0  0
   -2.9758   -3.9694    6.2184 C   0  0  0  0  0  0  0  0  0  0  0  0
   -3.3512   -3.2261    7.5071 C   0  0  0  0  0  0  0  0  0  0  0  0
   -1.9948   -5.0359    6.7493 C   0  0  0  0  0  0  0  0  0  0  0  0
   -1.7817   -1.6357   -7.9254 H   0  0  0  0  0  0  0  0  0  0  0  0
   -6.3886    1.8695   -5.6236 H   0  0  0  0  0  0  0  0  0  0  0  0
   -6.5503   -0.3439  -10.1766 H   0  0  0  0  0  0  0  0  0  0  0  0
   -9.5605    1.1637   -9.4546 H   0  0  0  0  0  0  0  0  0  0  0  0
   -8.7947    2.7405  -11.2232 H   0  0  0  0  0  0  0  0  0  0  0  0
   -6.3080    3.3279  -10.6697 H   0  0  0  0  0  0  0  0  0  0  0  0
   -6.2441    4.5168   -8.2930 H   0  0  0  0  0  0  0  0  0  0  0  0
   -8.6906    4.6659   -7.3868 H   0  0  0  0  0  0  0  0  0  0  0  0
  -10.3665    3.7581   -9.2891 H   0  0  0  0  0  0  0  0  0  0  0  0
   -9.2815    5.0091   -9.9455 H   0  0  0  0  0  0  0  0  0  0  0  0
   -9.5055    2.3243   -7.1495 H   0  0  0  0  0  0  0  0  0  0  0  0
    2.6572   -0.0430   -9.1205 H   0  0  0  0  0  0  0  0  0  0  0  0
    4.9383   -0.9708   -9.2279 H   0  0  0  0  0  0  0  0  0  0  0  0
    7.4083   -4.6944   -6.7164 H   0  0  0  0  0  0  0  0  0  0  0  0
    5.7040   -5.1554   -6.9134 H   0  0  0  0  0  0  0  0  0  0  0  0
    6.1799   -3.9575   -5.6643 H   0  0  0  0  0  0  0  0  0  0  0  0
    3.9072   -3.8327   -6.2187 H   0  0  0  0  0  0  0  0  0  0  0  0
    1.6498   -2.9270   -6.1311 H   0  0  0  0  0  0  0  0  0  0  0  0
    0.7373   -2.0990   -9.8907 H   0  0  0  0  0  0  0  0  0  0  0  0
   -0.5972   -1.4548  -11.8572 H   0  0  0  0  0  0  0  0  0  0  0  0
   -4.5798    1.6016  -12.4115 H   0  0  0  0  0  0  0  0  0  0  0  0
   -4.1555    1.2089  -10.7305 H   0  0  0  0  0  0  0  0  0  0  0  0
   -3.4394    2.6439  -11.5309 H   0  0  0  0  0  0  0  0  0  0  0  0
   -2.0376    1.9788   -9.7540 H   0  0  0  0  0  0  0  0  0  0  0  0
   -0.7013    1.3511   -7.8128 H   0  0  0  0  0  0  0  0  0  0  0  0
   -0.4828    2.6137   -2.7620 H   0  0  0  0  0  0  0  0  0  0  0  0
   -2.6801    3.6194   -3.2761 H   0  0  0  0  0  0  0  0  0  0  0  0
   -7.3798    1.7150   -3.2760 H   0  0  0  0  0  0  0  0  0  0  0  0
   -6.6982    1.1065   -1.7571 H   0  0  0  0  0  0  0  0  0  0  0  0
   -6.0255    0.5520   -3.3280 H   0  0  0  0  0  0  0  0  0  0  0  0
   -4.6150    0.3420   -1.3251 H   0  0  0  0  0  0  0  0  0  0  0  0
   -2.4461   -0.6562   -0.8377 H   0  0  0  0  0  0  0  0  0  0  0  0
   -0.9185    0.9194    0.7828 H   0  0  0  0  0  0  0  0  0  0  0  0
   -0.5841   -0.3737    2.8407 H   0  0  0  0  0  0  0  0  0  0  0  0
    3.0930   -2.7910    2.8585 H   0  0  0  0  0  0  0  0  0  0  0  0
    2.7180   -3.7848    4.2872 H   0  0  0  0  0  0  0  0  0  0  0  0
    2.3878   -4.4257    2.6635 H   0  0  0  0  0  0  0  0  0  0  0  0
    1.8248   -3.1705    0.6834 H   0  0  0  0  0  0  0  0  0  0  0  0
    1.4708   -1.9078   -1.3639 H   0  0  0  0  0  0  0  0  0  0  0  0
    1.7936    1.5672   -0.7063 H   0  0  0  0  0  0  0  0  0  0  0  0
    4.3059    4.5546   -0.4433 H   0  0  0  0  0  0  0  0  0  0  0  0
    3.0171    6.6338   -0.4108 H   0  0  0  0  0  0  0  0  0  0  0  0
    1.0934    7.9385   -0.6618 H   0  0  0  0  0  0  0  0  0  0  0  0
    2.1946    8.5644    0.5971 H   0  0  0  0  0  0  0  0  0  0  0  0
    0.2466    9.5670    1.7875 H   0  0  0  0  0  0  0  0  0  0  0  0
   -0.8413    8.9494    0.5436 H   0  0  0  0  0  0  0  0  0  0  0  0
    0.3606   10.1839    0.1309 H   0  0  0  0  0  0  0  0  0  0  0  0
    0.4571    5.0683    2.6417 H   0  0  0  0  0  0  0  0  0  0  0  0
    0.3564    2.9257    4.1829 H   0  0  0  0  0  0  0  0  0  0  0  0
    1.6805   -0.4211    6.7370 H   0  0  0  0  0  0  0  0  0  0  0  0
    0.4678   -1.2269    5.7024 H   0  0  0  0  0  0  0  0  0  0  0  0
   -0.1711    0.5847    8.0835 H   0  0  0  0  0  0  0  0  0  0  0  0
   -0.2514   -1.1846    8.0919 H   0  0  0  0  0  0  0  0  0  0  0  0
   -1.3570   -0.2463    7.0733 H   0  0  0  0  0  0  0  0  0  0  0  0
    2.4819   -0.7605    4.6093 H   0  0  0  0  0  0  0  0  0  0  0  0
    3.8566   -0.2304    2.6446 H   0  0  0  0  0  0  0  0  0  0  0  0
    6.4256    0.1046   -1.7523 H   0  0  0  0  0  0  0  0  0  0  0  0
    4.5747   -0.4673   -3.2648 H   0  0  0  0  0  0  0  0  0  0  0  0
    7.9379    0.6997    0.3713 H   0  0  0  0  0  0  0  0  0  0  0  0
    8.7225    1.0973    2.6744 H   0  0  0  0  0  0  0  0  0  0  0  0
    5.0067    2.9717    3.6688 H   0  0  0  0  0  0  0  0  0  0  0  0
    7.3126   -0.2389    4.4915 H   0  0  0  0  0  0  0  0  0  0  0  0
    5.6838   -2.8243    6.6926 H   0  0  0  0  0  0  0  0  0  0  0  0
    6.6017   -2.1000    5.3657 H   0  0  0  0  0  0  0  0  0  0  0  0
    7.8991   -3.9459    6.4312 H   0  0  0  0  0  0  0  0  0  0  0  0
    8.7211   -2.3969    6.6537 H   0  0  0  0  0  0  0  0  0  0  0  0
    7.8163   -3.1142    7.9883 H   0  0  0  0  0  0  0  0  0  0  0  0
    6.3143    3.4346    7.6985 H   0  0  0  0  0  0  0  0  0  0  0  0
    6.8462    3.9217    5.3376 H   0  0  0  0  0  0  0  0  0  0  0  0
    5.2178    2.1862    9.9552 H   0  0  0  0  0  0  0  0  0  0  0  0
    3.9376    0.5992   11.3423 H   0  0  0  0  0  0  0  0  0  0  0  0
    5.1620   -2.6783    8.8771 H   0  0  0  0  0  0  0  0  0  0  0  0
    3.2110   -1.7051   11.8269 H   0  0  0  0  0  0  0  0  0  0  0  0
    0.8579   -3.6229    6.3892 H   0  0  0  0  0  0  0  0  0  0  0  0
   -1.0894   -4.8854   10.8944 H   0  0  0  0  0  0  0  0  0  0  0  0
   -2.8133   -6.4422    8.3669 H   0  0  0  0  0  0  0  0  0  0  0  0
   -4.2521   -4.3724    9.2245 H   0  0  0  0  0  0  0  0  0  0  0  0
   -5.6344   -5.6398    7.3856 H   0  0  0  0  0  0  0  0  0  0  0  0
   -4.6143   -5.0226    5.0110 H   0  0  0  0  0  0  0  0  0  0  0  0
   -2.5954   -3.3797    5.3890 H   0  0  0  0  0  0  0  0  0  0  0  0
   -2.5136   -2.7315    7.9949 H   0  0  0  0  0  0  0  0  0  0  0  0
   -4.1547   -2.5087    7.3486 H   0  0  0  0  0  0  0  0  0  0  0  0
   -1.8083   -5.8360    6.0361 H   0  0  0  0  0  0  0  0  0  0  0  0
  1  2  2  0  0  0  0
  2  3  1  0  0  0  0
  3  4  2  0  0  0  0
  3  5  1  0  0  0  0
  5  6  2  0  0  0  0
  6  7  1  0  0  0  0
  7  8  2  0  0  0  0
  8  9  1  0  0  0  0
  9 10  2  0  0  0  0
 10 11  1  0  0  0  0
 11 12  2  0  0  0  0
 12 13  1  0  0  0  0
 13 14  3  0  0  0  0
 12 15  1  0  0  0  0
 15 16  3  0  0  0  0
  8 17  1  0  0  0  0
 17 18  1  0  0  0  0
 18 19  1  0  0  0  0
 19 20  2  0  0  0  0
 20 21  1  0  0  0  0
 21 22  1  0  0  0  0
 21 23  1  0  0  0  0
  1 24  1  0  0  0  0
 24 25  2  0  0  0  0
 25 26  1  0  0  0  0
 26 27  1  0  0  0  0
 27 28  2  0  0  0  0
 28 29  1  0  0  0  0
 29 30  2  0  0  0  0
 30 31  1  0  0  0  0
 31 32  1  0  0  0  0
 30 33  1  0  0  0  0
 33 34  2  0  0  0  0
 26 35  1  0  0  0  0
 35 36  2  0  0  0  0
 36 37  1  0  0  0  0
 37 38  2  0  0  0  0
 38 39  1  0  0  0  0
 39 40  1  0  0  0  0
 38 41  1  0  0  0  0
 41 42  2  0  0  0  0
 25 43  1  0  0  0  0
 43 44  1  0  0  0  0
 44 45  1  0  0  0  0
 45 46  2  0  0  0  0
 46 47  1  0  0  0  0
 47 48  1  0  0  0  0
 48 49  2  0  0  0  0
 49 50  1  0  0  0  0
 50 51  2  0  0  0  0
 51 52  1  0  0  0  0
 52 53  1  0  0  0  0
 51 54  1  0  0  0  0
 54 55  2  0  0  0  0
 47 56  1  0  0  0  0
 56 57  2  0  0  0  0
 57 58  1  0  0  0  0
 58 59  2  0  0  0  0
 59 60  1  0  0  0  0
 60 61  1  0  0  0  0
 59 62  1  0  0  0  0
 62 63  2  0  0  0  0
 46 64  1  0  0  0  0
 64 65  1  0  0  0  0
 45 66  1  0  0  0  0
 66 67  2  0  0  0  0
 67 68  1  0  0  0  0
 68 69  1  0  0  0  0
 69 70  1  0  0  0  0
 70 71  2  0  0  0  0
 71 72  1  0  0  0  0
 72 73  2  0  0  0  0
 73 74  1  0  0  0  0
 74 75  1  0  0  0  0
 75 76  1  0  0  0  0
 73 77  1  0  0  0  0
 77 78  2  0  0  0  0
 78 79  1  0  0  0  0
 79 80  2  0  0  0  0
 80 81  1  0  0  0  0
 81 82  1  0  0  0  0
 82 83  1  0  0  0  0
 83 84  1  0  0  0  0
 81 85  2  0  0  0  0
 85 86  1  0  0  0  0
 86 87  2  0  0  0  0
 69 88  1  0  0  0  0
 88 89  2  0  0  0  0
 89 90  1  0  0  0  0
 90 91  1  0  0  0  0
 91 92  2  0  0  0  0
 89 93  1  0  0  0  0
 93 94  2  0  0  0  0
 94 95  1  0  0  0  0
 95 96  2  0  0  0  0
 95 97  1  0  0  0  0
 97 98  2  0  0  0  0
 98 99  1  0  0  0  0
 99100  1  0  0  0  0
100101  1  0  0  0  0
101102  1  0  0  0  0
100103  1  0  0  0  0
103104  2  0  0  0  0
104105  1  0  0  0  0
105106  1  0  0  0  0
106107  2  0  0  0  0
104108  1  0  0  0  0
108109  2  0  0  0  0
109110  1  0  0  0  0
110111  2  0  0  0  0
110112  1  0  0  0  0
112113  2  0  0  0  0
113114  1  0  0  0  0
114115  2  0  0  0  0
114116  1  0  0  0  0
116117  2  0  0  0  0
117118  1  0  0  0  0
118119  2  0  0  0  0
119120  1  0  0  0  0
120121  2  0  0  0  0
121122  1  0  0  0  0
122123  2  0  0  0  0
123124  1  0  0  0  0
124125  3  0  0  0  0
123126  1  0  0  0  0
126127  3  0  0  0  0
119128  1  0  0  0  0
128129  1  0  0  0  0
129130  1  0  0  0  0
130131  2  0  0  0  0
131132  1  0  0  0  0
132133  1  0  0  0  0
132134  1  0  0  0  0
 11  2  1  0  0  0  0
 23 17  1  0  0  0  0
 65 24  1  0  0  0  0
 92 66  1  0  0  0  0
107 97  1  0  0  0  0
122113  1  0  0  0  0
134128  1  0  0  0  0
 10  5  1  0  0  0  0
 22 18  1  0  0  0  0
 34 27  1  0  0  0  0
 42 35  1  0  0  0  0
 64 43  2  0  0  0  0
 90 68  2  0  0  0  0
105 99  2  0  0  0  0
121116  1  0  0  0  0
133129  1  0  0  0  0
 23  7  1  0  0  0  0
 55 48  1  0  0  0  0
 63 56  1  0  0  0  0
 87 69  1  0  0  0  0
 96 88  1  0  0  0  0
111103  1  0  0  0  0
134118  1  0  0  0  0
 78 70  1  0  0  0  0
 87 79  1  0  0  0  0
  1135  1  0  0  0  0
  6136  1  0  0  0  0
  9137  1  0  0  0  0
 17138  1  0  0  0  0
 18139  1  0  0  0  0
 19140  1  0  0  0  0
 20141  1  0  0  0  0
 21142  1  0  0  0  0
 22143  1  0  0  0  0
 22144  1  0  0  0  0
 23145  1  0  0  0  0
 28146  1  0  0  0  0
 29147  1  0  0  0  0
 32148  1  0  0  0  0
 32149  1  0  0  0  0
 32150  1  0  0  0  0
 33151  1  0  0  0  0
 34152  1  0  0  0  0
 36153  1  0  0  0  0
 37154  1  0  0  0  0
 40155  1  0  0  0  0
 40156  1  0  0  0  0
 40157  1  0  0  0  0
 41158  1  0  0  0  0
 42159  1  0  0  0  0
 49160  1  0  0  0  0
 50161  1  0  0  0  0
 53162  1  0  0  0  0
 53163  1  0  0  0  0
 53164  1  0  0  0  0
 54165  1  0  0  0  0
 55166  1  0  0  0  0
 57167  1  0  0  0  0
 58168  1  0  0  0  0
 61169  1  0  0  0  0
 61170  1  0  0  0  0
 61171  1  0  0  0  0
 62172  1  0  0  0  0
 63173  1  0  0  0  0
 67174  1  0  0  0  0
 71175  1  0  0  0  0
 72176  1  0  0  0  0
 75177  1  0  0  0  0
 75178  1  0  0  0  0
 76179  1  0  0  0  0
 76180  1  0  0  0  0
 76181  1  0  0  0  0
 77182  1  0  0  0  0
 80183  1  0  0  0  0
 83184  1  0  0  0  0
 83185  1  0  0  0  0
 84186  1  0  0  0  0
 84187  1  0  0  0  0
 84188  1  0  0  0  0
 85189  1  0  0  0  0
 86190  1  0  0  0  0
 91191  1  0  0  0  0
 92192  1  0  0  0  0
 93193  1  0  0  0  0
 94194  1  0  0  0  0
 96195  1  0  0  0  0
 98196  1  0  0  0  0
101197  1  0  0  0  0
101198  1  0  0  0  0
102199  1  0  0  0  0
102200  1  0  0  0  0
102201  1  0  0  0  0
106202  1  0  0  0  0
107203  1  0  0  0  0
108204  1  0  0  0  0
109205  1  0  0  0  0
111206  1  0  0  0  0
112207  1  0  0  0  0
117208  1  0  0  0  0
120209  1  0  0  0  0
128210  1  0  0  0  0
129211  1  0  0  0  0
130212  1  0  0  0  0
131213  1  0  0  0  0
132214  1  0  0  0  0
133215  1  0  0  0  0
133216  1  0  0  0  0
134217  1  0  0  0  0
M  END
