
  xtb     02062212573D
 energy: -395.025608689634 gnorm: 0.000650674098 xtb: 6.4.1 (unknown)
231253  0     0  0            999 V2000
    4.5258   -0.6210    5.4427 C   0  0  0  0  0  0  0  0  0  0  0  0
    4.8603    0.4992    6.1681 C   0  0  0  0  0  0  0  0  0  0  0  0
    4.1066    1.7537    6.2145 C   0  0  0  0  0  0  0  0  0  0  0  0
    3.1250    2.0587    5.5569 O   0  0  0  0  0  0  0  0  0  0  0  0
    4.7533    2.5876    7.2421 C   0  0  0  0  0  0  0  0  0  0  0  0
    4.3755    3.8659    7.6435 C   0  0  0  0  0  0  0  0  0  0  0  0
    5.1750    4.4016    8.6248 C   0  0  0  0  0  0  0  0  0  0  0  0
    6.2689    3.7149    9.1664 C   0  0  0  0  0  0  0  0  0  0  0  0
    6.6535    2.4534    8.7758 C   0  0  0  0  0  0  0  0  0  0  0  0
    5.8537    1.8897    7.7788 C   0  0  0  0  0  0  0  0  0  0  0  0
    5.9591    0.5971    7.1004 C   0  0  0  0  0  0  0  0  0  0  0  0
    6.9625   -0.3218    7.2940 C   0  0  0  0  0  0  0  0  0  0  0  0
    7.1437   -1.5012    6.5468 C   0  0  0  0  0  0  0  0  0  0  0  0
    7.3849   -2.4615    5.9618 N   0  0  0  0  0  0  0  0  0  0  0  0
    7.9911   -0.1915    8.2484 C   0  0  0  0  0  0  0  0  0  0  0  0
    8.8490   -0.1604    9.0119 N   0  0  0  0  0  0  0  0  0  0  0  0
    6.6124    4.8421   10.1079 C   0  0  0  0  0  0  0  0  0  0  0  0
    6.2147    4.6867   11.5965 C   0  0  0  0  0  0  0  0  0  0  0  0
    5.0251    3.7598   11.6283 C   0  0  0  0  0  0  0  0  0  0  0  0
    3.9903    4.4110   11.1144 C   0  0  0  0  0  0  0  0  0  0  0  0
    4.4616    5.7905   10.7260 C   0  0  0  0  0  0  0  0  0  0  0  0
    5.5128    6.0358   11.8201 C   0  0  0  0  0  0  0  0  0  0  0  0
    5.3941    5.6084    9.5029 C   0  0  0  0  0  0  0  0  0  0  0  0
    3.5320   -0.8082    4.4816 C   0  0  0  0  0  0  0  0  0  0  0  0
    3.3219   -2.0453    3.8210 C   0  0  0  0  0  0  0  0  0  0  0  0
    3.9228   -3.2368    4.1565 N   0  0  0  0  0  0  0  0  0  0  0  0
    4.3652   -4.0822    3.1290 C   0  0  0  0  0  0  0  0  0  0  0  0
    4.2970   -5.4694    3.2562 C   0  0  0  0  0  0  0  0  0  0  0  0
    4.8099   -6.2803    2.2699 C   0  0  0  0  0  0  0  0  0  0  0  0
    5.3783   -5.7280    1.1238 C   0  0  0  0  0  0  0  0  0  0  0  0
    6.0497   -6.8594   -0.0569 S   0  0  0  0  0  0  0  0  0  0  0  0
    6.7456   -5.7971   -1.3509 C   0  0  0  0  0  0  0  0  0  0  0  0
    5.4077   -4.3499    0.9716 C   0  0  0  0  0  0  0  0  0  0  0  0
    4.9144   -3.5367    1.9717 C   0  0  0  0  0  0  0  0  0  0  0  0
    4.0760   -3.6168    5.5003 C   0  0  0  0  0  0  0  0  0  0  0  0
    3.1042   -3.2704    6.4362 C   0  0  0  0  0  0  0  0  0  0  0  0
    3.2529   -3.6088    7.7660 C   0  0  0  0  0  0  0  0  0  0  0  0
    4.3746   -4.3152    8.1818 C   0  0  0  0  0  0  0  0  0  0  0  0
    4.6816   -4.7966    9.8504 S   0  0  0  0  0  0  0  0  0  0  0  0
    3.2832   -4.0989   10.7759 C   0  0  0  0  0  0  0  0  0  0  0  0
    5.3354   -4.6862    7.2428 C   0  0  0  0  0  0  0  0  0  0  0  0
    5.1938   -4.3406    5.9178 C   0  0  0  0  0  0  0  0  0  0  0  0
    2.4109   -1.9052    2.7632 C   0  0  0  0  0  0  0  0  0  0  0  0
    1.7400   -2.9941    1.5843 S   0  0  0  0  0  0  0  0  0  0  0  0
    0.7242   -1.7029    0.9570 C   0  0  0  0  0  0  0  0  0  0  0  0
    0.9786   -0.4867    1.5836 C   0  0  0  0  0  0  0  0  0  0  0  0
    0.4621    0.7266    1.1344 N   0  0  0  0  0  0  0  0  0  0  0  0
   -0.0351    1.6380    2.0630 C   0  0  0  0  0  0  0  0  0  0  0  0
    0.0212    3.0107    1.8382 C   0  0  0  0  0  0  0  0  0  0  0  0
   -0.4300    3.8998    2.7931 C   0  0  0  0  0  0  0  0  0  0  0  0
   -0.9371    3.4335    3.9971 C   0  0  0  0  0  0  0  0  0  0  0  0
   -1.5014    4.4852    5.3006 S   0  0  0  0  0  0  0  0  0  0  0  0
   -1.7149    6.0925    4.4840 C   0  0  0  0  0  0  0  0  0  0  0  0
   -1.0042    2.0623    4.2240 C   0  0  0  0  0  0  0  0  0  0  0  0
   -0.5725    1.1747    3.2654 C   0  0  0  0  0  0  0  0  0  0  0  0
    0.5907    1.0114   -0.2336 C   0  0  0  0  0  0  0  0  0  0  0  0
   -0.4394    1.6294   -0.9376 C   0  0  0  0  0  0  0  0  0  0  0  0
   -0.3639    1.7850   -2.3077 C   0  0  0  0  0  0  0  0  0  0  0  0
    0.7586    1.3473   -2.9980 C   0  0  0  0  0  0  0  0  0  0  0  0
    0.9096    1.4450   -4.7575 S   0  0  0  0  0  0  0  0  0  0  0  0
   -0.8101    1.2796   -5.3169 C   0  0  0  0  0  0  0  0  0  0  0  0
    1.8272    0.8051   -2.2868 C   0  0  0  0  0  0  0  0  0  0  0  0
    1.7400    0.6253   -0.9236 C   0  0  0  0  0  0  0  0  0  0  0  0
    1.9102   -0.6153    2.6319 C   0  0  0  0  0  0  0  0  0  0  0  0
    2.5136    0.4755    3.8244 S   0  0  0  0  0  0  0  0  0  0  0  0
   -0.2855   -1.8438   -0.0434 C   0  0  0  0  0  0  0  0  0  0  0  0
   -0.2794   -2.4585   -1.2886 C   0  0  0  0  0  0  0  0  0  0  0  0
    0.6515   -3.3685   -1.7575 N   0  0  0  0  0  0  0  0  0  0  0  0
    1.0003   -4.4899   -0.9938 C   0  0  0  0  0  0  0  0  0  0  0  0
    2.1667   -5.1888   -1.2985 C   0  0  0  0  0  0  0  0  0  0  0  0
    2.5077   -6.3312   -0.6047 C   0  0  0  0  0  0  0  0  0  0  0  0
    1.6933   -6.7910    0.4224 C   0  0  0  0  0  0  0  0  0  0  0  0
    2.0410   -8.2360    1.3738 S   0  0  0  0  0  0  0  0  0  0  0  0
    3.1405   -9.1957    0.2910 C   0  0  0  0  0  0  0  0  0  0  0  0
    0.5358   -6.0898    0.7420 C   0  0  0  0  0  0  0  0  0  0  0  0
    0.1865   -4.9572    0.0394 C   0  0  0  0  0  0  0  0  0  0  0  0
    0.8174   -3.4189   -3.1615 C   0  0  0  0  0  0  0  0  0  0  0  0
    0.5710   -4.5836   -3.8812 C   0  0  0  0  0  0  0  0  0  0  0  0
    0.6363   -4.5819   -5.2608 C   0  0  0  0  0  0  0  0  0  0  0  0
    0.9547   -3.4135   -5.9420 C   0  0  0  0  0  0  0  0  0  0  0  0
    1.0092   -3.2856   -7.6982 S   0  0  0  0  0  0  0  0  0  0  0  0
    0.8499   -5.0043   -8.2596 C   0  0  0  0  0  0  0  0  0  0  0  0
    1.2333   -2.2531   -5.2221 C   0  0  0  0  0  0  0  0  0  0  0  0
    1.1642   -2.2561   -3.8466 C   0  0  0  0  0  0  0  0  0  0  0  0
   -1.3864   -2.0260   -2.0595 C   0  0  0  0  0  0  0  0  0  0  0  0
   -1.8389   -2.2614   -3.7057 S   0  0  0  0  0  0  0  0  0  0  0  0
   -3.2579   -1.2267   -3.4938 C   0  0  0  0  0  0  0  0  0  0  0  0
   -3.4398   -0.8797   -2.1428 C   0  0  0  0  0  0  0  0  0  0  0  0
   -4.5838   -0.3713   -1.5876 N   0  0  0  0  0  0  0  0  0  0  0  0
   -5.8544   -0.6722   -2.0773 C   0  0  0  0  0  0  0  0  0  0  0  0
   -6.1065   -1.8600   -2.7687 C   0  0  0  0  0  0  0  0  0  0  0  0
   -7.3663   -2.1374   -3.2439 C   0  0  0  0  0  0  0  0  0  0  0  0
   -8.4195   -1.2462   -3.0376 C   0  0  0  0  0  0  0  0  0  0  0  0
   -9.9825   -1.7122   -3.7046 S   0  0  0  0  0  0  0  0  0  0  0  0
  -11.0552   -0.2920   -3.3469 C   0  0  0  0  0  0  0  0  0  0  0  0
   -8.1842   -0.0798   -2.3227 C   0  0  0  0  0  0  0  0  0  0  0  0
   -6.9177    0.1994   -1.8488 C   0  0  0  0  0  0  0  0  0  0  0  0
   -4.4600    0.5241   -0.4996 C   0  0  0  0  0  0  0  0  0  0  0  0
   -3.7848    1.7275   -0.6792 C   0  0  0  0  0  0  0  0  0  0  0  0
   -3.6855    2.6276    0.3586 C   0  0  0  0  0  0  0  0  0  0  0  0
   -4.2492    2.3350    1.5991 C   0  0  0  0  0  0  0  0  0  0  0  0
   -4.0968    3.5746    2.8380 S   0  0  0  0  0  0  0  0  0  0  0  0
   -4.5458    2.7184    4.3704 C   0  0  0  0  0  0  0  0  0  0  0  0
   -4.9206    1.1317    1.7803 C   0  0  0  0  0  0  0  0  0  0  0  0
   -5.0282    0.2344    0.7347 C   0  0  0  0  0  0  0  0  0  0  0  0
   -2.3118   -1.2541   -1.3761 C   0  0  0  0  0  0  0  0  0  0  0  0
   -1.7932   -0.9623    0.2458 S   0  0  0  0  0  0  0  0  0  0  0  0
   -3.8463   -0.6401   -4.6423 C   0  0  0  0  0  0  0  0  0  0  0  0
   -3.6674   -1.1586   -5.9515 C   0  0  0  0  0  0  0  0  0  0  0  0
   -3.2193   -2.4556   -6.3122 C   0  0  0  0  0  0  0  0  0  0  0  0
   -3.0739   -2.6235   -7.6554 C   0  0  0  0  0  0  0  0  0  0  0  0
   -2.6375   -3.8283   -8.3554 C   0  0  0  0  0  0  0  0  0  0  0  0
   -2.3254   -4.8627   -7.8103 O   0  0  0  0  0  0  0  0  0  0  0  0
   -2.6251   -3.6226   -9.6745 O   0  0  0  0  0  0  0  0  0  0  0  0
   -2.2649   -4.7005  -10.5351 C   0  0  0  0  0  0  0  0  0  0  0  0
   -3.4027   -4.9854  -11.5028 C   0  0  0  0  0  0  0  0  0  0  0  0
   -3.4783   -1.1984   -8.5641 S   0  0  0  0  0  0  0  0  0  0  0  0
   -3.8987   -0.3638   -7.1045 C   0  0  0  0  0  0  0  0  0  0  0  0
   -4.3197    0.9736   -7.0686 C   0  0  0  0  0  0  0  0  0  0  0  0
   -4.6847    1.4164   -5.7762 C   0  0  0  0  0  0  0  0  0  0  0  0
   -4.4521    0.6405   -4.5996 C   0  0  0  0  0  0  0  0  0  0  0  0
   -4.8349    1.3956   -3.5586 N   0  0  0  0  0  0  0  0  0  0  0  0
   -5.2915    2.4899   -4.0957 N   0  0  0  0  0  0  0  0  0  0  0  0
   -5.7511    3.5927   -3.3024 C   0  0  0  0  0  0  0  0  0  0  0  0
   -4.6610    4.6560   -3.2062 C   0  0  0  0  0  0  0  0  0  0  0  0
   -5.2417    2.5685   -5.3945 N   0  0  0  0  0  0  0  0  0  0  0  0
   -4.3805    1.7866   -8.2226 C   0  0  0  0  0  0  0  0  0  0  0  0
   -4.2177    3.1499   -8.2484 C   0  0  0  0  0  0  0  0  0  0  0  0
   -3.5239    3.9389   -7.2124 C   0  0  0  0  0  0  0  0  0  0  0  0
   -2.9974    3.5531   -6.1847 O   0  0  0  0  0  0  0  0  0  0  0  0
   -3.4577    5.3183   -7.7365 C   0  0  0  0  0  0  0  0  0  0  0  0
   -2.9225    6.4261   -7.1471 C   0  0  0  0  0  0  0  0  0  0  0  0
   -2.9513    7.6561   -7.8421 C   0  0  0  0  0  0  0  0  0  0  0  0
   -2.4206    8.8313   -7.2770 C   0  0  0  0  0  0  0  0  0  0  0  0
   -2.4563   10.0066   -7.9737 C   0  0  0  0  0  0  0  0  0  0  0  0
   -1.9502   11.1253   -7.4324 F   0  0  0  0  0  0  0  0  0  0  0  0
   -3.0231   10.0573   -9.2618 C   0  0  0  0  0  0  0  0  0  0  0  0
   -3.0454   11.2245   -9.9219 F   0  0  0  0  0  0  0  0  0  0  0  0
   -3.5465    8.9328   -9.8363 C   0  0  0  0  0  0  0  0  0  0  0  0
   -3.5262    7.7056   -9.1443 C   0  0  0  0  0  0  0  0  0  0  0  0
   -4.0669    6.5372   -9.7310 C   0  0  0  0  0  0  0  0  0  0  0  0
   -4.0371    5.3589   -9.0342 C   0  0  0  0  0  0  0  0  0  0  0  0
   -4.5166    4.0183   -9.3637 C   0  0  0  0  0  0  0  0  0  0  0  0
   -5.2037    3.6802  -10.5035 C   0  0  0  0  0  0  0  0  0  0  0  0
   -5.4891    4.5821  -11.5476 C   0  0  0  0  0  0  0  0  0  0  0  0
   -5.7466    5.2695  -12.4312 N   0  0  0  0  0  0  0  0  0  0  0  0
   -5.7390    2.4060  -10.7819 C   0  0  0  0  0  0  0  0  0  0  0  0
   -6.2259    1.4082  -11.0772 N   0  0  0  0  0  0  0  0  0  0  0  0
    5.1286   -1.5012    5.6263 H   0  0  0  0  0  0  0  0  0  0  0  0
    3.5257    4.3579    7.1965 H   0  0  0  0  0  0  0  0  0  0  0  0
    7.4997    1.9411    9.2022 H   0  0  0  0  0  0  0  0  0  0  0  0
    7.6014    5.2797    9.9868 H   0  0  0  0  0  0  0  0  0  0  0  0
    7.0379    4.4339   12.2594 H   0  0  0  0  0  0  0  0  0  0  0  0
    5.0717    2.7379   11.9565 H   0  0  0  0  0  0  0  0  0  0  0  0
    2.9988    4.0422   10.9265 H   0  0  0  0  0  0  0  0  0  0  0  0
    3.6883    6.5433   10.5966 H   0  0  0  0  0  0  0  0  0  0  0  0
    6.1521    6.8952   11.6227 H   0  0  0  0  0  0  0  0  0  0  0  0
    5.0748    6.1236   12.8134 H   0  0  0  0  0  0  0  0  0  0  0  0
    5.5885    6.5463    8.9861 H   0  0  0  0  0  0  0  0  0  0  0  0
    3.8500   -5.9080    4.1347 H   0  0  0  0  0  0  0  0  0  0  0  0
    4.7766   -7.3524    2.3832 H   0  0  0  0  0  0  0  0  0  0  0  0
    5.9582   -5.2090   -1.8135 H   0  0  0  0  0  0  0  0  0  0  0  0
    7.5202   -5.1626   -0.9302 H   0  0  0  0  0  0  0  0  0  0  0  0
    7.1794   -6.4731   -2.0814 H   0  0  0  0  0  0  0  0  0  0  0  0
    5.8312   -3.8914    0.0929 H   0  0  0  0  0  0  0  0  0  0  0  0
    4.9788   -2.4640    1.8637 H   0  0  0  0  0  0  0  0  0  0  0  0
    2.2268   -2.7255    6.1199 H   0  0  0  0  0  0  0  0  0  0  0  0
    2.4825   -3.3218    8.4633 H   0  0  0  0  0  0  0  0  0  0  0  0
    3.4659   -4.3556   11.8147 H   0  0  0  0  0  0  0  0  0  0  0  0
    2.3526   -4.5502   10.4441 H   0  0  0  0  0  0  0  0  0  0  0  0
    3.2632   -3.0190   10.6616 H   0  0  0  0  0  0  0  0  0  0  0  0
    6.2056   -5.2333    7.5692 H   0  0  0  0  0  0  0  0  0  0  0  0
    5.9569   -4.6115    5.2065 H   0  0  0  0  0  0  0  0  0  0  0  0
    0.4435    3.3857    0.9179 H   0  0  0  0  0  0  0  0  0  0  0  0
   -0.3612    4.9566    2.5916 H   0  0  0  0  0  0  0  0  0  0  0  0
   -2.2241    6.7251    5.2043 H   0  0  0  0  0  0  0  0  0  0  0  0
   -2.3303    5.9646    3.5985 H   0  0  0  0  0  0  0  0  0  0  0  0
   -0.7475    6.5217    4.2396 H   0  0  0  0  0  0  0  0  0  0  0  0
   -1.3964    1.7028    5.1635 H   0  0  0  0  0  0  0  0  0  0  0  0
   -0.6487    0.1119    3.4410 H   0  0  0  0  0  0  0  0  0  0  0  0
   -1.3115    1.9604   -0.3977 H   0  0  0  0  0  0  0  0  0  0  0  0
   -1.1829    2.2433   -2.8410 H   0  0  0  0  0  0  0  0  0  0  0  0
   -1.3079    0.5340   -4.7052 H   0  0  0  0  0  0  0  0  0  0  0  0
   -1.3325    2.2316   -5.2855 H   0  0  0  0  0  0  0  0  0  0  0  0
   -0.7562    0.9326   -6.3446 H   0  0  0  0  0  0  0  0  0  0  0  0
    2.7238    0.5235   -2.8185 H   0  0  0  0  0  0  0  0  0  0  0  0
    2.5612    0.1759   -0.3852 H   0  0  0  0  0  0  0  0  0  0  0  0
    2.8004   -4.8337   -2.0978 H   0  0  0  0  0  0  0  0  0  0  0  0
    3.4098   -6.8581   -0.8680 H   0  0  0  0  0  0  0  0  0  0  0  0
    3.2022  -10.1835    0.7366 H   0  0  0  0  0  0  0  0  0  0  0  0
    4.1288   -8.7468    0.2523 H   0  0  0  0  0  0  0  0  0  0  0  0
    2.7000   -9.2614   -0.6990 H   0  0  0  0  0  0  0  0  0  0  0  0
   -0.0970   -6.4527    1.5371 H   0  0  0  0  0  0  0  0  0  0  0  0
   -0.7341   -4.4453    0.2761 H   0  0  0  0  0  0  0  0  0  0  0  0
    0.2991   -5.4890   -3.3585 H   0  0  0  0  0  0  0  0  0  0  0  0
    0.4032   -5.4895   -5.7921 H   0  0  0  0  0  0  0  0  0  0  0  0
    1.6313   -5.6095   -7.8097 H   0  0  0  0  0  0  0  0  0  0  0  0
   -0.1399   -5.3794   -8.0136 H   0  0  0  0  0  0  0  0  0  0  0  0
    0.9812   -4.9739   -9.3371 H   0  0  0  0  0  0  0  0  0  0  0  0
    1.4917   -1.3485   -5.7504 H   0  0  0  0  0  0  0  0  0  0  0  0
    1.3568   -1.3535   -3.2880 H   0  0  0  0  0  0  0  0  0  0  0  0
   -5.3137   -2.5743   -2.9265 H   0  0  0  0  0  0  0  0  0  0  0  0
   -7.5548   -3.0556   -3.7785 H   0  0  0  0  0  0  0  0  0  0  0  0
  -10.6495    0.6032   -3.8089 H   0  0  0  0  0  0  0  0  0  0  0  0
  -11.1685   -0.1690   -2.2737 H   0  0  0  0  0  0  0  0  0  0  0  0
  -12.0153   -0.5334   -3.7922 H   0  0  0  0  0  0  0  0  0  0  0  0
   -8.9772    0.6245   -2.1289 H   0  0  0  0  0  0  0  0  0  0  0  0
   -6.7493    1.1108   -1.2963 H   0  0  0  0  0  0  0  0  0  0  0  0
   -3.3688    1.9426   -1.6504 H   0  0  0  0  0  0  0  0  0  0  0  0
   -3.1779    3.5717    0.2270 H   0  0  0  0  0  0  0  0  0  0  0  0
   -3.9785    1.7956    4.4404 H   0  0  0  0  0  0  0  0  0  0  0  0
   -4.2576    3.3880    5.1751 H   0  0  0  0  0  0  0  0  0  0  0  0
   -5.6162    2.5356    4.4021 H   0  0  0  0  0  0  0  0  0  0  0  0
   -5.3705    0.8866    2.7287 H   0  0  0  0  0  0  0  0  0  0  0  0
   -5.5599   -0.6953    0.8722 H   0  0  0  0  0  0  0  0  0  0  0  0
   -3.0442   -3.2642   -5.6269 H   0  0  0  0  0  0  0  0  0  0  0  0
   -1.3655   -4.3877  -11.0751 H   0  0  0  0  0  0  0  0  0  0  0  0
   -2.0379   -5.5802   -9.9235 H   0  0  0  0  0  0  0  0  0  0  0  0
   -4.2876   -5.3096  -10.9605 H   0  0  0  0  0  0  0  0  0  0  0  0
   -3.6475   -4.0871  -12.0634 H   0  0  0  0  0  0  0  0  0  0  0  0
   -3.1052   -5.7681  -12.1947 H   0  0  0  0  0  0  0  0  0  0  0  0
   -6.0063    3.2039   -2.3153 H   0  0  0  0  0  0  0  0  0  0  0  0
   -6.6378    4.0054   -3.7886 H   0  0  0  0  0  0  0  0  0  0  0  0
   -5.0427    5.5355   -2.6958 H   0  0  0  0  0  0  0  0  0  0  0  0
   -4.3345    4.9343   -4.2053 H   0  0  0  0  0  0  0  0  0  0  0  0
   -3.8060    4.2741   -2.6543 H   0  0  0  0  0  0  0  0  0  0  0  0
   -4.5290    1.2601   -9.1581 H   0  0  0  0  0  0  0  0  0  0  0  0
   -2.4815    6.3681   -6.1632 H   0  0  0  0  0  0  0  0  0  0  0  0
   -1.9809    8.8083   -6.2920 H   0  0  0  0  0  0  0  0  0  0  0  0
   -3.9772    8.9893  -10.8239 H   0  0  0  0  0  0  0  0  0  0  0  0
   -4.4870    6.6066  -10.7212 H   0  0  0  0  0  0  0  0  0  0  0  0
  1  2  2  0  0  0  0
  2  3  1  0  0  0  0
  3  4  2  0  0  0  0
  3  5  1  0  0  0  0
  5  6  2  0  0  0  0
  6  7  1  0  0  0  0
  7  8  2  0  0  0  0
  8  9  1  0  0  0  0
  9 10  2  0  0  0  0
 10 11  1  0  0  0  0
 11 12  2  0  0  0  0
 12 13  1  0  0  0  0
 13 14  3  0  0  0  0
 12 15  1  0  0  0  0
 15 16  3  0  0  0  0
  8 17  1  0  0  0  0
 17 18  1  0  0  0  0
 18 19  1  0  0  0  0
 19 20  2  0  0  0  0
 20 21  1  0  0  0  0
 21 22  1  0  0  0  0
 21 23  1  0  0  0  0
  1 24  1  0  0  0  0
 24 25  2  0  0  0  0
 25 26  1  0  0  0  0
 26 27  1  0  0  0  0
 27 28  2  0  0  0  0
 28 29  1  0  0  0  0
 29 30  2  0  0  0  0
 30 31  1  0  0  0  0
 31 32  1  0  0  0  0
 30 33  1  0  0  0  0
 33 34  2  0  0  0  0
 26 35  1  0  0  0  0
 35 36  2  0  0  0  0
 36 37  1  0  0  0  0
 37 38  2  0  0  0  0
 38 39  1  0  0  0  0
 39 40  1  0  0  0  0
 38 41  1  0  0  0  0
 41 42  2  0  0  0  0
 25 43  1  0  0  0  0
 43 44  1  0  0  0  0
 44 45  1  0  0  0  0
 45 46  2  0  0  0  0
 46 47  1  0  0  0  0
 47 48  1  0  0  0  0
 48 49  2  0  0  0  0
 49 50  1  0  0  0  0
 50 51  2  0  0  0  0
 51 52  1  0  0  0  0
 52 53  1  0  0  0  0
 51 54  1  0  0  0  0
 54 55  2  0  0  0  0
 47 56  1  0  0  0  0
 56 57  2  0  0  0  0
 57 58  1  0  0  0  0
 58 59  2  0  0  0  0
 59 60  1  0  0  0  0
 60 61  1  0  0  0  0
 59 62  1  0  0  0  0
 62 63  2  0  0  0  0
 46 64  1  0  0  0  0
 64 65  1  0  0  0  0
 45 66  1  0  0  0  0
 66 67  2  0  0  0  0
 67 68  1  0  0  0  0
 68 69  1  0  0  0  0
 69 70  2  0  0  0  0
 70 71  1  0  0  0  0
 71 72  2  0  0  0  0
 72 73  1  0  0  0  0
 73 74  1  0  0  0  0
 72 75  1  0  0  0  0
 75 76  2  0  0  0  0
 68 77  1  0  0  0  0
 77 78  2  0  0  0  0
 78 79  1  0  0  0  0
 79 80  2  0  0  0  0
 80 81  1  0  0  0  0
 81 82  1  0  0  0  0
 80 83  1  0  0  0  0
 83 84  2  0  0  0  0
 67 85  1  0  0  0  0
 85 86  1  0  0  0  0
 86 87  1  0  0  0  0
 87 88  2  0  0  0  0
 88 89  1  0  0  0  0
 89 90  1  0  0  0  0
 90 91  2  0  0  0  0
 91 92  1  0  0  0  0
 92 93  2  0  0  0  0
 93 94  1  0  0  0  0
 94 95  1  0  0  0  0
 93 96  1  0  0  0  0
 96 97  2  0  0  0  0
 89 98  1  0  0  0  0
 98 99  2  0  0  0  0
 99100  1  0  0  0  0
100101  2  0  0  0  0
101102  1  0  0  0  0
102103  1  0  0  0  0
101104  1  0  0  0  0
104105  2  0  0  0  0
 88106  1  0  0  0  0
106107  1  0  0  0  0
 87108  1  0  0  0  0
108109  2  0  0  0  0
109110  1  0  0  0  0
110111  2  0  0  0  0
111112  1  0  0  0  0
112113  2  0  0  0  0
112114  1  0  0  0  0
114115  1  0  0  0  0
115116  1  0  0  0  0
111117  1  0  0  0  0
117118  1  0  0  0  0
118119  2  0  0  0  0
119120  1  0  0  0  0
120121  1  0  0  0  0
121122  2  0  0  0  0
122123  1  0  0  0  0
123124  1  0  0  0  0
124125  1  0  0  0  0
123126  1  0  0  0  0
119127  1  0  0  0  0
127128  2  0  0  0  0
128129  1  0  0  0  0
129130  2  0  0  0  0
129131  1  0  0  0  0
131132  2  0  0  0  0
132133  1  0  0  0  0
133134  2  0  0  0  0
134135  1  0  0  0  0
135136  1  0  0  0  0
135137  2  0  0  0  0
137138  1  0  0  0  0
137139  1  0  0  0  0
139140  2  0  0  0  0
140141  1  0  0  0  0
141142  2  0  0  0  0
142143  1  0  0  0  0
143144  2  0  0  0  0
144145  1  0  0  0  0
145146  3  0  0  0  0
144147  1  0  0  0  0
147148  3  0  0  0  0
 11  2  1  0  0  0  0
 23 17  1  0  0  0  0
 65 24  1  0  0  0  0
107 66  1  0  0  0  0
121108  1  0  0  0  0
143128  1  0  0  0  0
 10  5  1  0  0  0  0
 22 18  1  0  0  0  0
 34 27  1  0  0  0  0
 42 35  1  0  0  0  0
 64 43  2  0  0  0  0
 76 69  1  0  0  0  0
 84 77  1  0  0  0  0
106 85  2  0  0  0  0
118109  1  0  0  0  0
126120  2  0  0  0  0
142131  1  0  0  0  0
 23  7  1  0  0  0  0
 55 48  1  0  0  0  0
 63 56  1  0  0  0  0
 97 90  1  0  0  0  0
105 98  1  0  0  0  0
140133  1  0  0  0  0
  1149  1  0  0  0  0
  6150  1  0  0  0  0
  9151  1  0  0  0  0
 17152  1  0  0  0  0
 18153  1  0  0  0  0
 19154  1  0  0  0  0
 20155  1  0  0  0  0
 21156  1  0  0  0  0
 22157  1  0  0  0  0
 22158  1  0  0  0  0
 23159  1  0  0  0  0
 28160  1  0  0  0  0
 29161  1  0  0  0  0
 32162  1  0  0  0  0
 32163  1  0  0  0  0
 32164  1  0  0  0  0
 33165  1  0  0  0  0
 34166  1  0  0  0  0
 36167  1  0  0  0  0
 37168  1  0  0  0  0
 40169  1  0  0  0  0
 40170  1  0  0  0  0
 40171  1  0  0  0  0
 41172  1  0  0  0  0
 42173  1  0  0  0  0
 49174  1  0  0  0  0
 50175  1  0  0  0  0
 53176  1  0  0  0  0
 53177  1  0  0  0  0
 53178  1  0  0  0  0
 54179  1  0  0  0  0
 55180  1  0  0  0  0
 57181  1  0  0  0  0
 58182  1  0  0  0  0
 61183  1  0  0  0  0
 61184  1  0  0  0  0
 61185  1  0  0  0  0
 62186  1  0  0  0  0
 63187  1  0  0  0  0
 70188  1  0  0  0  0
 71189  1  0  0  0  0
 74190  1  0  0  0  0
 74191  1  0  0  0  0
 74192  1  0  0  0  0
 75193  1  0  0  0  0
 76194  1  0  0  0  0
 78195  1  0  0  0  0
 79196  1  0  0  0  0
 82197  1  0  0  0  0
 82198  1  0  0  0  0
 82199  1  0  0  0  0
 83200  1  0  0  0  0
 84201  1  0  0  0  0
 91202  1  0  0  0  0
 92203  1  0  0  0  0
 95204  1  0  0  0  0
 95205  1  0  0  0  0
 95206  1  0  0  0  0
 96207  1  0  0  0  0
 97208  1  0  0  0  0
 99209  1  0  0  0  0
100210  1  0  0  0  0
103211  1  0  0  0  0
103212  1  0  0  0  0
103213  1  0  0  0  0
104214  1  0  0  0  0
105215  1  0  0  0  0
110216  1  0  0  0  0
115217  1  0  0  0  0
115218  1  0  0  0  0
116219  1  0  0  0  0
116220  1  0  0  0  0
116221  1  0  0  0  0
124222  1  0  0  0  0
124223  1  0  0  0  0
125224  1  0  0  0  0
125225  1  0  0  0  0
125226  1  0  0  0  0
127227  1  0  0  0  0
132228  1  0  0  0  0
134229  1  0  0  0  0
139230  1  0  0  0  0
141231  1  0  0  0  0
M  END
