265

C          0.73930        7.96560       -2.76550
C          0.58460        8.24710       -4.10270
C          0.13120        7.26220       -5.09850
O         -0.10410        6.08200       -4.91830
C         -0.11120        8.02960       -6.33900
C         -0.57160        7.53410       -7.55550
C         -0.69380        8.48750       -8.53910
C         -0.39980        9.83870       -8.32210
C          0.03980       10.34410       -7.12040
C          0.19030        9.38630       -6.11390
C          0.66270        9.53410       -4.73840
C          1.23970       10.65830       -4.20060
C          1.80570       10.70750       -2.91140
N          2.30810       10.80660       -1.88310
C          1.40600       11.87200       -4.89360
N          1.57040       12.87780       -5.42370
C         -0.74070       10.22510       -9.74000
C          0.45040       10.46800      -10.69130
C         -0.16070       10.35460      -12.06930
C         -0.44960        9.07660      -12.27860
C         -0.03640        8.30410      -11.04680
C          1.18730        9.12430      -10.61940
C         -1.07400        8.71780       -9.98200
C          0.97680        6.70020       -2.21180
C          1.61290        5.55500       -2.73200
N          2.29100        5.47820       -3.92050
C          2.38000        4.25220       -4.60510
C          1.30770        3.36080       -4.62090
C          1.42160        2.15570       -5.27580
C          2.59300        1.82630       -5.95580
S          2.63480        0.23710       -6.72140
C          4.22230        0.20620       -7.60100
C          3.64150        2.73540       -5.98880
C          3.54010        3.92950       -5.30190
C          2.86440        6.61590       -4.50480
C          3.54480        7.55210       -3.72270
C          4.04540        8.69980       -4.29020
C          3.87830        8.94820       -5.65440
S          4.48970       10.48470       -6.25970
C          3.65680       10.67040       -7.86210
C          3.25970        7.99110       -6.44730
C          2.75860        6.83620       -5.87700
C          1.53640        4.48630       -1.80730
S          2.09580        2.84060       -1.80450
C          1.34750        2.56440       -0.24140
C          0.78180        3.71910        0.27710
N          0.18830        3.78380        1.53220
C          0.80210        3.12690        2.60270
C          0.04480        2.45490        3.56260
C          0.66560        1.78760        4.59440
C          2.05490        1.77590        4.69760
S          2.74520        0.84770        6.03700
C          4.51290        1.25750        5.98620
C          2.81360        2.44710        3.74790
C          2.19070        3.11420        2.71240
C         -1.06310        4.39690        1.66600
C         -1.98440        4.35570        0.62000
C         -3.20260        4.98510        0.74330
C         -3.53270        5.66240        1.91400
S         -5.11320        6.45190        1.95010
C         -5.26710        7.03940        3.65970
C         -2.62450        5.69530        2.96270
C         -1.40010        5.07090        2.83600
C          0.89850        4.80410       -0.61550
S          0.41520        6.45350       -0.55210
C          1.06970        1.27570        0.33180
C          1.83980        0.20460        0.74240
N          3.21410        0.09120        0.61540
C          3.83720        0.44210       -0.59770
C          5.06480        1.09530       -0.55760
C          5.75060        1.36690       -1.72280
C          5.21200        0.98680       -2.94530
S          6.08460        1.21590       -4.46400
C          7.08840        2.69400       -4.13660
C          3.97680        0.34960       -2.99390
C          3.29080        0.07970       -1.82730
C          3.90730       -0.78160        1.46980
C          4.87310       -1.65890        0.97390
C          5.49600       -2.55410        1.81340
C          5.17640       -2.60010        3.16960
S          5.99500       -3.83370        4.12900
C          5.37960       -3.56110        5.81130
C          4.24780       -1.70330        3.67660
C          3.62470       -0.80320        2.83270
C          1.02960       -0.80310        1.32730
S          1.35210       -2.37220        1.96440
C         -0.36900       -2.69810        2.11230
C         -1.14250       -1.61510        1.71150
N         -2.52820       -1.57030        1.62900
C         -3.24310       -2.56510        0.95810
C         -2.60170       -3.42030        0.06310
C         -3.28060       -4.46240       -0.53390
C         -4.63080       -4.65430       -0.27420
S         -5.59170       -5.95760       -0.97210
C         -4.34480       -7.16220       -1.50590
C         -5.29080       -3.76080        0.56540
C         -4.60870       -2.73930        1.18670
C         -3.13870       -0.40990        2.12740
C         -4.13410        0.26170        1.42430
C         -4.73220        1.38690        1.95520
C         -4.34340        1.85870        3.20110
S         -5.09450        3.23980        4.00100
C         -6.64100        3.46710        3.07770
C         -3.31680        1.21690        3.88900
C         -2.72020        0.09460        3.35910
C         -0.32740       -0.53980        1.29790
S         -0.65930        0.99890        0.60810
C         -0.80830       -3.92820        2.65990
C         -0.11560       -5.13660        2.71300
N          1.15810       -5.37340        2.19350
C          1.42840       -5.06960        0.85540
C          2.67690       -4.59350        0.45490
C          2.88890       -4.17550       -0.84350
C          1.85550       -4.22070       -1.76940
S          1.97720       -3.61330       -3.42350
C          3.74300       -3.25480       -3.63720
C          0.62170       -4.74420       -1.38660
C          0.41100       -5.17080       -0.09400
C          2.13030       -5.86280        3.06990
C          3.17320       -6.66890        2.61950
C          4.14580       -7.11570        3.49090
C          4.08390       -6.78310        4.83710
S          5.29040       -7.29150        6.02520
C          6.75610       -7.60880        5.00130
C          3.01750       -6.02040        5.30250
C          2.06020       -5.55400        4.42970
C         -0.86890       -6.11610        3.38290
S         -0.61600       -7.79420        3.67820
C         -2.22880       -7.92560        4.40860
C         -2.83210       -6.65010        4.57170
N         -3.96480       -6.37020        5.26160
C         -4.44950       -7.16070        6.31960
C         -3.57530       -7.74450        7.23540
C         -4.04950       -8.61040        8.19710
C         -5.40980       -8.89090        8.26940
S         -6.06230      -10.08390        9.38800
C         -4.69670      -11.28180        9.47740
C         -6.29480       -8.21920        7.42980
C         -5.82110       -7.36060        6.46130
C         -4.60370       -5.11020        5.07000
C         -5.45970       -4.90290        3.99460
C         -6.07410       -3.67900        3.84300
C         -5.80420       -2.63370        4.72560
S         -6.55140       -1.08280        4.35110
C         -6.06880       -0.01290        5.73310
C         -4.96650       -2.85180        5.81140
C         -4.38680       -4.09320        5.99010
C         -2.08740       -5.67140        3.88070
S         -2.36620       -4.01420        3.46010
C         -2.77020       -9.16520        4.71650
C         -2.35530      -10.42280        4.31930
C         -2.66250      -11.57060        5.18270
O         -3.36180      -11.58340        6.17860
C         -1.87690      -12.69810        4.62380
C         -1.74270      -13.98400        5.10440
C         -0.91810      -14.85150        4.40370
F         -0.75910      -16.11010        4.83960
C         -0.25270      -14.42910        3.25540
F          0.54810      -15.28530        2.60590
C         -0.39550      -13.13850        2.76440
C         -1.21660      -12.26820        3.45900
C         -1.60260      -10.87990        3.18960
C         -1.49650      -10.26090        1.96370
C         -2.17380       -9.07710        1.61830
N         -2.75530       -8.15470        1.25160
C         -0.78300      -10.78950        0.87280
N         -0.20060      -11.15970       -0.04570
H          0.61400        8.77040       -2.05070
H         -0.79910        6.48630       -7.67720
H          0.23600       11.39160       -6.95870
H         -1.53480       10.96000       -9.85650
H          1.02490       11.36660      -10.48240
H         -0.36670       11.19560      -12.70480
H         -0.94470        8.63670      -13.12430
H          0.09490        7.23150      -11.16330
H          1.55790        8.87380       -9.62700
H          2.00060        9.06090      -11.34070
H         -2.09300        8.44810      -10.25290
H          0.38070        3.63860       -4.14630
H          0.59850        1.45790       -5.28030
H          4.25390        1.00830       -8.33220
H          4.25470       -0.75400       -8.10670
H          5.04170        0.28010       -6.89180
H          4.54680        2.52050       -6.53110
H          4.36920        4.62280       -5.31220
H          3.66500        7.38160       -2.66360
H          4.55870        9.42890       -3.68270
H          4.09230       10.00120       -8.59880
H          3.82410       11.70170       -8.15600
H          2.59240       10.49070       -7.74090
H          3.15090        8.13790       -7.51000
H          2.27010        6.10040       -6.49790
H         -1.03110        2.44800        3.47930
H          0.08070        1.25710        5.33050
H          4.96650        0.85310        5.08500
H          4.64150        2.33410        6.04720
H          4.94740        0.78590        6.86240
H          3.89060        2.45500        3.79820
H          2.78940        3.63070        1.97670
H         -1.74460        3.81910       -0.28570
H         -3.91400        4.95640       -0.06810
H         -4.53590        7.81910        3.85270
H         -5.14820        6.20410        4.34400
H         -6.26930        7.44900        3.74000
H         -2.85160        6.20990        3.88170
H         -0.69270        5.11280        3.65070
H          5.48740        1.36760        0.39810
H          6.70900        1.85870       -1.66900
H          7.95900        2.43940       -3.53900
H          7.40870        3.06170       -5.10640
H          6.47150        3.43650       -3.64000
H          3.56320        0.05720       -3.94590
H          2.33880       -0.42920       -1.86350
H          5.12100       -1.64760       -0.07680
H          6.22910       -3.24470        1.42450
H          5.82300       -4.34530        6.41740
H          5.69950       -2.58650        6.16870
H          4.29840       -3.65740        5.82330
H          3.98500       -1.69640        4.72190
H          2.89480       -0.11640        3.23140
H         -1.55860       -3.27000       -0.17130
H         -2.74850       -5.11270       -1.20910
H         -4.90040       -8.04870       -1.79590
H         -3.79290       -6.78270       -2.36110
H         -3.68760       -7.39360       -0.67180
H         -6.34880       -3.89220        0.73190
H         -5.12610       -2.07640        1.86170
H         -4.43730       -0.09860        0.45320
H         -5.49500        1.89110        1.38510
H         -7.24020        4.15540        3.66600
H         -6.43450        3.90570        2.10590
H         -7.15020        2.51220        2.98690
H         -3.00770        1.60210        4.85020
H         -1.93620       -0.41370        3.90170
H          3.47510       -4.50470        1.17610
H          3.85990       -3.79120       -1.11010
H          4.04730       -2.44460       -2.98030
H          4.32500       -4.15380       -3.45710
H          3.85040       -2.94360       -4.67180
H         -0.16910       -4.80490       -2.11880
H         -0.54630       -5.57870        0.19540
H          3.21840       -6.95240        1.57900
H          4.94310       -7.73320        3.11010
H          6.64490       -8.54440        4.46100
H          7.59040       -7.68270        5.69180
H          6.90260       -6.77260        4.32390
H          2.95740       -5.78700        6.35520
H          1.25910       -4.92940        4.79750
H         -2.51670       -7.54070        7.16930
H         -3.35540       -9.07130        8.88060
H         -3.93790      -10.94230       10.17670
H         -5.13660      -12.20630        9.83770
H         -4.28540      -11.42340        8.48190
H         -7.35280       -8.40870        7.52100
H         -6.50540       -6.87380        5.78330
H         -5.63830       -5.69720        3.28600
H         -6.76800       -3.51450        3.03500
H         -6.52450        0.95210        5.53440
H         -6.45280       -0.41710        6.66500
H         -4.98870        0.09480        5.75430
H         -4.75520       -2.06910        6.52120
H         -3.74150       -4.27060        6.83800
H         -3.59320       -9.18900        5.42040
H         -2.25930      -14.31280        5.99190
H          0.13920      -12.85500        1.87260
