209

C          3.48710       -8.03970        2.98470
C          4.81350       -8.02780        3.22660
C          5.43020       -9.00660        4.16930
O          4.96290      -10.05950        4.53270
C          6.68800       -8.36850        4.60260
C          7.55350       -8.81160        5.60080
C          8.63690       -7.99260        5.80880
C          8.84410       -6.80760        5.08760
C          8.00240       -6.35740        4.10020
C          6.89970       -7.18250        3.86430
C          5.82960       -7.04650        2.88830
C          5.84790       -6.29240        1.74580
C          4.88480       -6.44390        0.72870
N          4.14700       -6.57900       -0.14060
C          6.80870       -5.30200        1.48200
N          7.54080       -4.44200        1.27060
C         10.12140       -6.48950        5.82330
C         11.45890       -6.75560        5.08920
C         11.18780       -7.85340        4.09020
C         10.99490       -8.97760        4.76700
C         11.13200       -8.66040        6.23560
C         12.19720       -7.55390        6.17540
C          9.89450       -7.81200        6.62140
C          2.66940       -7.00350        2.40940
C          2.78600       -5.63950        2.61200
C          3.68320       -4.91560        3.54520
O          4.55020       -5.34180        4.27760
N          3.31840       -3.59380        3.47570
C          3.95200       -2.54970        4.25030
C          5.33650       -2.22280        3.70320
C          2.22140       -3.38210        2.64400
O          1.63930       -2.32420        2.56640
C          1.91470       -4.68030        2.03750
C          0.87110       -5.00900        1.17280
C          0.69560       -6.41490        0.98590
C          1.56250       -7.38420        1.59610
N          1.21620       -8.62820        1.28700
S         -0.06900       -8.59070        0.32180
N         -0.24470       -6.99040        0.24620
C         -0.03540       -4.10160        0.56050
C          0.12590       -2.76810        0.16970
N          1.30890       -2.09270        0.02660
C          1.26930       -0.68590       -0.05020
C          0.58770        0.05010        0.91680
C          0.42550        1.41410        0.77010
C          0.93930        2.05720       -0.34770
S          0.66910        3.78020       -0.65790
C         -1.05680        3.99860       -0.12650
C          1.69650        1.33960       -1.26860
C          1.86230       -0.02060       -1.12290
C          2.49410       -2.73810       -0.35750
C          3.71680       -2.23180        0.07370
C          4.90600       -2.75440       -0.39830
C          4.88690       -3.78730       -1.32660
S          6.32530       -4.47720       -2.06730
C          7.63190       -3.27800       -1.67340
C          3.66330       -4.32710       -1.72650
C          2.48170       -3.81500       -1.24570
C         -1.11980       -2.22120       -0.22960
S         -1.61750       -0.65940       -0.75270
C         -3.27900       -1.22080       -0.95580
C         -3.41850       -2.56260       -0.67680
N         -4.54530       -3.33800       -0.85400
C         -4.38120       -4.68170       -1.22880
C         -5.17850       -5.67210       -0.65650
C         -4.94830       -6.99770       -0.94820
C         -3.92170       -7.36300       -1.81680
S         -3.65260       -9.09110       -2.05860
C         -2.00560       -9.14820       -2.82220
C         -3.17360       -6.37730       -2.44370
C         -3.40560       -5.04810       -2.15200
C         -5.84330       -2.81470       -0.74920
C         -6.77360       -3.07930       -1.74830
C         -8.06410       -2.59750       -1.65510
C         -8.44420       -1.84080       -0.55430
S        -10.05880       -1.16950       -0.32640
C        -10.98900       -1.76580       -1.76730
C         -7.51630       -1.58640        0.45530
C         -6.23100       -2.07210        0.36340
C         -2.17610       -3.11290       -0.23840
S         -1.67230       -4.68870        0.26050
C         -4.13010       -0.09960       -1.29390
C         -4.89980        0.66020       -0.47050
C         -5.10670        1.98470       -0.94210
C         -5.63750        3.06500       -0.22060
C         -6.28770        2.87570        1.08630
C         -5.78400        3.51860        2.21500
C         -6.40330        3.35020        3.43860
C         -7.53110        2.55760        3.55660
C         -8.03300        1.90690        2.43750
S         -9.50100        0.91870        2.45420
C         -9.61950        0.31340        4.17520
C         -8.47080       -0.60720        4.53930
C         -7.40360        2.06000        1.20650
C         -5.43350        4.32740       -0.75470
C         -4.75560        4.54760       -1.98270
C         -4.28910        3.46010       -2.74110
C         -3.55320        3.64560       -3.99900
C         -3.95350        2.97300       -5.14910
C         -3.26880        3.17100       -6.33580
C         -2.17610        4.01380       -6.38060
C         -1.75250        4.66470       -5.22440
S         -0.34890        5.72880       -5.36030
C          0.29280        5.76930       -3.64410
C          1.67970        6.38200       -3.63440
C         -2.44530        4.48690       -4.03670
C         -4.47050        2.20560       -2.18900
S         -3.72460        0.74740       -2.78370
C         -4.55970        5.92050       -2.23890
C         -5.04660        6.73920       -1.25640
S         -5.88280        5.83490       -0.00150
C         -4.89860        8.14820       -1.16470
C         -3.76110        8.80260       -1.53690
C         -2.42910        8.15940       -1.66150
O         -2.15770        6.97350       -1.68880
C         -1.45390        9.25980       -1.65060
C         -0.06590        9.13640       -1.66920
C          0.59990       10.33670       -1.70080
C         -0.06220       11.57240       -1.69660
C         -1.42980       11.70800       -1.65110
C         -2.12890       10.49760       -1.62960
C         -3.56400       10.23980       -1.58520
C         -4.55880       11.17780       -1.65910
C         -5.93650       10.87340       -1.69940
N         -7.06920       10.69620       -1.75610
C         -4.33980       12.56860       -1.73880
N         -4.22790       13.70970       -1.79670
C          1.22790       12.35130       -1.75890
C          1.63440       12.95920       -3.12440
C          0.99560       12.09860       -4.18630
C          1.61990       10.92850       -4.18940
C          2.69290       10.97660       -3.12950
C          3.08600       12.46030       -3.20960
C          1.96390       10.97400       -1.76280
H          2.95210       -8.93920        3.27170
H          7.35570       -9.72410        6.14120
H          8.16180       -5.43920        3.55930
H         10.13100       -5.55400        6.37910
H         11.94700       -5.86490        4.70280
H         11.10940       -7.69290        3.03090
H         10.72320       -9.94450        4.38590
H         11.32330       -9.50420        6.89330
H         12.31130       -7.00970        7.11190
H         13.16690       -7.92080        5.84250
H          9.76040       -7.74140        7.69910
H          3.29320       -1.67950        4.19790
H          4.03120       -2.89040        5.28680
H          5.97840       -3.09830        3.76480
H          5.78180       -1.42060        4.28510
H          5.27210       -1.91130        2.66360
H          0.19090       -0.46190        1.77890
H         -0.11590        1.96850        1.52060
H         -1.11610        4.06230        0.95610
H         -1.39410        4.93220       -0.56810
H         -1.65030        3.16910       -0.50010
H          2.12300        1.85330       -2.11620
H          2.41550       -0.58120       -1.86180
H          3.72380       -1.40390        0.76780
H          5.83940       -2.34760       -0.04360
H          7.87790       -3.33680       -0.61680
H          8.48880       -3.57590       -2.26930
H          7.30770       -2.28190       -1.95860
H          3.65770       -5.13700       -2.43800
H          1.54240       -4.21970       -1.59060
H         -5.95920       -5.39300        0.03510
H         -5.54560       -7.76960       -0.48780
H         -1.69030      -10.18560       -2.77050
H         -1.32470       -8.52120       -2.25400
H         -2.06030       -8.83430       -3.86090
H         -2.40690       -6.62740       -3.15830
H         -2.81830       -4.28420       -2.64030
H         -6.47900       -3.66960       -2.60350
H         -8.75930       -2.81600       -2.44910
H        -11.00140       -2.85170       -1.78090
H        -10.56390       -1.36250       -2.68170
H        -11.99800       -1.38780       -1.63450
H         -7.82720       -1.01070        1.31280
H         -5.51930       -1.89950        1.15760
H         -5.22720        0.33990        0.50070
H         -4.90280        4.13650        2.13200
H         -6.01170        3.84880        4.31300
H         -8.01380        2.46350        4.51630
H        -10.56840       -0.22220        4.18950
H         -9.69290        1.16820        4.84640
H         -8.59300       -0.96750        5.55900
H         -7.51820       -0.08530        4.46720
H         -8.44840       -1.46350        3.86870
H         -7.80590        1.55600        0.34030
H         -4.81160        2.31870       -5.11510
H         -3.58840        2.66090       -7.23220
H         -1.63630        4.17260       -7.30140
H         -0.39780        6.34980       -3.03370
H          0.32270        4.73940       -3.29050
H          2.08680        6.33900       -2.62600
H          2.34280        5.83220       -4.29860
H          1.64670        7.41900       -3.96210
H         -2.13650        4.98610       -3.13300
H         -4.10190        6.29690       -3.13460
H         -5.71340        8.70040       -0.71320
H          0.40980        8.16870       -1.66080
H         -1.92570       12.66420       -1.62980
H          1.41680       13.02990       -0.92960
H          1.46640       14.02940       -3.20900
H          0.14520       12.40000       -4.76920
H          1.39470       10.05830       -4.77810
H          3.48850       10.24130       -3.21760
H          3.56510       12.71860       -4.15260
H          3.70790       12.78990       -2.37840
H          2.63400       10.75080       -0.93490
