
  xtb     02072220033D
 energy: -422.753997552262 gnorm: 0.000849090509 xtb: 6.4.1 (unknown)
242265  0     0  0            999 V2000
   -2.9825    4.6987    6.1186 C   0  0  0  0  0  0  0  0  0  0  0  0
   -3.4771    4.1877    7.2944 C   0  0  0  0  0  0  0  0  0  0  0  0
   -3.5657    2.7693    7.6495 C   0  0  0  0  0  0  0  0  0  0  0  0
   -3.1352    1.8170    7.0206 O   0  0  0  0  0  0  0  0  0  0  0  0
   -4.3017    2.7079    8.9243 C   0  0  0  0  0  0  0  0  0  0  0  0
   -4.6388    1.5650    9.6453 C   0  0  0  0  0  0  0  0  0  0  0  0
   -5.3360    1.8200   10.8021 C   0  0  0  0  0  0  0  0  0  0  0  0
   -5.6761    3.1162   11.2096 C   0  0  0  0  0  0  0  0  0  0  0  0
   -5.3493    4.2523   10.5068 C   0  0  0  0  0  0  0  0  0  0  0  0
   -4.6370    4.0162    9.3276 C   0  0  0  0  0  0  0  0  0  0  0  0
   -4.1113    4.9576    8.3388 C   0  0  0  0  0  0  0  0  0  0  0  0
   -4.2152    6.3259    8.4139 C   0  0  0  0  0  0  0  0  0  0  0  0
   -3.6213    7.2494    7.5332 C   0  0  0  0  0  0  0  0  0  0  0  0
   -3.1580    8.0847    6.8918 N   0  0  0  0  0  0  0  0  0  0  0  0
   -4.9205    7.0230    9.4153 C   0  0  0  0  0  0  0  0  0  0  0  0
   -5.4817    7.6692   10.1818 N   0  0  0  0  0  0  0  0  0  0  0  0
   -6.3670    2.6288   12.4591 C   0  0  0  0  0  0  0  0  0  0  0  0
   -5.5916    2.7884   13.7838 C   0  0  0  0  0  0  0  0  0  0  0  0
   -6.2722    1.8169   14.7209 C   0  0  0  0  0  0  0  0  0  0  0  0
   -5.9466    0.5896   14.3360 C   0  0  0  0  0  0  0  0  0  0  0  0
   -5.0408    0.7108   13.1317 C   0  0  0  0  0  0  0  0  0  0  0  0
   -4.3041    2.0092   13.4855 C   0  0  0  0  0  0  0  0  0  0  0  0
   -5.9851    1.1831   12.0058 C   0  0  0  0  0  0  0  0  0  0  0  0
   -2.4076    4.0593    5.0188 C   0  0  0  0  0  0  0  0  0  0  0  0
   -2.0384    4.7516    3.8408 C   0  0  0  0  0  0  0  0  0  0  0  0
   -2.3111    6.0630    3.5409 N   0  0  0  0  0  0  0  0  0  0  0  0
   -3.5401    6.6641    3.8426 C   0  0  0  0  0  0  0  0  0  0  0  0
   -4.7064    5.8997    3.9170 C   0  0  0  0  0  0  0  0  0  0  0  0
   -5.8967    6.4873    4.2766 C   0  0  0  0  0  0  0  0  0  0  0  0
   -5.9592    7.8556    4.5382 C   0  0  0  0  0  0  0  0  0  0  0  0
   -7.5287    8.5003    5.0209 S   0  0  0  0  0  0  0  0  0  0  0  0
   -7.1094   10.1014    5.7645 C   0  0  0  0  0  0  0  0  0  0  0  0
   -4.8150    8.6280    4.4047 C   0  0  0  0  0  0  0  0  0  0  0  0
   -3.6127    8.0340    4.0740 C   0  0  0  0  0  0  0  0  0  0  0  0
   -1.3642    6.7455    2.7523 C   0  0  0  0  0  0  0  0  0  0  0  0
   -1.7470    7.5029    1.6465 C   0  0  0  0  0  0  0  0  0  0  0  0
   -0.7891    8.1111    0.8669 C   0  0  0  0  0  0  0  0  0  0  0  0
    0.5661    7.9786    1.1698 C   0  0  0  0  0  0  0  0  0  0  0  0
    1.7007    8.7741    0.0803 S   0  0  0  0  0  0  0  0  0  0  0  0
    3.3280    8.4493    0.8182 C   0  0  0  0  0  0  0  0  0  0  0  0
    0.9480    7.2424    2.2834 C   0  0  0  0  0  0  0  0  0  0  0  0
   -0.0125    6.6374    3.0688 C   0  0  0  0  0  0  0  0  0  0  0  0
   -1.3601    3.9022    2.9517 C   0  0  0  0  0  0  0  0  0  0  0  0
   -0.7171    4.1353    1.3615 S   0  0  0  0  0  0  0  0  0  0  0  0
   -0.4008    2.4205    1.2512 C   0  0  0  0  0  0  0  0  0  0  0  0
   -0.6533    1.7418    2.4267 C   0  0  0  0  0  0  0  0  0  0  0  0
   -0.2866    0.4084    2.6139 N   0  0  0  0  0  0  0  0  0  0  0  0
   -1.2189   -0.5242    3.0688 C   0  0  0  0  0  0  0  0  0  0  0  0
   -2.5801   -0.2905    2.8982 C   0  0  0  0  0  0  0  0  0  0  0  0
   -3.5193   -1.2281    3.2772 C   0  0  0  0  0  0  0  0  0  0  0  0
   -3.1098   -2.4282    3.8371 C   0  0  0  0  0  0  0  0  0  0  0  0
   -4.2058   -3.7350    4.3010 S   0  0  0  0  0  0  0  0  0  0  0  0
   -5.8387   -3.1492    3.7716 C   0  0  0  0  0  0  0  0  0  0  0  0
   -1.7517   -2.6477    4.0596 C   0  0  0  0  0  0  0  0  0  0  0  0
   -0.8171   -1.7069    3.6913 C   0  0  0  0  0  0  0  0  0  0  0  0
    1.0163    0.0535    2.2346 C   0  0  0  0  0  0  0  0  0  0  0  0
    1.3021   -1.1523    1.5963 C   0  0  0  0  0  0  0  0  0  0  0  0
    2.5851   -1.4449    1.1767 C   0  0  0  0  0  0  0  0  0  0  0  0
    3.6164   -0.5434    1.3974 C   0  0  0  0  0  0  0  0  0  0  0  0
    5.2772   -0.8283    0.8498 S   0  0  0  0  0  0  0  0  0  0  0  0
    5.4548   -2.6249    1.0412 C   0  0  0  0  0  0  0  0  0  0  0  0
    3.3455    0.6538    2.0516 C   0  0  0  0  0  0  0  0  0  0  0  0
    2.0656    0.9464    2.4674 C   0  0  0  0  0  0  0  0  0  0  0  0
   -1.2452    2.5913    3.3938 C   0  0  0  0  0  0  0  0  0  0  0  0
   -1.9728    2.3457    4.9414 S   0  0  0  0  0  0  0  0  0  0  0  0
   -0.0115    1.7793    0.0179 C   0  0  0  0  0  0  0  0  0  0  0  0
   -0.8716    1.0453   -0.7733 C   0  0  0  0  0  0  0  0  0  0  0  0
   -2.2518    0.9934   -0.5751 N   0  0  0  0  0  0  0  0  0  0  0  0
   -2.9308    2.2011   -0.3627 C   0  0  0  0  0  0  0  0  0  0  0  0
   -2.5392    3.3464   -1.0599 C   0  0  0  0  0  0  0  0  0  0  0  0
   -3.1637    4.5542   -0.8376 C   0  0  0  0  0  0  0  0  0  0  0  0
   -4.2026    4.6518    0.0824 C   0  0  0  0  0  0  0  0  0  0  0  0
   -4.9335    6.2441    0.3345 S   0  0  0  0  0  0  0  0  0  0  0  0
   -6.6384    5.8378    0.8097 C   0  0  0  0  0  0  0  0  0  0  0  0
   -4.6079    3.5169    0.7702 C   0  0  0  0  0  0  0  0  0  0  0  0
   -3.9830    2.3062    0.5454 C   0  0  0  0  0  0  0  0  0  0  0  0
   -2.8831   -0.2475   -0.4551 C   0  0  0  0  0  0  0  0  0  0  0  0
   -4.2377   -0.4015   -0.7545 C   0  0  0  0  0  0  0  0  0  0  0  0
   -4.8583   -1.6131   -0.5526 C   0  0  0  0  0  0  0  0  0  0  0  0
   -4.1448   -2.7079   -0.0667 C   0  0  0  0  0  0  0  0  0  0  0  0
   -5.0656   -4.1907    0.2058 S   0  0  0  0  0  0  0  0  0  0  0  0
   -3.8574   -5.3351    0.9277 C   0  0  0  0  0  0  0  0  0  0  0  0
   -2.7849   -2.5782    0.1702 C   0  0  0  0  0  0  0  0  0  0  0  0
   -2.1660   -1.3593   -0.0234 C   0  0  0  0  0  0  0  0  0  0  0  0
   -0.1655    0.3976   -1.8163 C   0  0  0  0  0  0  0  0  0  0  0  0
   -0.5805   -0.7060   -3.0767 S   0  0  0  0  0  0  0  0  0  0  0  0
    1.1062   -0.7890   -3.6032 C   0  0  0  0  0  0  0  0  0  0  0  0
    1.9381   -0.0148   -2.8047 C   0  0  0  0  0  0  0  0  0  0  0  0
    3.3143    0.1528   -2.9005 N   0  0  0  0  0  0  0  0  0  0  0  0
    4.2049   -0.9137   -2.8037 C   0  0  0  0  0  0  0  0  0  0  0  0
    5.5457   -0.7341   -3.1525 C   0  0  0  0  0  0  0  0  0  0  0  0
    6.4434   -1.7662   -3.0190 C   0  0  0  0  0  0  0  0  0  0  0  0
    6.0289   -3.0161   -2.5614 C   0  0  0  0  0  0  0  0  0  0  0  0
    7.2883   -4.2322   -2.3458 S   0  0  0  0  0  0  0  0  0  0  0  0
    6.3732   -5.7773   -2.0909 C   0  0  0  0  0  0  0  0  0  0  0  0
    4.6882   -3.2163   -2.2637 C   0  0  0  0  0  0  0  0  0  0  0  0
    3.7894   -2.1720   -2.3722 C   0  0  0  0  0  0  0  0  0  0  0  0
    3.7383    1.4804   -2.6767 C   0  0  0  0  0  0  0  0  0  0  0  0
    4.6881    1.8110   -1.7110 C   0  0  0  0  0  0  0  0  0  0  0  0
    4.9640    3.1337   -1.4450 C   0  0  0  0  0  0  0  0  0  0  0  0
    4.2994    4.1521   -2.1270 C   0  0  0  0  0  0  0  0  0  0  0  0
    4.6753    5.8073   -1.6465 S   0  0  0  0  0  0  0  0  0  0  0  0
    3.4927    6.8147   -2.5865 C   0  0  0  0  0  0  0  0  0  0  0  0
    3.3850    3.8251   -3.1191 C   0  0  0  0  0  0  0  0  0  0  0  0
    3.1125    2.4992   -3.3901 C   0  0  0  0  0  0  0  0  0  0  0  0
    1.1897    0.6746   -1.8176 C   0  0  0  0  0  0  0  0  0  0  0  0
    1.6351    1.7798   -0.5690 S   0  0  0  0  0  0  0  0  0  0  0  0
    1.3832   -1.5510   -4.7700 C   0  0  0  0  0  0  0  0  0  0  0  0
    0.4387   -2.0784   -5.6141 C   0  0  0  0  0  0  0  0  0  0  0  0
    0.9759   -2.7658   -6.7230 C   0  0  0  0  0  0  0  0  0  0  0  0
    0.2867   -3.4564   -7.7391 C   0  0  0  0  0  0  0  0  0  0  0  0
   -1.1784   -3.4245   -7.8205 C   0  0  0  0  0  0  0  0  0  0  0  0
   -1.9205   -4.5858   -7.9853 C   0  0  0  0  0  0  0  0  0  0  0  0
   -3.2983   -4.5367   -8.0843 C   0  0  0  0  0  0  0  0  0  0  0  0
   -3.9366   -5.7234   -8.2245 F   0  0  0  0  0  0  0  0  0  0  0  0
   -4.0169   -3.3390   -8.0428 C   0  0  0  0  0  0  0  0  0  0  0  0
   -5.3475   -3.1362   -8.1088 O   0  0  0  0  0  0  0  0  0  0  0  0
   -6.2305   -4.1473   -8.5724 C   0  0  0  0  0  0  0  0  0  0  0  0
   -6.0726   -4.4154  -10.0640 C   0  0  0  0  0  0  0  0  0  0  0  0
   -3.2293   -2.1872   -7.8717 C   0  0  0  0  0  0  0  0  0  0  0  0
   -3.8615   -0.9992   -7.8242 F   0  0  0  0  0  0  0  0  0  0  0  0
   -1.8595   -2.2097   -7.7591 C   0  0  0  0  0  0  0  0  0  0  0  0
    1.0613   -4.1533   -8.6545 C   0  0  0  0  0  0  0  0  0  0  0  0
    2.4792   -4.1359   -8.6203 C   0  0  0  0  0  0  0  0  0  0  0  0
    3.1681   -3.4500   -7.6047 C   0  0  0  0  0  0  0  0  0  0  0  0
    4.6207   -3.6465   -7.4868 C   0  0  0  0  0  0  0  0  0  0  0  0
    5.5000   -3.2825   -8.5017 C   0  0  0  0  0  0  0  0  0  0  0  0
    6.8216   -3.6546   -8.4192 C   0  0  0  0  0  0  0  0  0  0  0  0
    7.3562   -4.4246   -7.3699 C   0  0  0  0  0  0  0  0  0  0  0  0
    8.6495   -4.7560   -7.4967 O   0  0  0  0  0  0  0  0  0  0  0  0
    9.3213   -5.5515   -6.5279 C   0  0  0  0  0  0  0  0  0  0  0  0
    9.7538   -4.7413   -5.3126 C   0  0  0  0  0  0  0  0  0  0  0  0
    6.4414   -4.7523   -6.3644 C   0  0  0  0  0  0  0  0  0  0  0  0
    5.1157   -4.3638   -6.4081 C   0  0  0  0  0  0  0  0  0  0  0  0
    6.8073   -5.5044   -5.3021 F   0  0  0  0  0  0  0  0  0  0  0  0
    7.6530   -3.3012   -9.4197 F   0  0  0  0  0  0  0  0  0  0  0  0
    2.3966   -2.7798   -6.6812 C   0  0  0  0  0  0  0  0  0  0  0  0
    3.0142   -1.8836   -5.3209 S   0  0  0  0  0  0  0  0  0  0  0  0
    3.0496   -4.9625   -9.6044 C   0  0  0  0  0  0  0  0  0  0  0  0
    2.1317   -5.6389  -10.3639 C   0  0  0  0  0  0  0  0  0  0  0  0
    0.4886   -5.1768   -9.9449 S   0  0  0  0  0  0  0  0  0  0  0  0
    2.3872   -6.5962  -11.3757 C   0  0  0  0  0  0  0  0  0  0  0  0
    3.5273   -7.3149  -11.5649 C   0  0  0  0  0  0  0  0  0  0  0  0
    3.7462   -7.9693  -12.8949 C   0  0  0  0  0  0  0  0  0  0  0  0
    2.9223   -8.1365  -13.7622 O   0  0  0  0  0  0  0  0  0  0  0  0
    5.1704   -8.2920  -12.8902 C   0  0  0  0  0  0  0  0  0  0  0  0
    6.2932   -8.9458  -14.0043 S   0  0  0  0  0  0  0  0  0  0  0  0
    7.5533   -8.7923  -12.8086 C   0  0  0  0  0  0  0  0  0  0  0  0
    9.1423   -9.2754  -13.1777 Cl  0  0  0  0  0  0  0  0  0  0  0  0
    7.1259   -8.2757  -11.6151 C   0  0  0  0  0  0  0  0  0  0  0  0
    5.7522   -7.9831  -11.6669 C   0  0  0  0  0  0  0  0  0  0  0  0
    4.7255   -7.4990  -10.7618 C   0  0  0  0  0  0  0  0  0  0  0  0
    4.8696   -7.4689   -9.3985 C   0  0  0  0  0  0  0  0  0  0  0  0
    3.8246   -7.3044   -8.4673 C   0  0  0  0  0  0  0  0  0  0  0  0
    3.0288   -7.2356   -7.6428 N   0  0  0  0  0  0  0  0  0  0  0  0
    6.1144   -7.6614   -8.7652 C   0  0  0  0  0  0  0  0  0  0  0  0
    7.1134   -7.7672   -8.2098 N   0  0  0  0  0  0  0  0  0  0  0  0
   -3.0569    5.7727    6.0033 H   0  0  0  0  0  0  0  0  0  0  0  0
   -4.3596    0.5846    9.2919 H   0  0  0  0  0  0  0  0  0  0  0  0
   -5.6216    5.2419   10.8335 H   0  0  0  0  0  0  0  0  0  0  0  0
   -7.4209    2.8853   12.5489 H   0  0  0  0  0  0  0  0  0  0  0  0
   -5.4891    3.8131   14.1305 H   0  0  0  0  0  0  0  0  0  0  0  0
   -6.9428    2.1112   15.5068 H   0  0  0  0  0  0  0  0  0  0  0  0
   -6.2909   -0.3462   14.7359 H   0  0  0  0  0  0  0  0  0  0  0  0
   -4.4358   -0.1575   12.8849 H   0  0  0  0  0  0  0  0  0  0  0  0
   -3.7149    2.4218   12.6687 H   0  0  0  0  0  0  0  0  0  0  0  0
   -3.6761    1.8987   14.3680 H   0  0  0  0  0  0  0  0  0  0  0  0
   -6.7845    0.4746   11.7961 H   0  0  0  0  0  0  0  0  0  0  0  0
   -4.6638    4.8397    3.7131 H   0  0  0  0  0  0  0  0  0  0  0  0
   -6.7968    5.8970    4.3668 H   0  0  0  0  0  0  0  0  0  0  0  0
   -6.3068    9.9653    6.4833 H   0  0  0  0  0  0  0  0  0  0  0  0
   -8.0096   10.4365    6.2703 H   0  0  0  0  0  0  0  0  0  0  0  0
   -6.8340   10.8151    4.9932 H   0  0  0  0  0  0  0  0  0  0  0  0
   -4.8369    9.6903    4.5808 H   0  0  0  0  0  0  0  0  0  0  0  0
   -2.7199    8.6355    4.0107 H   0  0  0  0  0  0  0  0  0  0  0  0
   -2.7915    7.5914    1.3915 H   0  0  0  0  0  0  0  0  0  0  0  0
   -1.0798    8.6884    0.0029 H   0  0  0  0  0  0  0  0  0  0  0  0
    3.3568    8.8360    1.8324 H   0  0  0  0  0  0  0  0  0  0  0  0
    3.5484    7.3862    0.7873 H   0  0  0  0  0  0  0  0  0  0  0  0
    4.0426    8.9876    0.2032 H   0  0  0  0  0  0  0  0  0  0  0  0
    1.9859    7.1292    2.5505 H   0  0  0  0  0  0  0  0  0  0  0  0
    0.2871    6.0685    3.9371 H   0  0  0  0  0  0  0  0  0  0  0  0
   -2.9033    0.6357    2.4518 H   0  0  0  0  0  0  0  0  0  0  0  0
   -4.5632   -1.0140    3.1149 H   0  0  0  0  0  0  0  0  0  0  0  0
   -6.1099   -2.2567    4.3281 H   0  0  0  0  0  0  0  0  0  0  0  0
   -5.8387   -2.9685    2.7005 H   0  0  0  0  0  0  0  0  0  0  0  0
   -6.5270   -3.9547    4.0078 H   0  0  0  0  0  0  0  0  0  0  0  0
   -1.4399   -3.5680    4.5304 H   0  0  0  0  0  0  0  0  0  0  0  0
    0.2295   -1.8846    3.8866 H   0  0  0  0  0  0  0  0  0  0  0  0
    0.5138   -1.8681    1.4177 H   0  0  0  0  0  0  0  0  0  0  0  0
    2.7715   -2.3761    0.6646 H   0  0  0  0  0  0  0  0  0  0  0  0
    6.5158   -2.8299    0.9382 H   0  0  0  0  0  0  0  0  0  0  0  0
    4.9067   -3.1398    0.2588 H   0  0  0  0  0  0  0  0  0  0  0  0
    5.1067   -2.9159    2.0275 H   0  0  0  0  0  0  0  0  0  0  0  0
    4.1494    1.3509    2.2290 H   0  0  0  0  0  0  0  0  0  0  0  0
    1.8677    1.8773    2.9772 H   0  0  0  0  0  0  0  0  0  0  0  0
   -1.7358    3.2832   -1.7784 H   0  0  0  0  0  0  0  0  0  0  0  0
   -2.8514    5.4359   -1.3749 H   0  0  0  0  0  0  0  0  0  0  0  0
   -7.0246    5.0763    0.1392 H   0  0  0  0  0  0  0  0  0  0  0  0
   -6.6758    5.5135    1.8448 H   0  0  0  0  0  0  0  0  0  0  0  0
   -7.2042    6.7573    0.6987 H   0  0  0  0  0  0  0  0  0  0  0  0
   -5.4088    3.5665    1.4917 H   0  0  0  0  0  0  0  0  0  0  0  0
   -4.3185    1.4345    1.0863 H   0  0  0  0  0  0  0  0  0  0  0  0
   -4.8006    0.4332   -1.1435 H   0  0  0  0  0  0  0  0  0  0  0  0
   -5.9092   -1.7283   -0.7713 H   0  0  0  0  0  0  0  0  0  0  0  0
   -4.4125   -6.2420    1.1463 H   0  0  0  0  0  0  0  0  0  0  0  0
   -3.4567   -4.9198    1.8480 H   0  0  0  0  0  0  0  0  0  0  0  0
   -3.0720   -5.5481    0.2083 H   0  0  0  0  0  0  0  0  0  0  0  0
   -2.1974   -3.4099    0.5242 H   0  0  0  0  0  0  0  0  0  0  0  0
   -1.1114   -1.2608    0.1778 H   0  0  0  0  0  0  0  0  0  0  0  0
    5.8762    0.2231   -3.5242 H   0  0  0  0  0  0  0  0  0  0  0  0
    7.4828   -1.6187   -3.2683 H   0  0  0  0  0  0  0  0  0  0  0  0
    5.8614   -5.7610   -1.1327 H   0  0  0  0  0  0  0  0  0  0  0  0
    7.1231   -6.5618   -2.0941 H   0  0  0  0  0  0  0  0  0  0  0  0
    5.6823   -5.9313   -2.9128 H   0  0  0  0  0  0  0  0  0  0  0  0
    4.3298   -4.1807   -1.9367 H   0  0  0  0  0  0  0  0  0  0  0  0
    2.7547   -2.3338   -2.1068 H   0  0  0  0  0  0  0  0  0  0  0  0
    5.1792    1.0333   -1.1472 H   0  0  0  0  0  0  0  0  0  0  0  0
    5.6822    3.3933   -0.6827 H   0  0  0  0  0  0  0  0  0  0  0  0
    3.6950    6.7329   -3.6504 H   0  0  0  0  0  0  0  0  0  0  0  0
    2.4781    6.5098   -2.3481 H   0  0  0  0  0  0  0  0  0  0  0  0
    3.6502    7.8383   -2.2625 H   0  0  0  0  0  0  0  0  0  0  0  0
    2.8727    4.5878   -3.6825 H   0  0  0  0  0  0  0  0  0  0  0  0
    2.3894    2.2459   -4.1522 H   0  0  0  0  0  0  0  0  0  0  0  0
   -0.6155   -1.9860   -5.4244 H   0  0  0  0  0  0  0  0  0  0  0  0
   -1.4447   -5.5529   -8.0131 H   0  0  0  0  0  0  0  0  0  0  0  0
   -7.2200   -3.7300   -8.3686 H   0  0  0  0  0  0  0  0  0  0  0  0
   -6.1146   -5.0687   -7.9943 H   0  0  0  0  0  0  0  0  0  0  0  0
   -6.1593   -3.4841  -10.6193 H   0  0  0  0  0  0  0  0  0  0  0  0
   -6.8515   -5.0973  -10.3923 H   0  0  0  0  0  0  0  0  0  0  0  0
   -5.1065   -4.8641  -10.2817 H   0  0  0  0  0  0  0  0  0  0  0  0
   -1.3281   -1.2773   -7.6555 H   0  0  0  0  0  0  0  0  0  0  0  0
    5.1648   -2.7108   -9.3529 H   0  0  0  0  0  0  0  0  0  0  0  0
   10.2009   -5.9144   -7.0661 H   0  0  0  0  0  0  0  0  0  0  0  0
    8.7105   -6.4114   -6.2423 H   0  0  0  0  0  0  0  0  0  0  0  0
   10.3692   -5.3615   -4.6680 H   0  0  0  0  0  0  0  0  0  0  0  0
   10.3339   -3.8786   -5.6312 H   0  0  0  0  0  0  0  0  0  0  0  0
    8.8988   -4.3958   -4.7387 H   0  0  0  0  0  0  0  0  0  0  0  0
    4.4618   -4.6729   -5.6082 H   0  0  0  0  0  0  0  0  0  0  0  0
    4.1102   -5.0300   -9.7629 H   0  0  0  0  0  0  0  0  0  0  0  0
    1.6120   -6.7478  -12.1191 H   0  0  0  0  0  0  0  0  0  0  0  0
    7.7712   -8.1119  -10.7723 H   0  0  0  0  0  0  0  0  0  0  0  0
  1  2  2  0  0  0  0
  2  3  1  0  0  0  0
  3  4  2  0  0  0  0
  3  5  1  0  0  0  0
  5  6  2  0  0  0  0
  6  7  1  0  0  0  0
  7  8  2  0  0  0  0
  8  9  1  0  0  0  0
  9 10  2  0  0  0  0
 10 11  1  0  0  0  0
 11 12  2  0  0  0  0
 12 13  1  0  0  0  0
 13 14  3  0  0  0  0
 12 15  1  0  0  0  0
 15 16  3  0  0  0  0
  8 17  1  0  0  0  0
 17 18  1  0  0  0  0
 18 19  1  0  0  0  0
 19 20  2  0  0  0  0
 20 21  1  0  0  0  0
 21 22  1  0  0  0  0
 21 23  1  0  0  0  0
  1 24  1  0  0  0  0
 24 25  2  0  0  0  0
 25 26  1  0  0  0  0
 26 27  1  0  0  0  0
 27 28  2  0  0  0  0
 28 29  1  0  0  0  0
 29 30  2  0  0  0  0
 30 31  1  0  0  0  0
 31 32  1  0  0  0  0
 30 33  1  0  0  0  0
 33 34  2  0  0  0  0
 26 35  1  0  0  0  0
 35 36  2  0  0  0  0
 36 37  1  0  0  0  0
 37 38  2  0  0  0  0
 38 39  1  0  0  0  0
 39 40  1  0  0  0  0
 38 41  1  0  0  0  0
 41 42  2  0  0  0  0
 25 43  1  0  0  0  0
 43 44  1  0  0  0  0
 44 45  1  0  0  0  0
 45 46  2  0  0  0  0
 46 47  1  0  0  0  0
 47 48  1  0  0  0  0
 48 49  2  0  0  0  0
 49 50  1  0  0  0  0
 50 51  2  0  0  0  0
 51 52  1  0  0  0  0
 52 53  1  0  0  0  0
 51 54  1  0  0  0  0
 54 55  2  0  0  0  0
 47 56  1  0  0  0  0
 56 57  2  0  0  0  0
 57 58  1  0  0  0  0
 58 59  2  0  0  0  0
 59 60  1  0  0  0  0
 60 61  1  0  0  0  0
 59 62  1  0  0  0  0
 62 63  2  0  0  0  0
 46 64  1  0  0  0  0
 64 65  1  0  0  0  0
 45 66  1  0  0  0  0
 66 67  2  0  0  0  0
 67 68  1  0  0  0  0
 68 69  1  0  0  0  0
 69 70  2  0  0  0  0
 70 71  1  0  0  0  0
 71 72  2  0  0  0  0
 72 73  1  0  0  0  0
 73 74  1  0  0  0  0
 72 75  1  0  0  0  0
 75 76  2  0  0  0  0
 68 77  1  0  0  0  0
 77 78  2  0  0  0  0
 78 79  1  0  0  0  0
 79 80  2  0  0  0  0
 80 81  1  0  0  0  0
 81 82  1  0  0  0  0
 80 83  1  0  0  0  0
 83 84  2  0  0  0  0
 67 85  1  0  0  0  0
 85 86  1  0  0  0  0
 86 87  1  0  0  0  0
 87 88  2  0  0  0  0
 88 89  1  0  0  0  0
 89 90  1  0  0  0  0
 90 91  2  0  0  0  0
 91 92  1  0  0  0  0
 92 93  2  0  0  0  0
 93 94  1  0  0  0  0
 94 95  1  0  0  0  0
 93 96  1  0  0  0  0
 96 97  2  0  0  0  0
 89 98  1  0  0  0  0
 98 99  2  0  0  0  0
 99100  1  0  0  0  0
100101  2  0  0  0  0
101102  1  0  0  0  0
102103  1  0  0  0  0
101104  1  0  0  0  0
104105  2  0  0  0  0
 88106  1  0  0  0  0
106107  1  0  0  0  0
 87108  1  0  0  0  0
108109  2  0  0  0  0
109110  1  0  0  0  0
110111  2  0  0  0  0
111112  1  0  0  0  0
112113  2  0  0  0  0
113114  1  0  0  0  0
114115  1  0  0  0  0
114116  2  0  0  0  0
116117  1  0  0  0  0
117118  1  0  0  0  0
118119  1  0  0  0  0
116120  1  0  0  0  0
120121  1  0  0  0  0
120122  2  0  0  0  0
111123  1  0  0  0  0
123124  2  0  0  0  0
124125  1  0  0  0  0
125126  1  0  0  0  0
126127  2  0  0  0  0
127128  1  0  0  0  0
128129  2  0  0  0  0
129130  1  0  0  0  0
130131  1  0  0  0  0
131132  1  0  0  0  0
129133  1  0  0  0  0
133134  2  0  0  0  0
133135  1  0  0  0  0
128136  1  0  0  0  0
125137  2  0  0  0  0
137138  1  0  0  0  0
124139  1  0  0  0  0
139140  2  0  0  0  0
140141  1  0  0  0  0
140142  1  0  0  0  0
142143  2  0  0  0  0
143144  1  0  0  0  0
144145  2  0  0  0  0
144146  1  0  0  0  0
146147  1  0  0  0  0
147148  1  0  0  0  0
148149  1  0  0  0  0
148150  2  0  0  0  0
150151  1  0  0  0  0
151152  1  0  0  0  0
152153  2  0  0  0  0
153154  1  0  0  0  0
154155  3  0  0  0  0
153156  1  0  0  0  0
156157  3  0  0  0  0
 11  2  1  0  0  0  0
 23 17  1  0  0  0  0
 65 24  1  0  0  0  0
107 66  1  0  0  0  0
138108  1  0  0  0  0
152143  1  0  0  0  0
 10  5  1  0  0  0  0
 22 18  1  0  0  0  0
 34 27  1  0  0  0  0
 42 35  1  0  0  0  0
 64 43  2  0  0  0  0
 76 69  1  0  0  0  0
 84 77  1  0  0  0  0
106 85  2  0  0  0  0
137110  1  0  0  0  0
151146  2  0  0  0  0
 23  7  1  0  0  0  0
 55 48  1  0  0  0  0
 63 56  1  0  0  0  0
 97 90  1  0  0  0  0
105 98  1  0  0  0  0
122112  1  0  0  0  0
141123  1  0  0  0  0
134126  1  0  0  0  0
  1158  1  0  0  0  0
  6159  1  0  0  0  0
  9160  1  0  0  0  0
 17161  1  0  0  0  0
 18162  1  0  0  0  0
 19163  1  0  0  0  0
 20164  1  0  0  0  0
 21165  1  0  0  0  0
 22166  1  0  0  0  0
 22167  1  0  0  0  0
 23168  1  0  0  0  0
 28169  1  0  0  0  0
 29170  1  0  0  0  0
 32171  1  0  0  0  0
 32172  1  0  0  0  0
 32173  1  0  0  0  0
 33174  1  0  0  0  0
 34175  1  0  0  0  0
 36176  1  0  0  0  0
 37177  1  0  0  0  0
 40178  1  0  0  0  0
 40179  1  0  0  0  0
 40180  1  0  0  0  0
 41181  1  0  0  0  0
 42182  1  0  0  0  0
 49183  1  0  0  0  0
 50184  1  0  0  0  0
 53185  1  0  0  0  0
 53186  1  0  0  0  0
 53187  1  0  0  0  0
 54188  1  0  0  0  0
 55189  1  0  0  0  0
 57190  1  0  0  0  0
 58191  1  0  0  0  0
 61192  1  0  0  0  0
 61193  1  0  0  0  0
 61194  1  0  0  0  0
 62195  1  0  0  0  0
 63196  1  0  0  0  0
 70197  1  0  0  0  0
 71198  1  0  0  0  0
 74199  1  0  0  0  0
 74200  1  0  0  0  0
 74201  1  0  0  0  0
 75202  1  0  0  0  0
 76203  1  0  0  0  0
 78204  1  0  0  0  0
 79205  1  0  0  0  0
 82206  1  0  0  0  0
 82207  1  0  0  0  0
 82208  1  0  0  0  0
 83209  1  0  0  0  0
 84210  1  0  0  0  0
 91211  1  0  0  0  0
 92212  1  0  0  0  0
 95213  1  0  0  0  0
 95214  1  0  0  0  0
 95215  1  0  0  0  0
 96216  1  0  0  0  0
 97217  1  0  0  0  0
 99218  1  0  0  0  0
100219  1  0  0  0  0
103220  1  0  0  0  0
103221  1  0  0  0  0
103222  1  0  0  0  0
104223  1  0  0  0  0
105224  1  0  0  0  0
109225  1  0  0  0  0
113226  1  0  0  0  0
118227  1  0  0  0  0
118228  1  0  0  0  0
119229  1  0  0  0  0
119230  1  0  0  0  0
119231  1  0  0  0  0
122232  1  0  0  0  0
127233  1  0  0  0  0
131234  1  0  0  0  0
131235  1  0  0  0  0
132236  1  0  0  0  0
132237  1  0  0  0  0
132238  1  0  0  0  0
134239  1  0  0  0  0
139240  1  0  0  0  0
142241  1  0  0  0  0
150242  1  0  0  0  0
M  END
