
  xtb     02142209133D
 energy: -352.591605789982 gnorm: 0.000428236020 xtb: 6.4.1 (unknown)
209229  0     0  0            999 V2000
    3.1946   -6.3575   -3.8192 C   0  0  0  0  0  0  0  0  0  0  0  0
    2.6460   -6.8695   -4.9672 C   0  0  0  0  0  0  0  0  0  0  0  0
    3.5792   -7.3367   -6.0142 C   0  0  0  0  0  0  0  0  0  0  0  0
    4.7689   -7.5606   -5.8904 O   0  0  0  0  0  0  0  0  0  0  0  0
    2.7889   -7.3737   -7.2591 C   0  0  0  0  0  0  0  0  0  0  0  0
    3.2494   -7.6581   -8.5430 C   0  0  0  0  0  0  0  0  0  0  0  0
    2.2800   -7.5871   -9.5147 C   0  0  0  0  0  0  0  0  0  0  0  0
    0.9494   -7.2521   -9.2343 C   0  0  0  0  0  0  0  0  0  0  0  0
    0.4782   -6.9768   -7.9718 C   0  0  0  0  0  0  0  0  0  0  0  0
    1.4470   -7.0497   -6.9688 C   0  0  0  0  0  0  0  0  0  0  0  0
    1.3183   -6.8880   -5.5193 C   0  0  0  0  0  0  0  0  0  0  0  0
    0.1495   -7.0236   -4.8095 C   0  0  0  0  0  0  0  0  0  0  0  0
   -1.1254   -7.0499   -5.4042 C   0  0  0  0  0  0  0  0  0  0  0  0
   -2.1818   -7.0467   -5.8547 N   0  0  0  0  0  0  0  0  0  0  0  0
    0.1260   -7.2947   -3.4289 C   0  0  0  0  0  0  0  0  0  0  0  0
    0.0659   -7.6220   -2.3285 N   0  0  0  0  0  0  0  0  0  0  0  0
    0.5337   -7.3569  -10.6808 C   0  0  0  0  0  0  0  0  0  0  0  0
    0.3496   -6.0296  -11.4461 C   0  0  0  0  0  0  0  0  0  0  0  0
    0.4231   -6.4370  -12.8999 C   0  0  0  0  0  0  0  0  0  0  0  0
    1.6830   -6.7572  -13.1660 C   0  0  0  0  0  0  0  0  0  0  0  0
    2.4822   -6.5715  -11.8963 C   0  0  0  0  0  0  0  0  0  0  0  0
    1.7311   -5.3826  -11.2832 C   0  0  0  0  0  0  0  0  0  0  0  0
    2.0174   -7.7338  -10.9935 C   0  0  0  0  0  0  0  0  0  0  0  0
    2.7321   -5.3954   -2.9162 C   0  0  0  0  0  0  0  0  0  0  0  0
    3.4640   -4.8383   -1.8450 C   0  0  0  0  0  0  0  0  0  0  0  0
    4.7478   -5.1466   -1.4781 N   0  0  0  0  0  0  0  0  0  0  0  0
    5.1110   -5.0569   -0.1224 C   0  0  0  0  0  0  0  0  0  0  0  0
    6.3345   -4.5042    0.2412 C   0  0  0  0  0  0  0  0  0  0  0  0
    6.7018   -4.4221    1.5698 C   0  0  0  0  0  0  0  0  0  0  0  0
    5.8459   -4.8914    2.5581 C   0  0  0  0  0  0  0  0  0  0  0  0
    6.1984   -4.8350    4.2839 S   0  0  0  0  0  0  0  0  0  0  0  0
    7.8699   -4.1314    4.3709 C   0  0  0  0  0  0  0  0  0  0  0  0
    4.6214   -5.4515    2.1951 C   0  0  0  0  0  0  0  0  0  0  0  0
    4.2573   -5.5380    0.8710 C   0  0  0  0  0  0  0  0  0  0  0  0
    5.7385   -5.4889   -2.4158 C   0  0  0  0  0  0  0  0  0  0  0  0
    6.6467   -6.5070   -2.1310 C   0  0  0  0  0  0  0  0  0  0  0  0
    7.5679   -6.8951   -3.0797 C   0  0  0  0  0  0  0  0  0  0  0  0
    7.5894   -6.2837   -4.3292 C   0  0  0  0  0  0  0  0  0  0  0  0
    8.7271   -6.8872   -5.5330 S   0  0  0  0  0  0  0  0  0  0  0  0
    7.7632   -6.6861   -7.0613 C   0  0  0  0  0  0  0  0  0  0  0  0
    6.7286   -5.2237   -4.5913 C   0  0  0  0  0  0  0  0  0  0  0  0
    5.8179   -4.8224   -3.6379 C   0  0  0  0  0  0  0  0  0  0  0  0
    2.6928   -3.8722   -1.1613 C   0  0  0  0  0  0  0  0  0  0  0  0
    3.0132   -2.7844    0.1424 S   0  0  0  0  0  0  0  0  0  0  0  0
    1.4032   -2.0793   -0.0009 C   0  0  0  0  0  0  0  0  0  0  0  0
    0.6777   -2.6369   -1.0479 C   0  0  0  0  0  0  0  0  0  0  0  0
   -0.6040   -2.3643   -1.4964 N   0  0  0  0  0  0  0  0  0  0  0  0
   -1.2353   -1.1324   -1.4139 C   0  0  0  0  0  0  0  0  0  0  0  0
   -0.5142    0.0600   -1.3472 C   0  0  0  0  0  0  0  0  0  0  0  0
   -1.1546    1.2637   -1.1197 C   0  0  0  0  0  0  0  0  0  0  0  0
   -2.5362    1.3111   -1.0027 C   0  0  0  0  0  0  0  0  0  0  0  0
   -3.4548    2.7780   -0.6433 S   0  0  0  0  0  0  0  0  0  0  0  0
   -2.2105    3.9059    0.0349 C   0  0  0  0  0  0  0  0  0  0  0  0
   -3.2693    0.1407   -1.1835 C   0  0  0  0  0  0  0  0  0  0  0  0
   -2.6326   -1.0610   -1.3792 C   0  0  0  0  0  0  0  0  0  0  0  0
   -1.3630   -3.5235   -1.8078 C   0  0  0  0  0  0  0  0  0  0  0  0
   -2.0335   -3.6479   -3.0214 C   0  0  0  0  0  0  0  0  0  0  0  0
   -2.7414   -4.7980   -3.2996 C   0  0  0  0  0  0  0  0  0  0  0  0
   -2.7847   -5.8426   -2.3770 C   0  0  0  0  0  0  0  0  0  0  0  0
   -3.7201   -7.2659   -2.8199 S   0  0  0  0  0  0  0  0  0  0  0  0
   -3.1181   -8.5346   -1.6672 C   0  0  0  0  0  0  0  0  0  0  0  0
   -2.1219   -5.7137   -1.1624 C   0  0  0  0  0  0  0  0  0  0  0  0
   -1.4175   -4.5611   -0.8838 C   0  0  0  0  0  0  0  0  0  0  0  0
    1.4346   -3.6505   -1.6926 C   0  0  0  0  0  0  0  0  0  0  0  0
    1.1515   -4.6223   -3.0892 S   0  0  0  0  0  0  0  0  0  0  0  0
    1.0894   -1.0082    0.9055 C   0  0  0  0  0  0  0  0  0  0  0  0
    2.0928   -0.1723    1.3794 C   0  0  0  0  0  0  0  0  0  0  0  0
    1.8286    0.9734    2.1120 C   0  0  0  0  0  0  0  0  0  0  0  0
    0.5253    1.3835    2.3691 C   0  0  0  0  0  0  0  0  0  0  0  0
   -0.5067    0.4478    2.0727 C   0  0  0  0  0  0  0  0  0  0  0  0
   -1.7510    0.7163    2.4880 N   0  0  0  0  0  0  0  0  0  0  0  0
   -2.6815   -0.1869    2.3170 C   0  0  0  0  0  0  0  0  0  0  0  0
   -2.3782   -1.4251    1.7298 C   0  0  0  0  0  0  0  0  0  0  0  0
   -1.1887   -1.6973    1.2570 N   0  0  0  0  0  0  0  0  0  0  0  0
   -0.2299   -0.7646    1.3843 C   0  0  0  0  0  0  0  0  0  0  0  0
    0.1749    2.6359    2.9637 C   0  0  0  0  0  0  0  0  0  0  0  0
    0.9639    3.7734    3.1317 C   0  0  0  0  0  0  0  0  0  0  0  0
    2.2351    3.9669    2.5985 N   0  0  0  0  0  0  0  0  0  0  0  0
    3.2146    4.5791    3.3836 C   0  0  0  0  0  0  0  0  0  0  0  0
    3.2443    4.3508    4.7577 C   0  0  0  0  0  0  0  0  0  0  0  0
    4.1964    4.9539    5.5556 C   0  0  0  0  0  0  0  0  0  0  0  0
    5.1467    5.7920    4.9895 C   0  0  0  0  0  0  0  0  0  0  0  0
    6.4218    6.6059    5.8991 S   0  0  0  0  0  0  0  0  0  0  0  0
    5.9864    6.2954    7.6341 C   0  0  0  0  0  0  0  0  0  0  0  0
    5.1272    6.0151    3.6135 C   0  0  0  0  0  0  0  0  0  0  0  0
    4.1725    5.4232    2.8193 C   0  0  0  0  0  0  0  0  0  0  0  0
    2.4353    3.7243    1.2317 C   0  0  0  0  0  0  0  0  0  0  0  0
    1.4289    4.0164    0.3175 C   0  0  0  0  0  0  0  0  0  0  0  0
    1.5778    3.7054   -1.0200 C   0  0  0  0  0  0  0  0  0  0  0  0
    2.7330    3.0772   -1.4643 C   0  0  0  0  0  0  0  0  0  0  0  0
    2.9972    2.5564   -3.1293 S   0  0  0  0  0  0  0  0  0  0  0  0
    1.3905    2.8209   -3.9327 C   0  0  0  0  0  0  0  0  0  0  0  0
    3.7665    2.8335   -0.5610 C   0  0  0  0  0  0  0  0  0  0  0  0
    3.6257    3.1594    0.7684 C   0  0  0  0  0  0  0  0  0  0  0  0
    0.2710    4.7688    3.8530 C   0  0  0  0  0  0  0  0  0  0  0  0
    0.7056    6.3325    4.4292 S   0  0  0  0  0  0  0  0  0  0  0  0
   -0.9390    6.5931    5.0303 C   0  0  0  0  0  0  0  0  0  0  0  0
   -1.7450    5.4448    4.8594 C   0  0  0  0  0  0  0  0  0  0  0  0
   -3.0163    5.2485    5.3391 N   0  0  0  0  0  0  0  0  0  0  0  0
   -3.4957    5.8128    6.5260 C   0  0  0  0  0  0  0  0  0  0  0  0
   -2.6446    6.1688    7.5699 C   0  0  0  0  0  0  0  0  0  0  0  0
   -3.1336    6.7848    8.7035 C   0  0  0  0  0  0  0  0  0  0  0  0
   -4.4931    7.0444    8.8256 C   0  0  0  0  0  0  0  0  0  0  0  0
   -5.2040    7.9069   10.1831 S   0  0  0  0  0  0  0  0  0  0  0  0
   -3.7660    8.6648   10.9942 C   0  0  0  0  0  0  0  0  0  0  0  0
   -5.3612    6.6078    7.8251 C   0  0  0  0  0  0  0  0  0  0  0  0
   -4.8715    6.0092    6.6879 C   0  0  0  0  0  0  0  0  0  0  0  0
   -3.8055    4.2300    4.7430 C   0  0  0  0  0  0  0  0  0  0  0  0
   -4.3335    3.2047    5.5249 C   0  0  0  0  0  0  0  0  0  0  0  0
   -5.0880    2.2124    4.9414 C   0  0  0  0  0  0  0  0  0  0  0  0
   -5.3362    2.2273    3.5691 C   0  0  0  0  0  0  0  0  0  0  0  0
   -6.2848    0.8904    2.9225 S   0  0  0  0  0  0  0  0  0  0  0  0
   -6.5268    1.3299    1.1791 C   0  0  0  0  0  0  0  0  0  0  0  0
   -4.8237    3.2556    2.7907 C   0  0  0  0  0  0  0  0  0  0  0  0
   -4.0614    4.2456    3.3774 C   0  0  0  0  0  0  0  0  0  0  0  0
   -1.0365    4.4340    4.1713 C   0  0  0  0  0  0  0  0  0  0  0  0
   -1.4487    2.8447    3.5905 S   0  0  0  0  0  0  0  0  0  0  0  0
   -1.1847    7.8501    5.5903 C   0  0  0  0  0  0  0  0  0  0  0  0
   -2.3787    8.4917    5.8349 C   0  0  0  0  0  0  0  0  0  0  0  0
   -2.4752    9.4946    6.9155 C   0  0  0  0  0  0  0  0  0  0  0  0
   -1.5747    9.9233    7.6069 O   0  0  0  0  0  0  0  0  0  0  0  0
   -3.9199    9.7886    7.0463 C   0  0  0  0  0  0  0  0  0  0  0  0
   -4.5622   10.6077    7.9540 C   0  0  0  0  0  0  0  0  0  0  0  0
   -5.9446   10.6999    7.9029 C   0  0  0  0  0  0  0  0  0  0  0  0
   -6.6320    9.9840    6.9359 C   0  0  0  0  0  0  0  0  0  0  0  0
   -7.9718   10.0808    6.9013 F   0  0  0  0  0  0  0  0  0  0  0  0
   -6.0084    9.1698    6.0000 C   0  0  0  0  0  0  0  0  0  0  0  0
   -4.6312    9.0683    6.0710 C   0  0  0  0  0  0  0  0  0  0  0  0
   -3.6766    8.3165    5.2562 C   0  0  0  0  0  0  0  0  0  0  0  0
   -3.9457    7.7430    4.0315 C   0  0  0  0  0  0  0  0  0  0  0  0
   -2.9503    7.3663    3.1165 C   0  0  0  0  0  0  0  0  0  0  0  0
   -2.1875    7.0739    2.3063 N   0  0  0  0  0  0  0  0  0  0  0  0
   -5.2407    7.5257    3.5297 C   0  0  0  0  0  0  0  0  0  0  0  0
   -6.2718    7.2693    3.0921 N   0  0  0  0  0  0  0  0  0  0  0  0
    4.2238   -6.6683   -3.6783 H   0  0  0  0  0  0  0  0  0  0  0  0
    4.2821   -7.9170   -8.7190 H   0  0  0  0  0  0  0  0  0  0  0  0
   -0.5478   -6.7193   -7.7678 H   0  0  0  0  0  0  0  0  0  0  0  0
   -0.2457   -8.0848  -10.8978 H   0  0  0  0  0  0  0  0  0  0  0  0
   -0.5161   -5.4464  -11.1442 H   0  0  0  0  0  0  0  0  0  0  0  0
   -0.4306   -6.5025  -13.5485 H   0  0  0  0  0  0  0  0  0  0  0  0
    2.0919   -7.1435  -14.0812 H   0  0  0  0  0  0  0  0  0  0  0  0
    3.5598   -6.4814  -12.0056 H   0  0  0  0  0  0  0  0  0  0  0  0
    2.0025   -5.1712  -10.2505 H   0  0  0  0  0  0  0  0  0  0  0  0
    1.8351   -4.4778  -11.8801 H   0  0  0  0  0  0  0  0  0  0  0  0
    2.2263   -8.7136  -11.4190 H   0  0  0  0  0  0  0  0  0  0  0  0
    7.0001   -4.1321   -0.5234 H   0  0  0  0  0  0  0  0  0  0  0  0
    7.6543   -3.9833    1.8180 H   0  0  0  0  0  0  0  0  0  0  0  0
    8.5684   -4.7661    3.8337 H   0  0  0  0  0  0  0  0  0  0  0  0
    7.8695   -3.1190    3.9775 H   0  0  0  0  0  0  0  0  0  0  0  0
    8.1240   -4.1156    5.4262 H   0  0  0  0  0  0  0  0  0  0  0  0
    3.9661   -5.8248    2.9667 H   0  0  0  0  0  0  0  0  0  0  0  0
    3.3153   -5.9884    0.5954 H   0  0  0  0  0  0  0  0  0  0  0  0
    6.6002   -7.0115   -1.1774 H   0  0  0  0  0  0  0  0  0  0  0  0
    8.2560   -7.7003   -2.8752 H   0  0  0  0  0  0  0  0  0  0  0  0
    6.7364   -6.9743   -6.8545 H   0  0  0  0  0  0  0  0  0  0  0  0
    7.8267   -5.6632   -7.4219 H   0  0  0  0  0  0  0  0  0  0  0  0
    8.2078   -7.3590   -7.7876 H   0  0  0  0  0  0  0  0  0  0  0  0
    6.7651   -4.7087   -5.5377 H   0  0  0  0  0  0  0  0  0  0  0  0
    5.1411   -4.0061   -3.8446 H   0  0  0  0  0  0  0  0  0  0  0  0
    0.5616    0.0487   -1.4427 H   0  0  0  0  0  0  0  0  0  0  0  0
   -0.5568    2.1547   -1.0134 H   0  0  0  0  0  0  0  0  0  0  0  0
   -1.5470    4.2464   -0.7543 H   0  0  0  0  0  0  0  0  0  0  0  0
   -2.7534    4.7540    0.4402 H   0  0  0  0  0  0  0  0  0  0  0  0
   -1.6692    3.3960    0.8260 H   0  0  0  0  0  0  0  0  0  0  0  0
   -4.3472    0.1800   -1.1401 H   0  0  0  0  0  0  0  0  0  0  0  0
   -3.2178   -1.9629   -1.4607 H   0  0  0  0  0  0  0  0  0  0  0  0
   -1.9912   -2.8442   -3.7414 H   0  0  0  0  0  0  0  0  0  0  0  0
   -3.2561   -4.9114   -4.2411 H   0  0  0  0  0  0  0  0  0  0  0  0
   -3.4815   -9.4803   -2.0570 H   0  0  0  0  0  0  0  0  0  0  0  0
   -3.5239   -8.3672   -0.6736 H   0  0  0  0  0  0  0  0  0  0  0  0
   -2.0316   -8.5239   -1.6626 H   0  0  0  0  0  0  0  0  0  0  0  0
   -2.1515   -6.5005   -0.4276 H   0  0  0  0  0  0  0  0  0  0  0  0
   -0.9126   -4.4483    0.0642 H   0  0  0  0  0  0  0  0  0  0  0  0
    3.1195   -0.4011    1.1320 H   0  0  0  0  0  0  0  0  0  0  0  0
    2.6565    1.5533    2.4796 H   0  0  0  0  0  0  0  0  0  0  0  0
   -3.6731    0.0562    2.6688 H   0  0  0  0  0  0  0  0  0  0  0  0
   -3.1221   -2.2046    1.6425 H   0  0  0  0  0  0  0  0  0  0  0  0
    2.5173    3.6876    5.2039 H   0  0  0  0  0  0  0  0  0  0  0  0
    4.1893    4.7523    6.6145 H   0  0  0  0  0  0  0  0  0  0  0  0
    6.6973    6.8693    8.2204 H   0  0  0  0  0  0  0  0  0  0  0  0
    4.9775    6.6471    7.8278 H   0  0  0  0  0  0  0  0  0  0  0  0
    6.0894    5.2389    7.8645 H   0  0  0  0  0  0  0  0  0  0  0  0
    5.8661    6.6705    3.1790 H   0  0  0  0  0  0  0  0  0  0  0  0
    4.1543    5.6214    1.7585 H   0  0  0  0  0  0  0  0  0  0  0  0
    0.5301    4.5076    0.6593 H   0  0  0  0  0  0  0  0  0  0  0  0
    0.7960    3.9741   -1.7129 H   0  0  0  0  0  0  0  0  0  0  0  0
    0.6154    2.2747   -3.4022 H   0  0  0  0  0  0  0  0  0  0  0  0
    1.4988    2.4224   -4.9367 H   0  0  0  0  0  0  0  0  0  0  0  0
    1.1662    3.8824   -3.9848 H   0  0  0  0  0  0  0  0  0  0  0  0
    4.6756    2.3740   -0.9171 H   0  0  0  0  0  0  0  0  0  0  0  0
    4.4322    2.9654    1.4602 H   0  0  0  0  0  0  0  0  0  0  0  0
   -1.5882    5.9607    7.4993 H   0  0  0  0  0  0  0  0  0  0  0  0
   -2.4417    7.0570    9.4833 H   0  0  0  0  0  0  0  0  0  0  0  0
   -3.1975    7.9122   11.5327 H   0  0  0  0  0  0  0  0  0  0  0  0
   -4.1718    9.3868   11.6958 H   0  0  0  0  0  0  0  0  0  0  0  0
   -3.1526    9.1674   10.2524 H   0  0  0  0  0  0  0  0  0  0  0  0
   -6.4211    6.7720    7.9403 H   0  0  0  0  0  0  0  0  0  0  0  0
   -5.5500    5.7096    5.9031 H   0  0  0  0  0  0  0  0  0  0  0  0
   -4.1409    3.1883    6.5874 H   0  0  0  0  0  0  0  0  0  0  0  0
   -5.4900    1.4098    5.5404 H   0  0  0  0  0  0  0  0  0  0  0  0
   -5.5695    1.3858    0.6690 H   0  0  0  0  0  0  0  0  0  0  0  0
   -7.1282    0.5301    0.7579 H   0  0  0  0  0  0  0  0  0  0  0  0
   -7.0631    2.2715    1.1104 H   0  0  0  0  0  0  0  0  0  0  0  0
   -5.0020    3.2992    1.7297 H   0  0  0  0  0  0  0  0  0  0  0  0
   -3.6570    5.0347    2.7649 H   0  0  0  0  0  0  0  0  0  0  0  0
   -0.3043    8.3831    5.9375 H   0  0  0  0  0  0  0  0  0  0  0  0
   -3.9939   11.1627    8.6845 H   0  0  0  0  0  0  0  0  0  0  0  0
   -6.4947   11.3142    8.5974 H   0  0  0  0  0  0  0  0  0  0  0  0
   -6.5999    8.6388    5.2723 H   0  0  0  0  0  0  0  0  0  0  0  0
  1  2  2  0  0  0  0
  2  3  1  0  0  0  0
  3  4  2  0  0  0  0
  3  5  1  0  0  0  0
  5  6  2  0  0  0  0
  6  7  1  0  0  0  0
  7  8  2  0  0  0  0
  8  9  1  0  0  0  0
  9 10  2  0  0  0  0
 10 11  1  0  0  0  0
 11 12  2  0  0  0  0
 12 13  1  0  0  0  0
 13 14  3  0  0  0  0
 12 15  1  0  0  0  0
 15 16  3  0  0  0  0
  8 17  1  0  0  0  0
 17 18  1  0  0  0  0
 18 19  1  0  0  0  0
 19 20  2  0  0  0  0
 20 21  1  0  0  0  0
 21 22  1  0  0  0  0
 21 23  1  0  0  0  0
  1 24  1  0  0  0  0
 24 25  2  0  0  0  0
 25 26  1  0  0  0  0
 26 27  1  0  0  0  0
 27 28  2  0  0  0  0
 28 29  1  0  0  0  0
 29 30  2  0  0  0  0
 30 31  1  0  0  0  0
 31 32  1  0  0  0  0
 30 33  1  0  0  0  0
 33 34  2  0  0  0  0
 26 35  1  0  0  0  0
 35 36  2  0  0  0  0
 36 37  1  0  0  0  0
 37 38  2  0  0  0  0
 38 39  1  0  0  0  0
 39 40  1  0  0  0  0
 38 41  1  0  0  0  0
 41 42  2  0  0  0  0
 25 43  1  0  0  0  0
 43 44  1  0  0  0  0
 44 45  1  0  0  0  0
 45 46  2  0  0  0  0
 46 47  1  0  0  0  0
 47 48  1  0  0  0  0
 48 49  2  0  0  0  0
 49 50  1  0  0  0  0
 50 51  2  0  0  0  0
 51 52  1  0  0  0  0
 52 53  1  0  0  0  0
 51 54  1  0  0  0  0
 54 55  2  0  0  0  0
 47 56  1  0  0  0  0
 56 57  2  0  0  0  0
 57 58  1  0  0  0  0
 58 59  2  0  0  0  0
 59 60  1  0  0  0  0
 60 61  1  0  0  0  0
 59 62  1  0  0  0  0
 62 63  2  0  0  0  0
 46 64  1  0  0  0  0
 64 65  1  0  0  0  0
 45 66  1  0  0  0  0
 66 67  2  0  0  0  0
 67 68  1  0  0  0  0
 68 69  2  0  0  0  0
 69 70  1  0  0  0  0
 70 71  2  0  0  0  0
 71 72  1  0  0  0  0
 72 73  2  0  0  0  0
 73 74  1  0  0  0  0
 74 75  2  0  0  0  0
 69 76  1  0  0  0  0
 76 77  2  0  0  0  0
 77 78  1  0  0  0  0
 78 79  1  0  0  0  0
 79 80  2  0  0  0  0
 80 81  1  0  0  0  0
 81 82  2  0  0  0  0
 82 83  1  0  0  0  0
 83 84  1  0  0  0  0
 82 85  1  0  0  0  0
 85 86  2  0  0  0  0
 78 87  1  0  0  0  0
 87 88  2  0  0  0  0
 88 89  1  0  0  0  0
 89 90  2  0  0  0  0
 90 91  1  0  0  0  0
 91 92  1  0  0  0  0
 90 93  1  0  0  0  0
 93 94  2  0  0  0  0
 77 95  1  0  0  0  0
 95 96  1  0  0  0  0
 96 97  1  0  0  0  0
 97 98  2  0  0  0  0
 98 99  1  0  0  0  0
 99100  1  0  0  0  0
100101  2  0  0  0  0
101102  1  0  0  0  0
102103  2  0  0  0  0
103104  1  0  0  0  0
104105  1  0  0  0  0
103106  1  0  0  0  0
106107  2  0  0  0  0
 99108  1  0  0  0  0
108109  2  0  0  0  0
109110  1  0  0  0  0
110111  2  0  0  0  0
111112  1  0  0  0  0
112113  1  0  0  0  0
111114  1  0  0  0  0
114115  2  0  0  0  0
 98116  1  0  0  0  0
116117  1  0  0  0  0
 97118  1  0  0  0  0
118119  2  0  0  0  0
119120  1  0  0  0  0
120121  2  0  0  0  0
120122  1  0  0  0  0
122123  2  0  0  0  0
123124  1  0  0  0  0
124125  2  0  0  0  0
125126  1  0  0  0  0
125127  1  0  0  0  0
127128  2  0  0  0  0
128129  1  0  0  0  0
129130  2  0  0  0  0
130131  1  0  0  0  0
131132  3  0  0  0  0
130133  1  0  0  0  0
133134  3  0  0  0  0
 11  2  1  0  0  0  0
 23 17  1  0  0  0  0
 65 24  1  0  0  0  0
 75 66  1  0  0  0  0
117 76  1  0  0  0  0
129119  1  0  0  0  0
 10  5  1  0  0  0  0
 22 18  1  0  0  0  0
 34 27  1  0  0  0  0
 42 35  1  0  0  0  0
 64 43  2  0  0  0  0
 75 70  1  0  0  0  0
 86 79  1  0  0  0  0
 94 87  1  0  0  0  0
116 95  2  0  0  0  0
128122  1  0  0  0  0
 23  7  1  0  0  0  0
 55 48  1  0  0  0  0
 63 56  1  0  0  0  0
107100  1  0  0  0  0
115108  1  0  0  0  0
  1135  1  0  0  0  0
  6136  1  0  0  0  0
  9137  1  0  0  0  0
 17138  1  0  0  0  0
 18139  1  0  0  0  0
 19140  1  0  0  0  0
 20141  1  0  0  0  0
 21142  1  0  0  0  0
 22143  1  0  0  0  0
 22144  1  0  0  0  0
 23145  1  0  0  0  0
 28146  1  0  0  0  0
 29147  1  0  0  0  0
 32148  1  0  0  0  0
 32149  1  0  0  0  0
 32150  1  0  0  0  0
 33151  1  0  0  0  0
 34152  1  0  0  0  0
 36153  1  0  0  0  0
 37154  1  0  0  0  0
 40155  1  0  0  0  0
 40156  1  0  0  0  0
 40157  1  0  0  0  0
 41158  1  0  0  0  0
 42159  1  0  0  0  0
 49160  1  0  0  0  0
 50161  1  0  0  0  0
 53162  1  0  0  0  0
 53163  1  0  0  0  0
 53164  1  0  0  0  0
 54165  1  0  0  0  0
 55166  1  0  0  0  0
 57167  1  0  0  0  0
 58168  1  0  0  0  0
 61169  1  0  0  0  0
 61170  1  0  0  0  0
 61171  1  0  0  0  0
 62172  1  0  0  0  0
 63173  1  0  0  0  0
 67174  1  0  0  0  0
 68175  1  0  0  0  0
 72176  1  0  0  0  0
 73177  1  0  0  0  0
 80178  1  0  0  0  0
 81179  1  0  0  0  0
 84180  1  0  0  0  0
 84181  1  0  0  0  0
 84182  1  0  0  0  0
 85183  1  0  0  0  0
 86184  1  0  0  0  0
 88185  1  0  0  0  0
 89186  1  0  0  0  0
 92187  1  0  0  0  0
 92188  1  0  0  0  0
 92189  1  0  0  0  0
 93190  1  0  0  0  0
 94191  1  0  0  0  0
101192  1  0  0  0  0
102193  1  0  0  0  0
105194  1  0  0  0  0
105195  1  0  0  0  0
105196  1  0  0  0  0
106197  1  0  0  0  0
107198  1  0  0  0  0
109199  1  0  0  0  0
110200  1  0  0  0  0
113201  1  0  0  0  0
113202  1  0  0  0  0
113203  1  0  0  0  0
114204  1  0  0  0  0
115205  1  0  0  0  0
118206  1  0  0  0  0
123207  1  0  0  0  0
124208  1  0  0  0  0
127209  1  0  0  0  0
M  END
