
  xtb     02162201483D
 energy: -358.416856021629 gnorm: 0.000461267453 xtb: 6.4.1 (unknown)
215237  0     0  0            999 V2000
    7.5749    4.9014    4.3271 C   0  0  0  0  0  0  0  0  0  0  0  0
    7.5873    6.1607    3.7769 C   0  0  0  0  0  0  0  0  0  0  0  0
    6.7082    6.6302    2.7057 C   0  0  0  0  0  0  0  0  0  0  0  0
    5.8532    5.9929    2.1073 O   0  0  0  0  0  0  0  0  0  0  0  0
    7.0382    8.0450    2.4807 C   0  0  0  0  0  0  0  0  0  0  0  0
    6.4541    8.9049    1.5540 C   0  0  0  0  0  0  0  0  0  0  0  0
    6.9552   10.1834    1.5853 C   0  0  0  0  0  0  0  0  0  0  0  0
    7.9651   10.5771    2.4728 C   0  0  0  0  0  0  0  0  0  0  0  0
    8.5591    9.7337    3.3827 C   0  0  0  0  0  0  0  0  0  0  0  0
    8.0637    8.4272    3.3687 C   0  0  0  0  0  0  0  0  0  0  0  0
    8.4373    7.2643    4.1757 C   0  0  0  0  0  0  0  0  0  0  0  0
    9.4283    7.2479    5.1247 C   0  0  0  0  0  0  0  0  0  0  0  0
    9.8164    6.1312    5.8935 C   0  0  0  0  0  0  0  0  0  0  0  0
   10.2009    5.2760    6.5578 N   0  0  0  0  0  0  0  0  0  0  0  0
   10.2244    8.3601    5.4686 C   0  0  0  0  0  0  0  0  0  0  0  0
   10.9111    9.2175    5.8037 N   0  0  0  0  0  0  0  0  0  0  0  0
    7.9625   11.9986    1.9690 C   0  0  0  0  0  0  0  0  0  0  0  0
    7.2504   13.0680    2.8342 C   0  0  0  0  0  0  0  0  0  0  0  0
    6.1879   12.3459    3.6250 C   0  0  0  0  0  0  0  0  0  0  0  0
    5.2363   11.9737    2.7795 C   0  0  0  0  0  0  0  0  0  0  0  0
    5.6389   12.4365    1.4010 C   0  0  0  0  0  0  0  0  0  0  0  0
    6.3797   13.7351    1.7573 C   0  0  0  0  0  0  0  0  0  0  0  0
    6.8413   11.5578    0.9757 C   0  0  0  0  0  0  0  0  0  0  0  0
    6.7673    3.7991    4.0225 C   0  0  0  0  0  0  0  0  0  0  0  0
    6.8238    2.6005    4.7370 C   0  0  0  0  0  0  0  0  0  0  0  0
    5.9112    1.6622    4.3021 C   0  0  0  0  0  0  0  0  0  0  0  0
    5.7406    0.4866    4.9295 F   0  0  0  0  0  0  0  0  0  0  0  0
    5.1316    2.0737    3.2234 C   0  0  0  0  0  0  0  0  0  0  0  0
    5.5478    3.7002    2.7746 S   0  0  0  0  0  0  0  0  0  0  0  0
    4.0513    1.4529    2.5581 C   0  0  0  0  0  0  0  0  0  0  0  0
    3.6035    0.1307    2.5229 C   0  0  0  0  0  0  0  0  0  0  0  0
    4.2794   -0.9851    2.9824 N   0  0  0  0  0  0  0  0  0  0  0  0
    5.6359   -1.1593    2.6701 C   0  0  0  0  0  0  0  0  0  0  0  0
    6.4466   -1.9532    3.4835 C   0  0  0  0  0  0  0  0  0  0  0  0
    7.7708   -2.1476    3.1649 C   0  0  0  0  0  0  0  0  0  0  0  0
    8.3243   -1.5518    2.0313 C   0  0  0  0  0  0  0  0  0  0  0  0
   10.0255   -1.8948    1.7108 S   0  0  0  0  0  0  0  0  0  0  0  0
   10.4279   -0.8279    0.2982 C   0  0  0  0  0  0  0  0  0  0  0  0
    7.5243   -0.7559    1.2240 C   0  0  0  0  0  0  0  0  0  0  0  0
    6.1924   -0.5670    1.5401 C   0  0  0  0  0  0  0  0  0  0  0  0
    3.4999   -2.0699    3.4103 C   0  0  0  0  0  0  0  0  0  0  0  0
    2.3775   -1.8354    4.2083 C   0  0  0  0  0  0  0  0  0  0  0  0
    1.5419   -2.8710    4.5585 C   0  0  0  0  0  0  0  0  0  0  0  0
    1.8087   -4.1705    4.1320 C   0  0  0  0  0  0  0  0  0  0  0  0
    0.6468   -5.4104    4.6020 S   0  0  0  0  0  0  0  0  0  0  0  0
    1.2300   -6.9092    3.7634 C   0  0  0  0  0  0  0  0  0  0  0  0
    2.9503   -4.4172    3.3814 C   0  0  0  0  0  0  0  0  0  0  0  0
    3.7842   -3.3761    3.0233 C   0  0  0  0  0  0  0  0  0  0  0  0
    2.3834    0.0405    1.8156 C   0  0  0  0  0  0  0  0  0  0  0  0
    1.3482   -1.2745    1.4065 S   0  0  0  0  0  0  0  0  0  0  0  0
    0.3643   -0.2234    0.3887 C   0  0  0  0  0  0  0  0  0  0  0  0
    0.8325    1.0916    0.3904 C   0  0  0  0  0  0  0  0  0  0  0  0
    0.3242    2.1705   -0.3160 N   0  0  0  0  0  0  0  0  0  0  0  0
    0.4709    3.4256    0.3056 C   0  0  0  0  0  0  0  0  0  0  0  0
    0.0556    3.5844    1.6271 C   0  0  0  0  0  0  0  0  0  0  0  0
    0.3180    4.7571    2.3015 C   0  0  0  0  0  0  0  0  0  0  0  0
    1.0015    5.7894    1.6668 C   0  0  0  0  0  0  0  0  0  0  0  0
    1.3821    7.2288    2.6175 S   0  0  0  0  0  0  0  0  0  0  0  0
    2.9493    7.7766    1.8769 C   0  0  0  0  0  0  0  0  0  0  0  0
    1.3565    5.6593    0.3300 C   0  0  0  0  0  0  0  0  0  0  0  0
    1.0931    4.4861   -0.3461 C   0  0  0  0  0  0  0  0  0  0  0  0
   -0.0670    2.0813   -1.6516 C   0  0  0  0  0  0  0  0  0  0  0  0
    0.4164    1.0707   -2.4795 C   0  0  0  0  0  0  0  0  0  0  0  0
   -0.0753    0.9113   -3.7600 C   0  0  0  0  0  0  0  0  0  0  0  0
   -1.0437    1.7802   -4.2437 C   0  0  0  0  0  0  0  0  0  0  0  0
   -1.8063    1.6343   -5.8301 S   0  0  0  0  0  0  0  0  0  0  0  0
   -1.3133   -0.0206   -6.3914 C   0  0  0  0  0  0  0  0  0  0  0  0
   -1.4622    2.8465   -3.4505 C   0  0  0  0  0  0  0  0  0  0  0  0
   -0.9887    2.9951   -2.1682 C   0  0  0  0  0  0  0  0  0  0  0  0
    1.9621    1.2215    1.2285 C   0  0  0  0  0  0  0  0  0  0  0  0
    3.0300    2.5275    1.6018 S   0  0  0  0  0  0  0  0  0  0  0  0
   -0.8066   -0.7591   -0.1987 C   0  0  0  0  0  0  0  0  0  0  0  0
   -1.1472   -2.1035   -0.3560 C   0  0  0  0  0  0  0  0  0  0  0  0
   -0.3019   -3.1887   -0.1507 N   0  0  0  0  0  0  0  0  0  0  0  0
    0.9920   -3.2018   -0.6656 C   0  0  0  0  0  0  0  0  0  0  0  0
    2.0058   -3.9161   -0.0262 C   0  0  0  0  0  0  0  0  0  0  0  0
    3.3142   -3.8268   -0.4533 C   0  0  0  0  0  0  0  0  0  0  0  0
    3.6446   -3.0081   -1.5240 C   0  0  0  0  0  0  0  0  0  0  0  0
    5.2974   -2.7387   -2.0876 S   0  0  0  0  0  0  0  0  0  0  0  0
    6.3264   -3.5545   -0.8347 C   0  0  0  0  0  0  0  0  0  0  0  0
    2.6290   -2.3419   -2.2077 C   0  0  0  0  0  0  0  0  0  0  0  0
    1.3201   -2.4464   -1.7937 C   0  0  0  0  0  0  0  0  0  0  0  0
   -0.8066   -4.2757    0.5800 C   0  0  0  0  0  0  0  0  0  0  0  0
   -0.5474   -5.5881    0.1883 C   0  0  0  0  0  0  0  0  0  0  0  0
   -1.0241   -6.6389    0.9390 C   0  0  0  0  0  0  0  0  0  0  0  0
   -1.7767   -6.4035    2.0883 C   0  0  0  0  0  0  0  0  0  0  0  0
   -2.2993   -7.8249    2.9961 S   0  0  0  0  0  0  0  0  0  0  0  0
   -2.8993   -7.1336    4.5640 C   0  0  0  0  0  0  0  0  0  0  0  0
   -2.0661   -5.0990    2.4613 C   0  0  0  0  0  0  0  0  0  0  0  0
   -1.5790   -4.0458    1.7137 C   0  0  0  0  0  0  0  0  0  0  0  0
   -2.4831   -2.2521   -0.7842 C   0  0  0  0  0  0  0  0  0  0  0  0
   -3.4512   -3.6250   -1.1914 S   0  0  0  0  0  0  0  0  0  0  0  0
   -4.7802   -2.5535   -1.6557 C   0  0  0  0  0  0  0  0  0  0  0  0
   -4.4132   -1.1842   -1.5783 C   0  0  0  0  0  0  0  0  0  0  0  0
   -5.1549   -0.1319   -2.0477 N   0  0  0  0  0  0  0  0  0  0  0  0
   -6.0158   -0.2631   -3.1563 C   0  0  0  0  0  0  0  0  0  0  0  0
   -7.2307    0.4132   -3.1697 C   0  0  0  0  0  0  0  0  0  0  0  0
   -8.1235    0.2264   -4.2075 C   0  0  0  0  0  0  0  0  0  0  0  0
   -7.8177   -0.6529   -5.2368 C   0  0  0  0  0  0  0  0  0  0  0  0
   -8.9341   -1.0528   -6.5423 S   0  0  0  0  0  0  0  0  0  0  0  0
  -10.5509   -0.5903   -5.8595 C   0  0  0  0  0  0  0  0  0  0  0  0
   -6.5660   -1.2685   -5.2652 C   0  0  0  0  0  0  0  0  0  0  0  0
   -5.6681   -1.0673   -4.2431 C   0  0  0  0  0  0  0  0  0  0  0  0
   -4.8954    1.1628   -1.5617 C   0  0  0  0  0  0  0  0  0  0  0  0
   -4.7496    2.2304   -2.4474 C   0  0  0  0  0  0  0  0  0  0  0  0
   -4.4235    3.4786   -1.9715 C   0  0  0  0  0  0  0  0  0  0  0  0
   -4.2213    3.6894   -0.6076 C   0  0  0  0  0  0  0  0  0  0  0  0
   -3.6928    5.3053   -0.1380 S   0  0  0  0  0  0  0  0  0  0  0  0
   -3.2979    5.1445    1.6249 C   0  0  0  0  0  0  0  0  0  0  0  0
   -4.4281    2.6440    0.2813 C   0  0  0  0  0  0  0  0  0  0  0  0
   -4.7701    1.3923   -0.1945 C   0  0  0  0  0  0  0  0  0  0  0  0
   -3.1315   -1.0462   -1.0227 C   0  0  0  0  0  0  0  0  0  0  0  0
   -2.1187    0.3130   -0.6676 S   0  0  0  0  0  0  0  0  0  0  0  0
   -6.0592   -2.9816   -2.0076 C   0  0  0  0  0  0  0  0  0  0  0  0
   -6.5315   -4.2378   -2.3117 C   0  0  0  0  0  0  0  0  0  0  0  0
   -5.7447   -5.4719   -2.3621 C   0  0  0  0  0  0  0  0  0  0  0  0
   -4.5984   -5.6397   -1.9801 O   0  0  0  0  0  0  0  0  0  0  0  0
   -6.6145   -6.4896   -2.9797 C   0  0  0  0  0  0  0  0  0  0  0  0
   -6.2920   -7.8137   -3.2624 C   0  0  0  0  0  0  0  0  0  0  0  0
   -7.3099   -8.5223   -3.8558 C   0  0  0  0  0  0  0  0  0  0  0  0
   -8.5566   -7.9551   -4.1477 C   0  0  0  0  0  0  0  0  0  0  0  0
   -8.8883   -6.6493   -3.8713 C   0  0  0  0  0  0  0  0  0  0  0  0
   -7.8680   -5.9122   -3.2664 C   0  0  0  0  0  0  0  0  0  0  0  0
   -7.8539   -4.5225   -2.8118 C   0  0  0  0  0  0  0  0  0  0  0  0
   -8.9245   -3.6615   -2.8599 C   0  0  0  0  0  0  0  0  0  0  0  0
  -10.1582   -3.9407   -3.4791 C   0  0  0  0  0  0  0  0  0  0  0  0
  -11.1845   -4.0623   -3.9819 N   0  0  0  0  0  0  0  0  0  0  0  0
   -8.9707   -2.3802   -2.2815 C   0  0  0  0  0  0  0  0  0  0  0  0
   -9.1223   -1.3391   -1.8158 N   0  0  0  0  0  0  0  0  0  0  0  0
   -9.0949   -9.2392   -4.7274 C   0  0  0  0  0  0  0  0  0  0  0  0
  -10.0653  -10.0734   -3.8552 C   0  0  0  0  0  0  0  0  0  0  0  0
   -9.7376   -9.7486   -2.4190 C   0  0  0  0  0  0  0  0  0  0  0  0
   -8.5572  -10.2860   -2.1413 C   0  0  0  0  0  0  0  0  0  0  0  0
   -8.0655  -10.9840   -3.3852 C   0  0  0  0  0  0  0  0  0  0  0  0
   -9.4030  -11.4550   -3.9783 C   0  0  0  0  0  0  0  0  0  0  0  0
   -7.7054   -9.8719   -4.4011 C   0  0  0  0  0  0  0  0  0  0  0  0
    8.2723    4.7085    5.1328 H   0  0  0  0  0  0  0  0  0  0  0  0
    5.6798    8.5591    0.8873 H   0  0  0  0  0  0  0  0  0  0  0  0
    9.3395   10.0536    4.0524 H   0  0  0  0  0  0  0  0  0  0  0  0
    8.9008   12.3599    1.5532 H   0  0  0  0  0  0  0  0  0  0  0  0
    7.9206   13.7065    3.4032 H   0  0  0  0  0  0  0  0  0  0  0  0
    6.2621   12.1374    4.6762 H   0  0  0  0  0  0  0  0  0  0  0  0
    4.3548   11.3943    2.9837 H   0  0  0  0  0  0  0  0  0  0  0  0
    4.8425   12.5004    0.6641 H   0  0  0  0  0  0  0  0  0  0  0  0
    5.7186   14.4990    2.1637 H   0  0  0  0  0  0  0  0  0  0  0  0
    6.9540   14.1481    0.9292 H   0  0  0  0  0  0  0  0  0  0  0  0
    7.0500   11.6263   -0.0902 H   0  0  0  0  0  0  0  0  0  0  0  0
    7.4932    2.4391    5.5628 H   0  0  0  0  0  0  0  0  0  0  0  0
    6.0299   -2.3996    4.3728 H   0  0  0  0  0  0  0  0  0  0  0  0
    8.3987   -2.7584    3.7948 H   0  0  0  0  0  0  0  0  0  0  0  0
   10.2224    0.2086    0.5485 H   0  0  0  0  0  0  0  0  0  0  0  0
   11.4913   -0.9621    0.1260 H   0  0  0  0  0  0  0  0  0  0  0  0
    9.8717   -1.1402   -0.5811 H   0  0  0  0  0  0  0  0  0  0  0  0
    7.9145   -0.2870    0.3354 H   0  0  0  0  0  0  0  0  0  0  0  0
    5.5792    0.0352    0.8862 H   0  0  0  0  0  0  0  0  0  0  0  0
    2.1660   -0.8312    4.5438 H   0  0  0  0  0  0  0  0  0  0  0  0
    0.6688   -2.6866    5.1652 H   0  0  0  0  0  0  0  0  0  0  0  0
    1.2643   -6.7393    2.6910 H   0  0  0  0  0  0  0  0  0  0  0  0
    2.1989   -7.2034    4.1561 H   0  0  0  0  0  0  0  0  0  0  0  0
    0.4945   -7.6768    3.9841 H   0  0  0  0  0  0  0  0  0  0  0  0
    3.1983   -5.4154    3.0573 H   0  0  0  0  0  0  0  0  0  0  0  0
    4.6581   -3.5786    2.4229 H   0  0  0  0  0  0  0  0  0  0  0  0
   -0.4404    2.7641    2.1269 H   0  0  0  0  0  0  0  0  0  0  0  0
    0.0184    4.8774    3.3314 H   0  0  0  0  0  0  0  0  0  0  0  0
    2.7663    8.2753    0.9292 H   0  0  0  0  0  0  0  0  0  0  0  0
    3.6090    6.9212    1.7586 H   0  0  0  0  0  0  0  0  0  0  0  0
    3.3782    8.4812    2.5834 H   0  0  0  0  0  0  0  0  0  0  0  0
    1.8592    6.4619   -0.1848 H   0  0  0  0  0  0  0  0  0  0  0  0
    1.3952    4.3743   -1.3766 H   0  0  0  0  0  0  0  0  0  0  0  0
    1.1762    0.3973   -2.1117 H   0  0  0  0  0  0  0  0  0  0  0  0
    0.3095    0.1092   -4.3699 H   0  0  0  0  0  0  0  0  0  0  0  0
   -0.2548   -0.0382   -6.6347 H   0  0  0  0  0  0  0  0  0  0  0  0
   -1.8979   -0.2129   -7.2857 H   0  0  0  0  0  0  0  0  0  0  0  0
   -1.5545   -0.7531   -5.6268 H   0  0  0  0  0  0  0  0  0  0  0  0
   -2.1824    3.5426   -3.8489 H   0  0  0  0  0  0  0  0  0  0  0  0
   -1.3485    3.8022   -1.5495 H   0  0  0  0  0  0  0  0  0  0  0  0
    1.7698   -4.5101    0.8428 H   0  0  0  0  0  0  0  0  0  0  0  0
    4.0702   -4.3856    0.0734 H   0  0  0  0  0  0  0  0  0  0  0  0
    6.1568   -4.6271   -0.8483 H   0  0  0  0  0  0  0  0  0  0  0  0
    7.3533   -3.3458   -1.1182 H   0  0  0  0  0  0  0  0  0  0  0  0
    6.1243   -3.1292    0.1445 H   0  0  0  0  0  0  0  0  0  0  0  0
    2.8844   -1.7368   -3.0647 H   0  0  0  0  0  0  0  0  0  0  0  0
    0.5393   -1.9286   -2.3305 H   0  0  0  0  0  0  0  0  0  0  0  0
    0.0289   -5.7752   -0.7053 H   0  0  0  0  0  0  0  0  0  0  0  0
   -0.8234   -7.6574    0.6429 H   0  0  0  0  0  0  0  0  0  0  0  0
   -3.0826   -7.9868    5.2098 H   0  0  0  0  0  0  0  0  0  0  0  0
   -3.8259   -6.5903    4.4032 H   0  0  0  0  0  0  0  0  0  0  0  0
   -2.1336   -6.4955    4.9962 H   0  0  0  0  0  0  0  0  0  0  0  0
   -2.6558   -4.8875    3.3379 H   0  0  0  0  0  0  0  0  0  0  0  0
   -1.7857   -3.0305    2.0187 H   0  0  0  0  0  0  0  0  0  0  0  0
   -7.4889    1.0651   -2.3499 H   0  0  0  0  0  0  0  0  0  0  0  0
   -9.0655    0.7482   -4.1835 H   0  0  0  0  0  0  0  0  0  0  0  0
  -10.6676    0.4896   -5.8597 H   0  0  0  0  0  0  0  0  0  0  0  0
  -11.2871   -1.0405   -6.5180 H   0  0  0  0  0  0  0  0  0  0  0  0
  -10.6520   -0.9998   -4.8589 H   0  0  0  0  0  0  0  0  0  0  0  0
   -6.3159   -1.9110   -6.0954 H   0  0  0  0  0  0  0  0  0  0  0  0
   -4.7053   -1.5557   -4.2634 H   0  0  0  0  0  0  0  0  0  0  0  0
   -4.8686    2.0667   -3.5077 H   0  0  0  0  0  0  0  0  0  0  0  0
   -4.2989    4.3072   -2.6511 H   0  0  0  0  0  0  0  0  0  0  0  0
   -2.5761    4.3455    1.7649 H   0  0  0  0  0  0  0  0  0  0  0  0
   -2.8535    6.0923    1.9129 H   0  0  0  0  0  0  0  0  0  0  0  0
   -4.2044    4.9727    2.1982 H   0  0  0  0  0  0  0  0  0  0  0  0
   -4.3249    2.7873    1.3446 H   0  0  0  0  0  0  0  0  0  0  0  0
   -4.9348    0.5812    0.4993 H   0  0  0  0  0  0  0  0  0  0  0  0
   -6.7816   -2.1799   -2.0881 H   0  0  0  0  0  0  0  0  0  0  0  0
   -5.3185   -8.2111   -3.0210 H   0  0  0  0  0  0  0  0  0  0  0  0
   -9.8518   -6.2264   -4.1029 H   0  0  0  0  0  0  0  0  0  0  0  0
   -9.4047   -9.1990   -5.7699 H   0  0  0  0  0  0  0  0  0  0  0  0
  -11.1110   -9.9917   -4.1392 H   0  0  0  0  0  0  0  0  0  0  0  0
  -10.3516   -9.1310   -1.7899 H   0  0  0  0  0  0  0  0  0  0  0  0
   -7.9873  -10.2068   -1.2341 H   0  0  0  0  0  0  0  0  0  0  0  0
   -7.2905  -11.7324   -3.2411 H   0  0  0  0  0  0  0  0  0  0  0  0
   -9.8916  -12.2125   -3.3671 H   0  0  0  0  0  0  0  0  0  0  0  0
   -9.3220  -11.8072   -5.0058 H   0  0  0  0  0  0  0  0  0  0  0  0
   -7.1085  -10.2456   -5.2311 H   0  0  0  0  0  0  0  0  0  0  0  0
  1  2  2  0  0  0  0
  2  3  1  0  0  0  0
  3  4  2  0  0  0  0
  3  5  1  0  0  0  0
  5  6  2  0  0  0  0
  6  7  1  0  0  0  0
  7  8  2  0  0  0  0
  8  9  1  0  0  0  0
  9 10  2  0  0  0  0
 10 11  1  0  0  0  0
 11 12  2  0  0  0  0
 12 13  1  0  0  0  0
 13 14  3  0  0  0  0
 12 15  1  0  0  0  0
 15 16  3  0  0  0  0
  8 17  1  0  0  0  0
 17 18  1  0  0  0  0
 18 19  1  0  0  0  0
 19 20  2  0  0  0  0
 20 21  1  0  0  0  0
 21 22  1  0  0  0  0
 21 23  1  0  0  0  0
  1 24  1  0  0  0  0
 24 25  2  0  0  0  0
 25 26  1  0  0  0  0
 26 27  1  0  0  0  0
 26 28  2  0  0  0  0
 28 29  1  0  0  0  0
 28 30  1  0  0  0  0
 30 31  2  0  0  0  0
 31 32  1  0  0  0  0
 32 33  1  0  0  0  0
 33 34  2  0  0  0  0
 34 35  1  0  0  0  0
 35 36  2  0  0  0  0
 36 37  1  0  0  0  0
 37 38  1  0  0  0  0
 36 39  1  0  0  0  0
 39 40  2  0  0  0  0
 32 41  1  0  0  0  0
 41 42  2  0  0  0  0
 42 43  1  0  0  0  0
 43 44  2  0  0  0  0
 44 45  1  0  0  0  0
 45 46  1  0  0  0  0
 44 47  1  0  0  0  0
 47 48  2  0  0  0  0
 31 49  1  0  0  0  0
 49 50  1  0  0  0  0
 50 51  1  0  0  0  0
 51 52  2  0  0  0  0
 52 53  1  0  0  0  0
 53 54  1  0  0  0  0
 54 55  2  0  0  0  0
 55 56  1  0  0  0  0
 56 57  2  0  0  0  0
 57 58  1  0  0  0  0
 58 59  1  0  0  0  0
 57 60  1  0  0  0  0
 60 61  2  0  0  0  0
 53 62  1  0  0  0  0
 62 63  2  0  0  0  0
 63 64  1  0  0  0  0
 64 65  2  0  0  0  0
 65 66  1  0  0  0  0
 66 67  1  0  0  0  0
 65 68  1  0  0  0  0
 68 69  2  0  0  0  0
 52 70  1  0  0  0  0
 70 71  1  0  0  0  0
 51 72  1  0  0  0  0
 72 73  2  0  0  0  0
 73 74  1  0  0  0  0
 74 75  1  0  0  0  0
 75 76  2  0  0  0  0
 76 77  1  0  0  0  0
 77 78  2  0  0  0  0
 78 79  1  0  0  0  0
 79 80  1  0  0  0  0
 78 81  1  0  0  0  0
 81 82  2  0  0  0  0
 74 83  1  0  0  0  0
 83 84  2  0  0  0  0
 84 85  1  0  0  0  0
 85 86  2  0  0  0  0
 86 87  1  0  0  0  0
 87 88  1  0  0  0  0
 86 89  1  0  0  0  0
 89 90  2  0  0  0  0
 73 91  1  0  0  0  0
 91 92  1  0  0  0  0
 92 93  1  0  0  0  0
 93 94  2  0  0  0  0
 94 95  1  0  0  0  0
 95 96  1  0  0  0  0
 96 97  2  0  0  0  0
 97 98  1  0  0  0  0
 98 99  2  0  0  0  0
 99100  1  0  0  0  0
100101  1  0  0  0  0
 99102  1  0  0  0  0
102103  2  0  0  0  0
 95104  1  0  0  0  0
104105  2  0  0  0  0
105106  1  0  0  0  0
106107  2  0  0  0  0
107108  1  0  0  0  0
108109  1  0  0  0  0
107110  1  0  0  0  0
110111  2  0  0  0  0
 94112  1  0  0  0  0
112113  1  0  0  0  0
 93114  1  0  0  0  0
114115  2  0  0  0  0
115116  1  0  0  0  0
116117  2  0  0  0  0
116118  1  0  0  0  0
118119  2  0  0  0  0
119120  1  0  0  0  0
120121  2  0  0  0  0
121122  1  0  0  0  0
122123  2  0  0  0  0
123124  1  0  0  0  0
124125  2  0  0  0  0
125126  1  0  0  0  0
126127  3  0  0  0  0
125128  1  0  0  0  0
128129  3  0  0  0  0
121130  1  0  0  0  0
130131  1  0  0  0  0
131132  1  0  0  0  0
132133  2  0  0  0  0
133134  1  0  0  0  0
134135  1  0  0  0  0
134136  1  0  0  0  0
 11  2  1  0  0  0  0
 23 17  1  0  0  0  0
 29 24  1  0  0  0  0
 71 30  1  0  0  0  0
113 72  1  0  0  0  0
124115  1  0  0  0  0
136130  1  0  0  0  0
 10  5  1  0  0  0  0
 22 18  1  0  0  0  0
 40 33  1  0  0  0  0
 48 41  1  0  0  0  0
 70 49  2  0  0  0  0
 82 75  1  0  0  0  0
 90 83  1  0  0  0  0
112 91  2  0  0  0  0
123118  1  0  0  0  0
135131  1  0  0  0  0
 23  7  1  0  0  0  0
 61 54  1  0  0  0  0
 69 62  1  0  0  0  0
103 96  1  0  0  0  0
111104  1  0  0  0  0
136120  1  0  0  0  0
  1137  1  0  0  0  0
  6138  1  0  0  0  0
  9139  1  0  0  0  0
 17140  1  0  0  0  0
 18141  1  0  0  0  0
 19142  1  0  0  0  0
 20143  1  0  0  0  0
 21144  1  0  0  0  0
 22145  1  0  0  0  0
 22146  1  0  0  0  0
 23147  1  0  0  0  0
 25148  1  0  0  0  0
 34149  1  0  0  0  0
 35150  1  0  0  0  0
 38151  1  0  0  0  0
 38152  1  0  0  0  0
 38153  1  0  0  0  0
 39154  1  0  0  0  0
 40155  1  0  0  0  0
 42156  1  0  0  0  0
 43157  1  0  0  0  0
 46158  1  0  0  0  0
 46159  1  0  0  0  0
 46160  1  0  0  0  0
 47161  1  0  0  0  0
 48162  1  0  0  0  0
 55163  1  0  0  0  0
 56164  1  0  0  0  0
 59165  1  0  0  0  0
 59166  1  0  0  0  0
 59167  1  0  0  0  0
 60168  1  0  0  0  0
 61169  1  0  0  0  0
 63170  1  0  0  0  0
 64171  1  0  0  0  0
 67172  1  0  0  0  0
 67173  1  0  0  0  0
 67174  1  0  0  0  0
 68175  1  0  0  0  0
 69176  1  0  0  0  0
 76177  1  0  0  0  0
 77178  1  0  0  0  0
 80179  1  0  0  0  0
 80180  1  0  0  0  0
 80181  1  0  0  0  0
 81182  1  0  0  0  0
 82183  1  0  0  0  0
 84184  1  0  0  0  0
 85185  1  0  0  0  0
 88186  1  0  0  0  0
 88187  1  0  0  0  0
 88188  1  0  0  0  0
 89189  1  0  0  0  0
 90190  1  0  0  0  0
 97191  1  0  0  0  0
 98192  1  0  0  0  0
101193  1  0  0  0  0
101194  1  0  0  0  0
101195  1  0  0  0  0
102196  1  0  0  0  0
103197  1  0  0  0  0
105198  1  0  0  0  0
106199  1  0  0  0  0
109200  1  0  0  0  0
109201  1  0  0  0  0
109202  1  0  0  0  0
110203  1  0  0  0  0
111204  1  0  0  0  0
114205  1  0  0  0  0
119206  1  0  0  0  0
122207  1  0  0  0  0
130208  1  0  0  0  0
131209  1  0  0  0  0
132210  1  0  0  0  0
133211  1  0  0  0  0
134212  1  0  0  0  0
135213  1  0  0  0  0
135214  1  0  0  0  0
136215  1  0  0  0  0
M  END
