
  xtb     02072223183D
 energy: -378.822691592249 gnorm: 0.000727607978 xtb: 6.4.1 (unknown)
222242  0     0  0            999 V2000
   -6.8759    3.6920    0.0984 C   0  0  0  0  0  0  0  0  0  0  0  0
   -6.9095    4.9184   -0.5076 C   0  0  0  0  0  0  0  0  0  0  0  0
   -8.2150    5.5404   -0.8144 C   0  0  0  0  0  0  0  0  0  0  0  0
   -9.3064    5.1695   -0.4276 O   0  0  0  0  0  0  0  0  0  0  0  0
   -7.9104    6.6564   -1.7319 C   0  0  0  0  0  0  0  0  0  0  0  0
   -8.8169    7.4795   -2.3958 C   0  0  0  0  0  0  0  0  0  0  0  0
   -8.2301    8.4148   -3.2150 C   0  0  0  0  0  0  0  0  0  0  0  0
   -6.8425    8.5219   -3.3728 C   0  0  0  0  0  0  0  0  0  0  0  0
   -5.9344    7.7208   -2.7210 C   0  0  0  0  0  0  0  0  0  0  0  0
   -6.5110    6.7696   -1.8770 C   0  0  0  0  0  0  0  0  0  0  0  0
   -5.8728    5.7821   -1.0080 C   0  0  0  0  0  0  0  0  0  0  0  0
   -4.5778    5.8407   -0.5494 C   0  0  0  0  0  0  0  0  0  0  0  0
   -3.6084    6.7473   -1.0170 C   0  0  0  0  0  0  0  0  0  0  0  0
   -2.7702    7.4538   -1.3609 N   0  0  0  0  0  0  0  0  0  0  0  0
   -4.0967    5.0618    0.5195 C   0  0  0  0  0  0  0  0  0  0  0  0
   -3.6745    4.4953    1.4270 N   0  0  0  0  0  0  0  0  0  0  0  0
   -6.9606    9.6662   -4.3485 C   0  0  0  0  0  0  0  0  0  0  0  0
   -6.6561   11.0752   -3.7976 C   0  0  0  0  0  0  0  0  0  0  0  0
   -7.3055   12.0030   -4.7988 C   0  0  0  0  0  0  0  0  0  0  0  0
   -8.6199   11.9050   -4.6462 C   0  0  0  0  0  0  0  0  0  0  0  0
   -8.8810   10.9091   -3.5392 C   0  0  0  0  0  0  0  0  0  0  0  0
   -7.6641   11.1824   -2.6460 C   0  0  0  0  0  0  0  0  0  0  0  0
   -8.5083    9.5503   -4.1691 C   0  0  0  0  0  0  0  0  0  0  0  0
   -5.8346    2.7515    0.1031 C   0  0  0  0  0  0  0  0  0  0  0  0
   -5.5585    1.7546    1.0555 C   0  0  0  0  0  0  0  0  0  0  0  0
   -6.2247    1.5277    2.2330 N   0  0  0  0  0  0  0  0  0  0  0  0
   -5.4569    1.2266    3.3785 C   0  0  0  0  0  0  0  0  0  0  0  0
   -5.8613    0.2255    4.2578 C   0  0  0  0  0  0  0  0  0  0  0  0
   -5.0907   -0.0719    5.3609 C   0  0  0  0  0  0  0  0  0  0  0  0
   -3.8987    0.6112    5.5963 C   0  0  0  0  0  0  0  0  0  0  0  0
   -2.9497    0.1163    7.0019 S   0  0  0  0  0  0  0  0  0  0  0  0
   -1.8418    1.5276    7.2770 C   0  0  0  0  0  0  0  0  0  0  0  0
   -3.5000    1.6158    4.7247 C   0  0  0  0  0  0  0  0  0  0  0  0
   -4.2820    1.9302    3.6317 C   0  0  0  0  0  0  0  0  0  0  0  0
   -7.6039    1.7231    2.3516 C   0  0  0  0  0  0  0  0  0  0  0  0
   -8.4532    1.3635    1.3050 C   0  0  0  0  0  0  0  0  0  0  0  0
   -9.7960    1.6762    1.3542 C   0  0  0  0  0  0  0  0  0  0  0  0
  -10.3125    2.3440    2.4579 C   0  0  0  0  0  0  0  0  0  0  0  0
  -11.9916    2.8832    2.5226 S   0  0  0  0  0  0  0  0  0  0  0  0
  -12.2742    3.3641    0.7904 C   0  0  0  0  0  0  0  0  0  0  0  0
   -9.4872    2.6149    3.5459 C   0  0  0  0  0  0  0  0  0  0  0  0
   -8.1443    2.3116    3.4951 C   0  0  0  0  0  0  0  0  0  0  0  0
   -4.3602    1.0791    0.7340 C   0  0  0  0  0  0  0  0  0  0  0  0
   -3.4352   -0.1492    1.5265 S   0  0  0  0  0  0  0  0  0  0  0  0
   -2.1827   -0.0229    0.3107 C   0  0  0  0  0  0  0  0  0  0  0  0
   -2.4745    0.9446   -0.6498 C   0  0  0  0  0  0  0  0  0  0  0  0
   -1.5653    1.4126   -1.6067 N   0  0  0  0  0  0  0  0  0  0  0  0
   -0.4476    2.1264   -1.1605 C   0  0  0  0  0  0  0  0  0  0  0  0
   -0.4495    2.7527    0.0834 C   0  0  0  0  0  0  0  0  0  0  0  0
    0.6827    3.3869    0.5597 C   0  0  0  0  0  0  0  0  0  0  0  0
    1.8409    3.4100   -0.2028 C   0  0  0  0  0  0  0  0  0  0  0  0
    3.3480    4.1830    0.3011 S   0  0  0  0  0  0  0  0  0  0  0  0
    3.0353    4.6763    2.0209 C   0  0  0  0  0  0  0  0  0  0  0  0
    1.8454    2.7971   -1.4545 C   0  0  0  0  0  0  0  0  0  0  0  0
    0.7214    2.1602   -1.9268 C   0  0  0  0  0  0  0  0  0  0  0  0
   -1.9129    1.3351   -2.9593 C   0  0  0  0  0  0  0  0  0  0  0  0
   -1.6570    2.3873   -3.8380 C   0  0  0  0  0  0  0  0  0  0  0  0
   -1.9890    2.2715   -5.1694 C   0  0  0  0  0  0  0  0  0  0  0  0
   -2.5876    1.1100   -5.6523 C   0  0  0  0  0  0  0  0  0  0  0  0
   -2.9632    1.0631   -7.3786 S   0  0  0  0  0  0  0  0  0  0  0  0
   -3.1879   -0.7077   -7.7100 C   0  0  0  0  0  0  0  0  0  0  0  0
   -2.8746    0.0744   -4.7747 C   0  0  0  0  0  0  0  0  0  0  0  0
   -2.5377    0.1882   -3.4408 C   0  0  0  0  0  0  0  0  0  0  0  0
   -3.7354    1.5217   -0.4225 C   0  0  0  0  0  0  0  0  0  0  0  0
   -4.6444    2.7569   -1.2089 S   0  0  0  0  0  0  0  0  0  0  0  0
   -0.9738   -0.7554    0.4078 C   0  0  0  0  0  0  0  0  0  0  0  0
   -0.4447   -1.4381    1.4995 C   0  0  0  0  0  0  0  0  0  0  0  0
   -1.1123   -1.6969    2.6950 N   0  0  0  0  0  0  0  0  0  0  0  0
   -2.2496   -2.5076    2.6917 C   0  0  0  0  0  0  0  0  0  0  0  0
   -2.4941   -3.3796    1.6331 C   0  0  0  0  0  0  0  0  0  0  0  0
   -3.6403   -4.1503    1.5972 C   0  0  0  0  0  0  0  0  0  0  0  0
   -4.5637   -4.0715    2.6288 C   0  0  0  0  0  0  0  0  0  0  0  0
   -6.0679   -4.9941    2.6941 S   0  0  0  0  0  0  0  0  0  0  0  0
   -6.0078   -6.0381    1.2100 C   0  0  0  0  0  0  0  0  0  0  0  0
   -4.3194   -3.2083    3.6961 C   0  0  0  0  0  0  0  0  0  0  0  0
   -3.1837   -2.4350    3.7287 C   0  0  0  0  0  0  0  0  0  0  0  0
   -0.4690   -1.3053    3.8752 C   0  0  0  0  0  0  0  0  0  0  0  0
   -0.4732   -2.1023    5.0155 C   0  0  0  0  0  0  0  0  0  0  0  0
    0.1560   -1.6831    6.1705 C   0  0  0  0  0  0  0  0  0  0  0  0
    0.8174   -0.4635    6.2006 C   0  0  0  0  0  0  0  0  0  0  0  0
    1.6275    0.1874    7.6289 S   0  0  0  0  0  0  0  0  0  0  0  0
    1.1266   -0.9432    8.9576 C   0  0  0  0  0  0  0  0  0  0  0  0
    0.8556    0.3224    5.0501 C   0  0  0  0  0  0  0  0  0  0  0  0
    0.2162   -0.0889    3.9027 C   0  0  0  0  0  0  0  0  0  0  0  0
    0.8962   -1.8179    1.2551 C   0  0  0  0  0  0  0  0  0  0  0  0
    2.1660   -2.4877    2.2255 S   0  0  0  0  0  0  0  0  0  0  0  0
    3.2924   -2.3025    0.8914 C   0  0  0  0  0  0  0  0  0  0  0  0
    2.7109   -1.7452   -0.2322 C   0  0  0  0  0  0  0  0  0  0  0  0
    3.4550   -1.2929   -1.3123 N   0  0  0  0  0  0  0  0  0  0  0  0
    2.8222   -1.1785   -2.5496 C   0  0  0  0  0  0  0  0  0  0  0  0
    3.0649   -0.1048   -3.4005 C   0  0  0  0  0  0  0  0  0  0  0  0
    2.3515    0.0357   -4.5755 C   0  0  0  0  0  0  0  0  0  0  0  0
    1.3824   -0.8964   -4.9191 C   0  0  0  0  0  0  0  0  0  0  0  0
    0.3585   -0.7787   -6.3519 S   0  0  0  0  0  0  0  0  0  0  0  0
    0.7231    0.8668   -7.0208 C   0  0  0  0  0  0  0  0  0  0  0  0
    1.1859   -2.0092   -4.1053 C   0  0  0  0  0  0  0  0  0  0  0  0
    1.9024   -2.1550   -2.9400 C   0  0  0  0  0  0  0  0  0  0  0  0
    4.5456   -0.4486   -0.9608 C   0  0  0  0  0  0  0  0  0  0  0  0
    4.3435    0.5650   -0.0309 C   0  0  0  0  0  0  0  0  0  0  0  0
    5.3980    1.3386    0.4078 C   0  0  0  0  0  0  0  0  0  0  0  0
    6.6714    1.1134   -0.0947 C   0  0  0  0  0  0  0  0  0  0  0  0
    8.0862    2.0129    0.4515 S   0  0  0  0  0  0  0  0  0  0  0  0
    7.3781    3.4029    1.3823 C   0  0  0  0  0  0  0  0  0  0  0  0
    6.8702    0.1221   -1.0535 C   0  0  0  0  0  0  0  0  0  0  0  0
    5.8145   -0.6524   -1.4896 C   0  0  0  0  0  0  0  0  0  0  0  0
    1.3387   -1.4953   -0.0179 C   0  0  0  0  0  0  0  0  0  0  0  0
    0.1224   -0.7342   -0.9631 S   0  0  0  0  0  0  0  0  0  0  0  0
    4.6798   -2.6650    0.9407 C   0  0  0  0  0  0  0  0  0  0  0  0
    5.2656   -3.9046   -0.1241 S   0  0  0  0  0  0  0  0  0  0  0  0
    6.9435   -3.6173    0.2863 C   0  0  0  0  0  0  0  0  0  0  0  0
    6.9955   -2.5897    1.2194 C   0  0  0  0  0  0  0  0  0  0  0  0
    8.3104   -1.7415    1.9508 S   0  0  0  0  0  0  0  0  0  0  0  0
    7.1834   -0.6693    2.7572 C   0  0  0  0  0  0  0  0  0  0  0  0
    7.7314    0.4602    3.5099 C   0  0  0  0  0  0  0  0  0  0  0  0
    7.0860    1.4050    3.8980 O   0  0  0  0  0  0  0  0  0  0  0  0
    9.0444    0.3005    3.6798 O   0  0  0  0  0  0  0  0  0  0  0  0
    9.7870    1.3698    4.2643 C   0  0  0  0  0  0  0  0  0  0  0  0
   10.7845    1.9112    3.2521 C   0  0  0  0  0  0  0  0  0  0  0  0
    5.8731   -0.9689    2.5062 C   0  0  0  0  0  0  0  0  0  0  0  0
    5.7334   -2.0695    1.6110 C   0  0  0  0  0  0  0  0  0  0  0  0
    4.5531   -0.1492    3.1978 Cl  0  0  0  0  0  0  0  0  0  0  0  0
    8.0504   -4.3845   -0.1243 C   0  0  0  0  0  0  0  0  0  0  0  0
    8.1498   -5.5133   -0.8804 C   0  0  0  0  0  0  0  0  0  0  0  0
    9.3596   -6.3681   -0.6945 C   0  0  0  0  0  0  0  0  0  0  0  0
   10.4113   -6.0365   -0.1945 O   0  0  0  0  0  0  0  0  0  0  0  0
    8.9611   -7.6953   -1.1835 C   0  0  0  0  0  0  0  0  0  0  0  0
    9.6674   -8.8816   -1.1460 C   0  0  0  0  0  0  0  0  0  0  0  0
    9.0942  -10.0470   -1.6456 C   0  0  0  0  0  0  0  0  0  0  0  0
    9.7381  -11.2490   -1.6353 O   0  0  0  0  0  0  0  0  0  0  0  0
   11.0396  -11.3187   -1.1003 C   0  0  0  0  0  0  0  0  0  0  0  0
    7.7847   -9.9975   -2.1900 C   0  0  0  0  0  0  0  0  0  0  0  0
    7.0783  -11.0284   -2.6998 O   0  0  0  0  0  0  0  0  0  0  0  0
    7.6167  -12.3244   -2.8545 C   0  0  0  0  0  0  0  0  0  0  0  0
    7.0910   -8.7839   -2.2285 C   0  0  0  0  0  0  0  0  0  0  0  0
    7.6692   -7.6339   -1.7311 C   0  0  0  0  0  0  0  0  0  0  0  0
    7.2205   -6.2460   -1.7116 C   0  0  0  0  0  0  0  0  0  0  0  0
    6.2691   -5.7179   -2.5460 C   0  0  0  0  0  0  0  0  0  0  0  0
    6.1769   -4.3460   -2.8427 C   0  0  0  0  0  0  0  0  0  0  0  0
    6.1319   -3.2590   -3.2110 N   0  0  0  0  0  0  0  0  0  0  0  0
    5.3916   -6.4937   -3.3299 C   0  0  0  0  0  0  0  0  0  0  0  0
    4.6288   -7.0736   -3.9620 N   0  0  0  0  0  0  0  0  0  0  0  0
   -7.8078    3.4075    0.5728 H   0  0  0  0  0  0  0  0  0  0  0  0
   -9.8801    7.3620   -2.2550 H   0  0  0  0  0  0  0  0  0  0  0  0
   -4.8683    7.8019   -2.8563 H   0  0  0  0  0  0  0  0  0  0  0  0
   -6.5366    9.4938   -5.3360 H   0  0  0  0  0  0  0  0  0  0  0  0
   -5.6101   11.2572   -3.5668 H   0  0  0  0  0  0  0  0  0  0  0  0
   -6.7617   12.5738   -5.5286 H   0  0  0  0  0  0  0  0  0  0  0  0
   -9.3934   12.3774   -5.2231 H   0  0  0  0  0  0  0  0  0  0  0  0
   -9.8624   10.9419   -3.0733 H   0  0  0  0  0  0  0  0  0  0  0  0
   -7.6882   12.1804   -2.2116 H   0  0  0  0  0  0  0  0  0  0  0  0
   -7.5171   10.4458   -1.8583 H   0  0  0  0  0  0  0  0  0  0  0  0
   -9.1161    9.3030   -5.0377 H   0  0  0  0  0  0  0  0  0  0  0  0
   -6.7772   -0.3145    4.0707 H   0  0  0  0  0  0  0  0  0  0  0  0
   -5.3976   -0.8444    6.0488 H   0  0  0  0  0  0  0  0  0  0  0  0
   -1.3784    1.3597    8.2441 H   0  0  0  0  0  0  0  0  0  0  0  0
   -2.4242    2.4434    7.3006 H   0  0  0  0  0  0  0  0  0  0  0  0
   -1.0760    1.5608    6.5078 H   0  0  0  0  0  0  0  0  0  0  0  0
   -2.5841    2.1606    4.8854 H   0  0  0  0  0  0  0  0  0  0  0  0
   -3.9812    2.7283    2.9690 H   0  0  0  0  0  0  0  0  0  0  0  0
   -8.0465    0.8584    0.4408 H   0  0  0  0  0  0  0  0  0  0  0  0
  -10.4326    1.4104    0.5256 H   0  0  0  0  0  0  0  0  0  0  0  0
  -11.3998    3.8923    0.4208 H   0  0  0  0  0  0  0  0  0  0  0  0
  -12.4949    2.4906    0.1837 H   0  0  0  0  0  0  0  0  0  0  0  0
  -13.1344    4.0261    0.8024 H   0  0  0  0  0  0  0  0  0  0  0  0
   -9.9041    3.1023    4.4132 H   0  0  0  0  0  0  0  0  0  0  0  0
   -7.4971    2.5672    4.3203 H   0  0  0  0  0  0  0  0  0  0  0  0
   -1.3456    2.7595    0.6864 H   0  0  0  0  0  0  0  0  0  0  0  0
    0.6373    3.8660    1.5245 H   0  0  0  0  0  0  0  0  0  0  0  0
    2.7713    3.8046    2.6129 H   0  0  0  0  0  0  0  0  0  0  0  0
    3.9690    5.0973    2.3814 H   0  0  0  0  0  0  0  0  0  0  0  0
    2.2550    5.4309    2.0570 H   0  0  0  0  0  0  0  0  0  0  0  0
    2.7492    2.8152   -2.0440 H   0  0  0  0  0  0  0  0  0  0  0  0
    0.7468    1.6597   -2.8826 H   0  0  0  0  0  0  0  0  0  0  0  0
   -1.1996    3.2934   -3.4697 H   0  0  0  0  0  0  0  0  0  0  0  0
   -1.7944    3.0847   -5.8524 H   0  0  0  0  0  0  0  0  0  0  0  0
   -4.1282   -1.0538   -7.2904 H   0  0  0  0  0  0  0  0  0  0  0  0
   -3.2126   -0.8043   -8.7909 H   0  0  0  0  0  0  0  0  0  0  0  0
   -2.3426   -1.2560   -7.3047 H   0  0  0  0  0  0  0  0  0  0  0  0
   -3.3504   -0.8292   -5.1193 H   0  0  0  0  0  0  0  0  0  0  0  0
   -2.7489   -0.6246   -2.7610 H   0  0  0  0  0  0  0  0  0  0  0  0
   -1.7807   -3.4586    0.8260 H   0  0  0  0  0  0  0  0  0  0  0  0
   -3.7930   -4.8099    0.7581 H   0  0  0  0  0  0  0  0  0  0  0  0
   -5.1352   -6.6837    1.2462 H   0  0  0  0  0  0  0  0  0  0  0  0
   -6.9117   -6.6384    1.2388 H   0  0  0  0  0  0  0  0  0  0  0  0
   -6.0054   -5.4187    0.3178 H   0  0  0  0  0  0  0  0  0  0  0  0
   -5.0408   -3.1459    4.4957 H   0  0  0  0  0  0  0  0  0  0  0  0
   -3.0221   -1.7541    4.5483 H   0  0  0  0  0  0  0  0  0  0  0  0
   -0.9678   -3.0612    4.9982 H   0  0  0  0  0  0  0  0  0  0  0  0
    0.1291   -2.3240    7.0362 H   0  0  0  0  0  0  0  0  0  0  0  0
    1.4922   -0.4952    9.8765 H   0  0  0  0  0  0  0  0  0  0  0  0
    0.0436   -1.0208    8.9858 H   0  0  0  0  0  0  0  0  0  0  0  0
    1.5881   -1.9162    8.8156 H   0  0  0  0  0  0  0  0  0  0  0  0
    1.3859    1.2630    5.0751 H   0  0  0  0  0  0  0  0  0  0  0  0
    0.2327    0.5336    3.0194 H   0  0  0  0  0  0  0  0  0  0  0  0
    3.8030    0.6349   -3.1306 H   0  0  0  0  0  0  0  0  0  0  0  0
    2.5540    0.8868   -5.2061 H   0  0  0  0  0  0  0  0  0  0  0  0
    0.5576    1.6153   -6.2513 H   0  0  0  0  0  0  0  0  0  0  0  0
    1.7405    0.8987   -7.3997 H   0  0  0  0  0  0  0  0  0  0  0  0
    0.0196    1.0173   -7.8340 H   0  0  0  0  0  0  0  0  0  0  0  0
    0.4619   -2.7540   -4.3982 H   0  0  0  0  0  0  0  0  0  0  0  0
    1.7528   -3.0257   -2.3190 H   0  0  0  0  0  0  0  0  0  0  0  0
    3.3523    0.7422    0.3612 H   0  0  0  0  0  0  0  0  0  0  0  0
    5.2162    2.1028    1.1436 H   0  0  0  0  0  0  0  0  0  0  0  0
    8.2024    4.0867    1.5624 H   0  0  0  0  0  0  0  0  0  0  0  0
    6.6164    3.8899    0.7806 H   0  0  0  0  0  0  0  0  0  0  0  0
    6.9769    3.0494    2.3293 H   0  0  0  0  0  0  0  0  0  0  0  0
    7.8622   -0.0419   -1.4454 H   0  0  0  0  0  0  0  0  0  0  0  0
    5.9682   -1.4255   -2.2267 H   0  0  0  0  0  0  0  0  0  0  0  0
   10.3008    0.9562    5.1370 H   0  0  0  0  0  0  0  0  0  0  0  0
    9.0869    2.1474    4.5874 H   0  0  0  0  0  0  0  0  0  0  0  0
   11.3444    2.7306    3.6936 H   0  0  0  0  0  0  0  0  0  0  0  0
   10.2645    2.2677    2.3662 H   0  0  0  0  0  0  0  0  0  0  0  0
   11.4742    1.1269    2.9524 H   0  0  0  0  0  0  0  0  0  0  0  0
    8.9772   -4.0936    0.3654 H   0  0  0  0  0  0  0  0  0  0  0  0
   10.6606   -8.8766   -0.7281 H   0  0  0  0  0  0  0  0  0  0  0  0
   11.0548  -11.0415   -0.0422 H   0  0  0  0  0  0  0  0  0  0  0  0
   11.3374  -12.3609   -1.2047 H   0  0  0  0  0  0  0  0  0  0  0  0
   11.7371  -10.6852   -1.6560 H   0  0  0  0  0  0  0  0  0  0  0  0
    6.8257  -12.8979   -3.3370 H   0  0  0  0  0  0  0  0  0  0  0  0
    7.8620  -12.7789   -1.8930 H   0  0  0  0  0  0  0  0  0  0  0  0
    8.5028  -12.3199   -3.4916 H   0  0  0  0  0  0  0  0  0  0  0  0
    6.0995   -8.7980   -2.6502 H   0  0  0  0  0  0  0  0  0  0  0  0
  1  2  2  0  0  0  0
  2  3  1  0  0  0  0
  3  4  2  0  0  0  0
  3  5  1  0  0  0  0
  5  6  2  0  0  0  0
  6  7  1  0  0  0  0
  7  8  2  0  0  0  0
  8  9  1  0  0  0  0
  9 10  2  0  0  0  0
 10 11  1  0  0  0  0
 11 12  2  0  0  0  0
 12 13  1  0  0  0  0
 13 14  3  0  0  0  0
 12 15  1  0  0  0  0
 15 16  3  0  0  0  0
  8 17  1  0  0  0  0
 17 18  1  0  0  0  0
 18 19  1  0  0  0  0
 19 20  2  0  0  0  0
 20 21  1  0  0  0  0
 21 22  1  0  0  0  0
 21 23  1  0  0  0  0
  1 24  1  0  0  0  0
 24 25  2  0  0  0  0
 25 26  1  0  0  0  0
 26 27  1  0  0  0  0
 27 28  2  0  0  0  0
 28 29  1  0  0  0  0
 29 30  2  0  0  0  0
 30 31  1  0  0  0  0
 31 32  1  0  0  0  0
 30 33  1  0  0  0  0
 33 34  2  0  0  0  0
 26 35  1  0  0  0  0
 35 36  2  0  0  0  0
 36 37  1  0  0  0  0
 37 38  2  0  0  0  0
 38 39  1  0  0  0  0
 39 40  1  0  0  0  0
 38 41  1  0  0  0  0
 41 42  2  0  0  0  0
 25 43  1  0  0  0  0
 43 44  1  0  0  0  0
 44 45  1  0  0  0  0
 45 46  2  0  0  0  0
 46 47  1  0  0  0  0
 47 48  1  0  0  0  0
 48 49  2  0  0  0  0
 49 50  1  0  0  0  0
 50 51  2  0  0  0  0
 51 52  1  0  0  0  0
 52 53  1  0  0  0  0
 51 54  1  0  0  0  0
 54 55  2  0  0  0  0
 47 56  1  0  0  0  0
 56 57  2  0  0  0  0
 57 58  1  0  0  0  0
 58 59  2  0  0  0  0
 59 60  1  0  0  0  0
 60 61  1  0  0  0  0
 59 62  1  0  0  0  0
 62 63  2  0  0  0  0
 46 64  1  0  0  0  0
 64 65  1  0  0  0  0
 45 66  1  0  0  0  0
 66 67  2  0  0  0  0
 67 68  1  0  0  0  0
 68 69  1  0  0  0  0
 69 70  2  0  0  0  0
 70 71  1  0  0  0  0
 71 72  2  0  0  0  0
 72 73  1  0  0  0  0
 73 74  1  0  0  0  0
 72 75  1  0  0  0  0
 75 76  2  0  0  0  0
 68 77  1  0  0  0  0
 77 78  2  0  0  0  0
 78 79  1  0  0  0  0
 79 80  2  0  0  0  0
 80 81  1  0  0  0  0
 81 82  1  0  0  0  0
 80 83  1  0  0  0  0
 83 84  2  0  0  0  0
 67 85  1  0  0  0  0
 85 86  1  0  0  0  0
 86 87  1  0  0  0  0
 87 88  2  0  0  0  0
 88 89  1  0  0  0  0
 89 90  1  0  0  0  0
 90 91  2  0  0  0  0
 91 92  1  0  0  0  0
 92 93  2  0  0  0  0
 93 94  1  0  0  0  0
 94 95  1  0  0  0  0
 93 96  1  0  0  0  0
 96 97  2  0  0  0  0
 89 98  1  0  0  0  0
 98 99  2  0  0  0  0
 99100  1  0  0  0  0
100101  2  0  0  0  0
101102  1  0  0  0  0
102103  1  0  0  0  0
101104  1  0  0  0  0
104105  2  0  0  0  0
 88106  1  0  0  0  0
106107  1  0  0  0  0
 87108  1  0  0  0  0
108109  1  0  0  0  0
109110  1  0  0  0  0
110111  2  0  0  0  0
111112  1  0  0  0  0
112113  1  0  0  0  0
113114  1  0  0  0  0
114115  2  0  0  0  0
114116  1  0  0  0  0
116117  1  0  0  0  0
117118  1  0  0  0  0
113119  2  0  0  0  0
119120  1  0  0  0  0
119121  1  0  0  0  0
110122  1  0  0  0  0
122123  2  0  0  0  0
123124  1  0  0  0  0
124125  2  0  0  0  0
124126  1  0  0  0  0
126127  2  0  0  0  0
127128  1  0  0  0  0
128129  1  0  0  0  0
129130  1  0  0  0  0
128131  2  0  0  0  0
131132  1  0  0  0  0
132133  1  0  0  0  0
131134  1  0  0  0  0
134135  2  0  0  0  0
135136  1  0  0  0  0
136137  2  0  0  0  0
137138  1  0  0  0  0
138139  3  0  0  0  0
137140  1  0  0  0  0
140141  3  0  0  0  0
 11  2  1  0  0  0  0
 23 17  1  0  0  0  0
 65 24  1  0  0  0  0
107 66  1  0  0  0  0
120108  2  0  0  0  0
136123  1  0  0  0  0
 10  5  1  0  0  0  0
 22 18  1  0  0  0  0
 34 27  1  0  0  0  0
 42 35  1  0  0  0  0
 64 43  2  0  0  0  0
 76 69  1  0  0  0  0
 84 77  1  0  0  0  0
106 85  2  0  0  0  0
120111  1  0  0  0  0
135126  1  0  0  0  0
 23  7  1  0  0  0  0
 55 48  1  0  0  0  0
 63 56  1  0  0  0  0
 97 90  1  0  0  0  0
105 98  1  0  0  0  0
  1142  1  0  0  0  0
  6143  1  0  0  0  0
  9144  1  0  0  0  0
 17145  1  0  0  0  0
 18146  1  0  0  0  0
 19147  1  0  0  0  0
 20148  1  0  0  0  0
 21149  1  0  0  0  0
 22150  1  0  0  0  0
 22151  1  0  0  0  0
 23152  1  0  0  0  0
 28153  1  0  0  0  0
 29154  1  0  0  0  0
 32155  1  0  0  0  0
 32156  1  0  0  0  0
 32157  1  0  0  0  0
 33158  1  0  0  0  0
 34159  1  0  0  0  0
 36160  1  0  0  0  0
 37161  1  0  0  0  0
 40162  1  0  0  0  0
 40163  1  0  0  0  0
 40164  1  0  0  0  0
 41165  1  0  0  0  0
 42166  1  0  0  0  0
 49167  1  0  0  0  0
 50168  1  0  0  0  0
 53169  1  0  0  0  0
 53170  1  0  0  0  0
 53171  1  0  0  0  0
 54172  1  0  0  0  0
 55173  1  0  0  0  0
 57174  1  0  0  0  0
 58175  1  0  0  0  0
 61176  1  0  0  0  0
 61177  1  0  0  0  0
 61178  1  0  0  0  0
 62179  1  0  0  0  0
 63180  1  0  0  0  0
 70181  1  0  0  0  0
 71182  1  0  0  0  0
 74183  1  0  0  0  0
 74184  1  0  0  0  0
 74185  1  0  0  0  0
 75186  1  0  0  0  0
 76187  1  0  0  0  0
 78188  1  0  0  0  0
 79189  1  0  0  0  0
 82190  1  0  0  0  0
 82191  1  0  0  0  0
 82192  1  0  0  0  0
 83193  1  0  0  0  0
 84194  1  0  0  0  0
 91195  1  0  0  0  0
 92196  1  0  0  0  0
 95197  1  0  0  0  0
 95198  1  0  0  0  0
 95199  1  0  0  0  0
 96200  1  0  0  0  0
 97201  1  0  0  0  0
 99202  1  0  0  0  0
100203  1  0  0  0  0
103204  1  0  0  0  0
103205  1  0  0  0  0
103206  1  0  0  0  0
104207  1  0  0  0  0
105208  1  0  0  0  0
117209  1  0  0  0  0
117210  1  0  0  0  0
118211  1  0  0  0  0
118212  1  0  0  0  0
118213  1  0  0  0  0
122214  1  0  0  0  0
127215  1  0  0  0  0
130216  1  0  0  0  0
130217  1  0  0  0  0
130218  1  0  0  0  0
133219  1  0  0  0  0
133220  1  0  0  0  0
133221  1  0  0  0  0
134222  1  0  0  0  0
M  END
