
  xtb     02092200023D
 energy: -378.942596206254 gnorm: 0.000359283720 xtb: 6.4.1 (unknown)
226249  0     0  0            999 V2000
    3.1709    0.6585    6.4335 C   0  0  0  0  0  0  0  0  0  0  0  0
    2.8689   -0.1614    7.4944 C   0  0  0  0  0  0  0  0  0  0  0  0
    1.5661   -0.7669    7.7783 C   0  0  0  0  0  0  0  0  0  0  0  0
    0.4791   -0.4588    7.3161 O   0  0  0  0  0  0  0  0  0  0  0  0
    1.8271   -1.8608    8.7353 C   0  0  0  0  0  0  0  0  0  0  0  0
    0.9077   -2.7752    9.2437 C   0  0  0  0  0  0  0  0  0  0  0  0
    1.4525   -3.7049   10.0969 C   0  0  0  0  0  0  0  0  0  0  0  0
    2.8131   -3.7247   10.4253 C   0  0  0  0  0  0  0  0  0  0  0  0
    3.7315   -2.8265    9.9343 C   0  0  0  0  0  0  0  0  0  0  0  0
    3.1985   -1.8735    9.0616 C   0  0  0  0  0  0  0  0  0  0  0  0
    3.8587   -0.7858    8.3395 C   0  0  0  0  0  0  0  0  0  0  0  0
    5.1892   -0.4546    8.4373 C   0  0  0  0  0  0  0  0  0  0  0  0
    5.8032    0.6493    7.8142 C   0  0  0  0  0  0  0  0  0  0  0  0
    6.3791    1.5371    7.3645 N   0  0  0  0  0  0  0  0  0  0  0  0
    6.1342   -1.1730    9.1957 C   0  0  0  0  0  0  0  0  0  0  0  0
    6.9552   -1.7326    9.7725 N   0  0  0  0  0  0  0  0  0  0  0  0
    2.6600   -4.9211   11.3316 C   0  0  0  0  0  0  0  0  0  0  0  0
    2.6506   -4.6406   12.8489 C   0  0  0  0  0  0  0  0  0  0  0  0
    2.0160   -5.8781   13.4416 C   0  0  0  0  0  0  0  0  0  0  0  0
    0.7261   -5.8582   13.1313 C   0  0  0  0  0  0  0  0  0  0  0  0
    0.4672   -4.6071   12.3232 C   0  0  0  0  0  0  0  0  0  0  0  0
    1.4799   -3.6572   12.9757 C   0  0  0  0  0  0  0  0  0  0  0  0
    1.1409   -4.8982   10.9657 C   0  0  0  0  0  0  0  0  0  0  0  0
    2.3629    1.1436    5.4049 C   0  0  0  0  0  0  0  0  0  0  0  0
    2.8807    1.5749    4.1596 C   0  0  0  0  0  0  0  0  0  0  0  0
    4.1721    1.3972    3.7315 N   0  0  0  0  0  0  0  0  0  0  0  0
    4.9726    0.3247    4.1676 C   0  0  0  0  0  0  0  0  0  0  0  0
    6.3328    0.5259    4.3959 C   0  0  0  0  0  0  0  0  0  0  0  0
    7.1019   -0.4880    4.9235 C   0  0  0  0  0  0  0  0  0  0  0  0
    6.5294   -1.7176    5.2398 C   0  0  0  0  0  0  0  0  0  0  0  0
    7.5722   -2.9173    6.0041 S   0  0  0  0  0  0  0  0  0  0  0  0
    6.3922   -4.0641    6.7737 C   0  0  0  0  0  0  0  0  0  0  0  0
    5.1913   -1.9459    4.9371 C   0  0  0  0  0  0  0  0  0  0  0  0
    4.4239   -0.9363    4.3942 C   0  0  0  0  0  0  0  0  0  0  0  0
    4.6598    2.2178    2.6972 C   0  0  0  0  0  0  0  0  0  0  0  0
    4.5219    3.6029    2.7756 C   0  0  0  0  0  0  0  0  0  0  0  0
    4.9951    4.4000    1.7573 C   0  0  0  0  0  0  0  0  0  0  0  0
    5.5956    3.8316    0.6355 C   0  0  0  0  0  0  0  0  0  0  0  0
    6.1227    4.9379   -0.6322 S   0  0  0  0  0  0  0  0  0  0  0  0
    7.3241    3.9556   -1.5725 C   0  0  0  0  0  0  0  0  0  0  0  0
    5.7341    2.4519    0.5553 C   0  0  0  0  0  0  0  0  0  0  0  0
    5.2799    1.6545    1.5860 C   0  0  0  0  0  0  0  0  0  0  0  0
    1.8624    2.0939    3.3493 C   0  0  0  0  0  0  0  0  0  0  0  0
    1.8321    2.6879    1.7181 S   0  0  0  0  0  0  0  0  0  0  0  0
    0.0769    2.7383    1.7714 C   0  0  0  0  0  0  0  0  0  0  0  0
   -0.4287    2.4560    3.0384 C   0  0  0  0  0  0  0  0  0  0  0  0
   -1.7714    2.6175    3.3365 N   0  0  0  0  0  0  0  0  0  0  0  0
   -2.3792    1.7371    4.2350 C   0  0  0  0  0  0  0  0  0  0  0  0
   -3.3078    2.1831    5.1740 C   0  0  0  0  0  0  0  0  0  0  0  0
   -3.8197    1.3077    6.1071 C   0  0  0  0  0  0  0  0  0  0  0  0
   -3.4063   -0.0191    6.1248 C   0  0  0  0  0  0  0  0  0  0  0  0
   -4.0419   -1.0777    7.3904 S   0  0  0  0  0  0  0  0  0  0  0  0
   -2.5998   -2.1391    7.7027 C   0  0  0  0  0  0  0  0  0  0  0  0
   -2.5256   -0.4813    5.1573 C   0  0  0  0  0  0  0  0  0  0  0  0
   -2.0213    0.3906    4.2168 C   0  0  0  0  0  0  0  0  0  0  0  0
   -2.3713    3.8423    2.9907 C   0  0  0  0  0  0  0  0  0  0  0  0
   -3.7044    3.8912    2.5843 C   0  0  0  0  0  0  0  0  0  0  0  0
   -4.2766    5.0958    2.2386 C   0  0  0  0  0  0  0  0  0  0  0  0
   -3.5367    6.2759    2.2975 C   0  0  0  0  0  0  0  0  0  0  0  0
   -4.3576    7.7629    1.8172 S   0  0  0  0  0  0  0  0  0  0  0  0
   -3.2639    9.0780    2.4274 C   0  0  0  0  0  0  0  0  0  0  0  0
   -2.2108    6.2312    2.7062 C   0  0  0  0  0  0  0  0  0  0  0  0
   -1.6364    5.0230    3.0443 C   0  0  0  0  0  0  0  0  0  0  0  0
    0.5930    2.0445    3.9228 C   0  0  0  0  0  0  0  0  0  0  0  0
    0.6067    1.2981    5.4816 S   0  0  0  0  0  0  0  0  0  0  0  0
   -0.6531    2.7309    0.5633 C   0  0  0  0  0  0  0  0  0  0  0  0
   -0.1163    2.9429   -0.7041 C   0  0  0  0  0  0  0  0  0  0  0  0
    1.0262    3.7185   -0.8818 N   0  0  0  0  0  0  0  0  0  0  0  0
    2.0969    3.2615   -1.6443 C   0  0  0  0  0  0  0  0  0  0  0  0
    2.3832    1.8966   -1.6874 C   0  0  0  0  0  0  0  0  0  0  0  0
    3.4518    1.4327   -2.4210 C   0  0  0  0  0  0  0  0  0  0  0  0
    4.2571    2.3209   -3.1259 C   0  0  0  0  0  0  0  0  0  0  0  0
    5.6486    1.6456   -3.9963 S   0  0  0  0  0  0  0  0  0  0  0  0
    5.9237    2.8610   -5.3195 C   0  0  0  0  0  0  0  0  0  0  0  0
    3.9744    3.6790   -3.0931 C   0  0  0  0  0  0  0  0  0  0  0  0
    2.8982    4.1433   -2.3658 C   0  0  0  0  0  0  0  0  0  0  0  0
    0.9652    5.0189   -0.3580 C   0  0  0  0  0  0  0  0  0  0  0  0
   -0.2476    5.7099   -0.3655 C   0  0  0  0  0  0  0  0  0  0  0  0
   -0.3353    6.9689    0.1806 C   0  0  0  0  0  0  0  0  0  0  0  0
    0.7816    7.5635    0.7626 C   0  0  0  0  0  0  0  0  0  0  0  0
    0.5349    9.1569    1.4908 S   0  0  0  0  0  0  0  0  0  0  0  0
    2.2139    9.7453    1.8388 C   0  0  0  0  0  0  0  0  0  0  0  0
    1.9928    6.8861    0.7631 C   0  0  0  0  0  0  0  0  0  0  0  0
    2.0843    5.6270    0.2015 C   0  0  0  0  0  0  0  0  0  0  0  0
   -0.9295    2.3799   -1.7055 C   0  0  0  0  0  0  0  0  0  0  0  0
   -0.8130    2.2117   -3.4196 S   0  0  0  0  0  0  0  0  0  0  0  0
   -2.3346    1.3301   -3.4546 C   0  0  0  0  0  0  0  0  0  0  0  0
   -2.9506    1.2811   -2.2072 C   0  0  0  0  0  0  0  0  0  0  0  0
   -4.2307    0.8512   -1.9268 N   0  0  0  0  0  0  0  0  0  0  0  0
   -4.4679    0.2779   -0.6637 C   0  0  0  0  0  0  0  0  0  0  0  0
   -5.5686    0.6657    0.0926 C   0  0  0  0  0  0  0  0  0  0  0  0
   -5.7831    0.1257    1.3463 C   0  0  0  0  0  0  0  0  0  0  0  0
   -4.8970   -0.8118    1.8621 C   0  0  0  0  0  0  0  0  0  0  0  0
   -5.0881   -1.5886    3.4341 S   0  0  0  0  0  0  0  0  0  0  0  0
   -6.2940   -0.5448    4.2949 C   0  0  0  0  0  0  0  0  0  0  0  0
   -3.8021   -1.2126    1.0986 C   0  0  0  0  0  0  0  0  0  0  0  0
   -3.5892   -0.6769   -0.1517 C   0  0  0  0  0  0  0  0  0  0  0  0
   -5.2297    0.8238   -2.9052 C   0  0  0  0  0  0  0  0  0  0  0  0
   -5.2891    1.8014   -3.8958 C   0  0  0  0  0  0  0  0  0  0  0  0
   -6.1445    1.6665   -4.9702 C   0  0  0  0  0  0  0  0  0  0  0  0
   -6.9699    0.5533   -5.0676 C   0  0  0  0  0  0  0  0  0  0  0  0
   -7.9837    0.1982   -6.4637 S   0  0  0  0  0  0  0  0  0  0  0  0
   -7.3609    1.3254   -7.7396 C   0  0  0  0  0  0  0  0  0  0  0  0
   -7.0044   -0.3591   -4.0144 C   0  0  0  0  0  0  0  0  0  0  0  0
   -6.1509   -0.2245   -2.9433 C   0  0  0  0  0  0  0  0  0  0  0  0
   -2.1131    1.8414   -1.2164 C   0  0  0  0  0  0  0  0  0  0  0  0
   -2.2483    2.0024    0.5013 S   0  0  0  0  0  0  0  0  0  0  0  0
   -2.7950    0.6756   -4.6485 C   0  0  0  0  0  0  0  0  0  0  0  0
   -3.3985   -0.5999   -4.5526 C   0  0  0  0  0  0  0  0  0  0  0  0
   -3.5403   -1.4214   -3.5034 N   0  0  0  0  0  0  0  0  0  0  0  0
   -4.1756   -2.4513   -3.9839 N   0  0  0  0  0  0  0  0  0  0  0  0
   -4.5073   -3.5750   -3.1562 C   0  0  0  0  0  0  0  0  0  0  0  0
   -3.4658   -4.6788   -3.3107 C   0  0  0  0  0  0  0  0  0  0  0  0
   -4.4701   -2.4227   -5.2540 N   0  0  0  0  0  0  0  0  0  0  0  0
   -3.9853   -1.2462   -5.6749 C   0  0  0  0  0  0  0  0  0  0  0  0
   -3.9135   -0.6892   -6.9668 C   0  0  0  0  0  0  0  0  0  0  0  0
   -3.2617    0.5314   -7.0548 C   0  0  0  0  0  0  0  0  0  0  0  0
   -2.7280    1.1970   -5.9348 C   0  0  0  0  0  0  0  0  0  0  0  0
   -2.0216    2.7475   -6.1790 Cl  0  0  0  0  0  0  0  0  0  0  0  0
   -3.2026    1.3325   -8.5766 Cl  0  0  0  0  0  0  0  0  0  0  0  0
   -4.4715   -1.3974   -8.1008 C   0  0  0  0  0  0  0  0  0  0  0  0
   -3.7439   -1.7572   -9.1792 C   0  0  0  0  0  0  0  0  0  0  0  0
   -2.2501   -1.7559   -9.2035 C   0  0  0  0  0  0  0  0  0  0  0  0
   -1.4974   -1.2115   -8.4288 O   0  0  0  0  0  0  0  0  0  0  0  0
   -1.8814   -2.6461  -10.3191 C   0  0  0  0  0  0  0  0  0  0  0  0
   -0.5948   -3.0510  -10.6695 C   0  0  0  0  0  0  0  0  0  0  0  0
   -0.5497   -3.9109  -11.7397 C   0  0  0  0  0  0  0  0  0  0  0  0
   -1.7008   -4.3476  -12.4116 C   0  0  0  0  0  0  0  0  0  0  0  0
   -2.9755   -3.9594  -12.0767 C   0  0  0  0  0  0  0  0  0  0  0  0
   -3.0431   -3.0768  -10.9940 C   0  0  0  0  0  0  0  0  0  0  0  0
   -4.2033   -2.4589  -10.3670 C   0  0  0  0  0  0  0  0  0  0  0  0
   -5.4795   -2.4351  -10.8563 C   0  0  0  0  0  0  0  0  0  0  0  0
   -6.5257   -1.6840  -10.2799 C   0  0  0  0  0  0  0  0  0  0  0  0
   -7.4095   -1.0624   -9.8936 N   0  0  0  0  0  0  0  0  0  0  0  0
   -5.8931   -3.0895  -12.0357 C   0  0  0  0  0  0  0  0  0  0  0  0
   -6.2880   -3.6033  -12.9830 N   0  0  0  0  0  0  0  0  0  0  0  0
   -0.9117   -5.1961  -13.3765 C   0  0  0  0  0  0  0  0  0  0  0  0
   -0.7025   -4.6506  -14.8108 C   0  0  0  0  0  0  0  0  0  0  0  0
   -0.7718   -3.1467  -14.7119 C   0  0  0  0  0  0  0  0  0  0  0  0
    0.3171   -2.7320  -14.0784 C   0  0  0  0  0  0  0  0  0  0  0  0
    1.1424   -3.9481  -13.7370 C   0  0  0  0  0  0  0  0  0  0  0  0
    0.8166   -4.8439  -14.9427 C   0  0  0  0  0  0  0  0  0  0  0  0
    0.3699   -4.7079  -12.6302 C   0  0  0  0  0  0  0  0  0  0  0  0
    4.2186    0.9022    6.3142 H   0  0  0  0  0  0  0  0  0  0  0  0
   -0.1332   -2.7335    8.9650 H   0  0  0  0  0  0  0  0  0  0  0  0
    4.7761   -2.8557   10.1958 H   0  0  0  0  0  0  0  0  0  0  0  0
    3.2472   -5.7978   11.0642 H   0  0  0  0  0  0  0  0  0  0  0  0
    3.6086   -4.3361   13.2611 H   0  0  0  0  0  0  0  0  0  0  0  0
    2.5631   -6.6429   13.9608 H   0  0  0  0  0  0  0  0  0  0  0  0
   -0.0197   -6.6030   13.3393 H   0  0  0  0  0  0  0  0  0  0  0  0
   -0.5644   -4.2718   12.2575 H   0  0  0  0  0  0  0  0  0  0  0  0
    1.6244   -2.7235   12.4354 H   0  0  0  0  0  0  0  0  0  0  0  0
    1.2332   -3.4426   14.0140 H   0  0  0  0  0  0  0  0  0  0  0  0
    0.7153   -5.7606   10.4553 H   0  0  0  0  0  0  0  0  0  0  0  0
    6.7708    1.4911    4.1954 H   0  0  0  0  0  0  0  0  0  0  0  0
    8.1472   -0.3257    5.1325 H   0  0  0  0  0  0  0  0  0  0  0  0
    5.9402   -4.7076    6.0241 H   0  0  0  0  0  0  0  0  0  0  0  0
    6.9763   -4.6603    7.4674 H   0  0  0  0  0  0  0  0  0  0  0  0
    5.6380   -3.5028    7.3174 H   0  0  0  0  0  0  0  0  0  0  0  0
    4.7390   -2.9083    5.1169 H   0  0  0  0  0  0  0  0  0  0  0  0
    3.3841   -1.1188    4.1665 H   0  0  0  0  0  0  0  0  0  0  0  0
    4.0585    4.0449    3.6449 H   0  0  0  0  0  0  0  0  0  0  0  0
    4.9149    5.4741    1.8234 H   0  0  0  0  0  0  0  0  0  0  0  0
    8.0531    3.5303   -0.8895 H   0  0  0  0  0  0  0  0  0  0  0  0
    6.8209    3.1790   -2.1405 H   0  0  0  0  0  0  0  0  0  0  0  0
    7.8123    4.6530   -2.2464 H   0  0  0  0  0  0  0  0  0  0  0  0
    6.1805    1.9873   -0.3087 H   0  0  0  0  0  0  0  0  0  0  0  0
    5.3898    0.5820    1.5248 H   0  0  0  0  0  0  0  0  0  0  0  0
   -3.6002    3.2223    5.1899 H   0  0  0  0  0  0  0  0  0  0  0  0
   -4.5231    1.6521    6.8499 H   0  0  0  0  0  0  0  0  0  0  0  0
   -2.5873   -2.9720    7.0045 H   0  0  0  0  0  0  0  0  0  0  0  0
   -1.7031   -1.5320    7.6084 H   0  0  0  0  0  0  0  0  0  0  0  0
   -2.7129   -2.5109    8.7171 H   0  0  0  0  0  0  0  0  0  0  0  0
   -2.2348   -1.5185    5.1289 H   0  0  0  0  0  0  0  0  0  0  0  0
   -1.3462    0.0313    3.4545 H   0  0  0  0  0  0  0  0  0  0  0  0
   -4.2793    2.9784    2.5380 H   0  0  0  0  0  0  0  0  0  0  0  0
   -5.3056    5.1379    1.9161 H   0  0  0  0  0  0  0  0  0  0  0  0
   -3.8120   10.0031    2.2784 H   0  0  0  0  0  0  0  0  0  0  0  0
   -2.3368    9.1071    1.8615 H   0  0  0  0  0  0  0  0  0  0  0  0
   -3.0711    8.9278    3.4852 H   0  0  0  0  0  0  0  0  0  0  0  0
   -1.6155    7.1271    2.7703 H   0  0  0  0  0  0  0  0  0  0  0  0
   -0.6044    4.9993    3.3623 H   0  0  0  0  0  0  0  0  0  0  0  0
    1.7658    1.2061   -1.1326 H   0  0  0  0  0  0  0  0  0  0  0  0
    3.6786    0.3780   -2.4496 H   0  0  0  0  0  0  0  0  0  0  0  0
    6.4032    3.7532   -4.9266 H   0  0  0  0  0  0  0  0  0  0  0  0
    6.5815    2.3773   -6.0348 H   0  0  0  0  0  0  0  0  0  0  0  0
    4.9735    3.1000   -5.7866 H   0  0  0  0  0  0  0  0  0  0  0  0
    4.5851    4.3873   -3.6299 H   0  0  0  0  0  0  0  0  0  0  0  0
    2.6787    5.1997   -2.3564 H   0  0  0  0  0  0  0  0  0  0  0  0
   -1.1222    5.2613   -0.8117 H   0  0  0  0  0  0  0  0  0  0  0  0
   -1.2706    7.5053    0.1494 H   0  0  0  0  0  0  0  0  0  0  0  0
    2.8092    9.7055    0.9313 H   0  0  0  0  0  0  0  0  0  0  0  0
    2.6617    9.1543    2.6326 H   0  0  0  0  0  0  0  0  0  0  0  0
    2.1029   10.7747    2.1654 H   0  0  0  0  0  0  0  0  0  0  0  0
    2.8751    7.3223    1.2032 H   0  0  0  0  0  0  0  0  0  0  0  0
    3.0269    5.1027    0.2090 H   0  0  0  0  0  0  0  0  0  0  0  0
   -6.2567    1.3958   -0.3070 H   0  0  0  0  0  0  0  0  0  0  0  0
   -6.6437    0.4440    1.9127 H   0  0  0  0  0  0  0  0  0  0  0  0
   -5.9683    0.4904    4.2546 H   0  0  0  0  0  0  0  0  0  0  0  0
   -6.2943   -0.8884    5.3250 H   0  0  0  0  0  0  0  0  0  0  0  0
   -7.2820   -0.6717    3.8617 H   0  0  0  0  0  0  0  0  0  0  0  0
   -3.1275   -1.9522    1.5014 H   0  0  0  0  0  0  0  0  0  0  0  0
   -2.7496   -0.9920   -0.7528 H   0  0  0  0  0  0  0  0  0  0  0  0
   -4.6415    2.6631   -3.8382 H   0  0  0  0  0  0  0  0  0  0  0  0
   -6.1501    2.4300   -5.7310 H   0  0  0  0  0  0  0  0  0  0  0  0
   -6.2775    1.2629   -7.7845 H   0  0  0  0  0  0  0  0  0  0  0  0
   -7.7875    0.9660   -8.6709 H   0  0  0  0  0  0  0  0  0  0  0  0
   -7.6913    2.3409   -7.5405 H   0  0  0  0  0  0  0  0  0  0  0  0
   -7.6864   -1.1939   -4.0682 H   0  0  0  0  0  0  0  0  0  0  0  0
   -6.1569   -0.9569   -2.1496 H   0  0  0  0  0  0  0  0  0  0  0  0
   -4.5401   -3.2169   -2.1254 H   0  0  0  0  0  0  0  0  0  0  0  0
   -5.4909   -3.9348   -3.4638 H   0  0  0  0  0  0  0  0  0  0  0  0
   -2.4857   -4.3166   -3.0104 H   0  0  0  0  0  0  0  0  0  0  0  0
   -3.4185   -5.0044   -4.3468 H   0  0  0  0  0  0  0  0  0  0  0  0
   -3.7325   -5.5269   -2.6868 H   0  0  0  0  0  0  0  0  0  0  0  0
   -5.5046   -1.7089   -8.0006 H   0  0  0  0  0  0  0  0  0  0  0  0
    0.2648   -2.6970  -10.1221 H   0  0  0  0  0  0  0  0  0  0  0  0
   -3.8543   -4.3105  -12.5921 H   0  0  0  0  0  0  0  0  0  0  0  0
   -1.1339   -6.2613  -13.3657 H   0  0  0  0  0  0  0  0  0  0  0  0
   -1.3342   -5.1116  -15.5652 H   0  0  0  0  0  0  0  0  0  0  0  0
   -1.6070   -2.5627  -15.0515 H   0  0  0  0  0  0  0  0  0  0  0  0
    0.5738   -1.7318  -13.7824 H   0  0  0  0  0  0  0  0  0  0  0  0
    2.1912   -3.7701  -13.5141 H   0  0  0  0  0  0  0  0  0  0  0  0
    1.2114   -4.4504  -15.8781 H   0  0  0  0  0  0  0  0  0  0  0  0
    1.1356   -5.8774  -14.8144 H   0  0  0  0  0  0  0  0  0  0  0  0
    0.9858   -5.4545  -12.1323 H   0  0  0  0  0  0  0  0  0  0  0  0
  1  2  2  0  0  0  0
  2  3  1  0  0  0  0
  3  4  2  0  0  0  0
  3  5  1  0  0  0  0
  5  6  2  0  0  0  0
  6  7  1  0  0  0  0
  7  8  2  0  0  0  0
  8  9  1  0  0  0  0
  9 10  2  0  0  0  0
 10 11  1  0  0  0  0
 11 12  2  0  0  0  0
 12 13  1  0  0  0  0
 13 14  3  0  0  0  0
 12 15  1  0  0  0  0
 15 16  3  0  0  0  0
  8 17  1  0  0  0  0
 17 18  1  0  0  0  0
 18 19  1  0  0  0  0
 19 20  2  0  0  0  0
 20 21  1  0  0  0  0
 21 22  1  0  0  0  0
 21 23  1  0  0  0  0
  1 24  1  0  0  0  0
 24 25  2  0  0  0  0
 25 26  1  0  0  0  0
 26 27  1  0  0  0  0
 27 28  2  0  0  0  0
 28 29  1  0  0  0  0
 29 30  2  0  0  0  0
 30 31  1  0  0  0  0
 31 32  1  0  0  0  0
 30 33  1  0  0  0  0
 33 34  2  0  0  0  0
 26 35  1  0  0  0  0
 35 36  2  0  0  0  0
 36 37  1  0  0  0  0
 37 38  2  0  0  0  0
 38 39  1  0  0  0  0
 39 40  1  0  0  0  0
 38 41  1  0  0  0  0
 41 42  2  0  0  0  0
 25 43  1  0  0  0  0
 43 44  1  0  0  0  0
 44 45  1  0  0  0  0
 45 46  2  0  0  0  0
 46 47  1  0  0  0  0
 47 48  1  0  0  0  0
 48 49  2  0  0  0  0
 49 50  1  0  0  0  0
 50 51  2  0  0  0  0
 51 52  1  0  0  0  0
 52 53  1  0  0  0  0
 51 54  1  0  0  0  0
 54 55  2  0  0  0  0
 47 56  1  0  0  0  0
 56 57  2  0  0  0  0
 57 58  1  0  0  0  0
 58 59  2  0  0  0  0
 59 60  1  0  0  0  0
 60 61  1  0  0  0  0
 59 62  1  0  0  0  0
 62 63  2  0  0  0  0
 46 64  1  0  0  0  0
 64 65  1  0  0  0  0
 45 66  1  0  0  0  0
 66 67  2  0  0  0  0
 67 68  1  0  0  0  0
 68 69  1  0  0  0  0
 69 70  2  0  0  0  0
 70 71  1  0  0  0  0
 71 72  2  0  0  0  0
 72 73  1  0  0  0  0
 73 74  1  0  0  0  0
 72 75  1  0  0  0  0
 75 76  2  0  0  0  0
 68 77  1  0  0  0  0
 77 78  2  0  0  0  0
 78 79  1  0  0  0  0
 79 80  2  0  0  0  0
 80 81  1  0  0  0  0
 81 82  1  0  0  0  0
 80 83  1  0  0  0  0
 83 84  2  0  0  0  0
 67 85  1  0  0  0  0
 85 86  1  0  0  0  0
 86 87  1  0  0  0  0
 87 88  2  0  0  0  0
 88 89  1  0  0  0  0
 89 90  1  0  0  0  0
 90 91  2  0  0  0  0
 91 92  1  0  0  0  0
 92 93  2  0  0  0  0
 93 94  1  0  0  0  0
 94 95  1  0  0  0  0
 93 96  1  0  0  0  0
 96 97  2  0  0  0  0
 89 98  1  0  0  0  0
 98 99  2  0  0  0  0
 99100  1  0  0  0  0
100101  2  0  0  0  0
101102  1  0  0  0  0
102103  1  0  0  0  0
101104  1  0  0  0  0
104105  2  0  0  0  0
 88106  1  0  0  0  0
106107  1  0  0  0  0
 87108  1  0  0  0  0
108109  1  0  0  0  0
109110  2  0  0  0  0
110111  1  0  0  0  0
111112  1  0  0  0  0
112113  1  0  0  0  0
111114  1  0  0  0  0
114115  2  0  0  0  0
115116  1  0  0  0  0
116117  2  0  0  0  0
117118  1  0  0  0  0
118119  1  0  0  0  0
117120  1  0  0  0  0
116121  1  0  0  0  0
121122  2  0  0  0  0
122123  1  0  0  0  0
123124  2  0  0  0  0
123125  1  0  0  0  0
125126  2  0  0  0  0
126127  1  0  0  0  0
127128  2  0  0  0  0
128129  1  0  0  0  0
129130  2  0  0  0  0
130131  1  0  0  0  0
131132  2  0  0  0  0
132133  1  0  0  0  0
133134  3  0  0  0  0
132135  1  0  0  0  0
135136  3  0  0  0  0
128137  1  0  0  0  0
137138  1  0  0  0  0
138139  1  0  0  0  0
139140  2  0  0  0  0
140141  1  0  0  0  0
141142  1  0  0  0  0
141143  1  0  0  0  0
 11  2  1  0  0  0  0
 23 17  1  0  0  0  0
 65 24  1  0  0  0  0
107 66  1  0  0  0  0
118108  2  0  0  0  0
131122  1  0  0  0  0
143137  1  0  0  0  0
 10  5  1  0  0  0  0
 22 18  1  0  0  0  0
 34 27  1  0  0  0  0
 42 35  1  0  0  0  0
 64 43  2  0  0  0  0
 76 69  1  0  0  0  0
 84 77  1  0  0  0  0
106 85  2  0  0  0  0
115109  1  0  0  0  0
130125  1  0  0  0  0
142138  1  0  0  0  0
 23  7  1  0  0  0  0
 55 48  1  0  0  0  0
 63 56  1  0  0  0  0
 97 90  1  0  0  0  0
105 98  1  0  0  0  0
143127  1  0  0  0  0
  1144  1  0  0  0  0
  6145  1  0  0  0  0
  9146  1  0  0  0  0
 17147  1  0  0  0  0
 18148  1  0  0  0  0
 19149  1  0  0  0  0
 20150  1  0  0  0  0
 21151  1  0  0  0  0
 22152  1  0  0  0  0
 22153  1  0  0  0  0
 23154  1  0  0  0  0
 28155  1  0  0  0  0
 29156  1  0  0  0  0
 32157  1  0  0  0  0
 32158  1  0  0  0  0
 32159  1  0  0  0  0
 33160  1  0  0  0  0
 34161  1  0  0  0  0
 36162  1  0  0  0  0
 37163  1  0  0  0  0
 40164  1  0  0  0  0
 40165  1  0  0  0  0
 40166  1  0  0  0  0
 41167  1  0  0  0  0
 42168  1  0  0  0  0
 49169  1  0  0  0  0
 50170  1  0  0  0  0
 53171  1  0  0  0  0
 53172  1  0  0  0  0
 53173  1  0  0  0  0
 54174  1  0  0  0  0
 55175  1  0  0  0  0
 57176  1  0  0  0  0
 58177  1  0  0  0  0
 61178  1  0  0  0  0
 61179  1  0  0  0  0
 61180  1  0  0  0  0
 62181  1  0  0  0  0
 63182  1  0  0  0  0
 70183  1  0  0  0  0
 71184  1  0  0  0  0
 74185  1  0  0  0  0
 74186  1  0  0  0  0
 74187  1  0  0  0  0
 75188  1  0  0  0  0
 76189  1  0  0  0  0
 78190  1  0  0  0  0
 79191  1  0  0  0  0
 82192  1  0  0  0  0
 82193  1  0  0  0  0
 82194  1  0  0  0  0
 83195  1  0  0  0  0
 84196  1  0  0  0  0
 91197  1  0  0  0  0
 92198  1  0  0  0  0
 95199  1  0  0  0  0
 95200  1  0  0  0  0
 95201  1  0  0  0  0
 96202  1  0  0  0  0
 97203  1  0  0  0  0
 99204  1  0  0  0  0
100205  1  0  0  0  0
103206  1  0  0  0  0
103207  1  0  0  0  0
103208  1  0  0  0  0
104209  1  0  0  0  0
105210  1  0  0  0  0
112211  1  0  0  0  0
112212  1  0  0  0  0
113213  1  0  0  0  0
113214  1  0  0  0  0
113215  1  0  0  0  0
121216  1  0  0  0  0
126217  1  0  0  0  0
129218  1  0  0  0  0
137219  1  0  0  0  0
138220  1  0  0  0  0
139221  1  0  0  0  0
140222  1  0  0  0  0
141223  1  0  0  0  0
142224  1  0  0  0  0
142225  1  0  0  0  0
143226  1  0  0  0  0
M  END
