163

C          5.41100       -2.12770       -0.89610
C          5.77330       -3.30840       -0.29010
C          5.18150       -3.89790        0.91270
O          4.40490       -3.37820        1.69940
C          5.70590       -5.27230        1.00070
C          5.39300       -6.23460        1.95720
C          6.04380       -7.43210        1.78040
C          6.93960       -7.65850        0.72800
C          7.25220       -6.71940       -0.22690
C          6.60160       -5.49420       -0.06470
C          6.69300       -4.26820       -0.85550
C          7.52040       -4.08300       -1.93660
C          8.30360       -5.08980       -2.53470
N          8.94820       -5.84850       -3.10850
C          7.73910       -2.86290       -2.60220
N          8.01420       -1.91220       -3.18870
C          7.23240       -9.06870        1.17500
C          8.56760       -9.32620        1.91630
C          8.94870       -8.02670        2.58090
C          8.09780       -7.81580        3.57610
C          7.12500       -8.96870        3.60180
C          8.04330      -10.10800        3.13140
C          6.23080       -8.81750        2.34630
C          4.46390       -1.17090       -0.52980
C          4.07780       -0.08660       -1.35790
N          4.43390        0.08430       -2.67020
C          4.53840        1.39020       -3.18060
C          4.02500        1.70260       -4.43900
C          4.13000        2.98440       -4.92740
C          4.74680        3.98320       -4.17360
S          4.81170        5.58520       -4.90380
C          5.61170        6.61380       -3.64020
C          5.26870        3.67160       -2.92500
C          5.16640        2.38420       -2.43640
C          4.62700       -1.00250       -3.54150
C          3.81940       -2.13840       -3.44980
C          4.08210       -3.23610       -4.23560
C          5.13880       -3.21620       -5.14670
S          5.45260       -4.70350       -6.04160
C          7.16670       -4.49320       -6.60190
C          5.88100       -2.05460       -5.30590
C          5.63340       -0.95890       -4.50150
C          3.23000        0.79810       -0.66450
S          2.36020        2.23710       -1.10550
C          1.65110        2.30350        0.49320
C          2.01060        1.22980        1.29430
N          1.48520        0.93890        2.53600
C          0.15740        1.22930        2.86740
C         -0.16090        1.65660        4.15710
C         -1.45380        2.01320        4.47140
C         -2.46000        1.95350        3.50900
S         -4.06930        2.48690        4.00260
C         -5.15280        1.89770        2.67000
C         -2.15460        1.49910        2.23250
C         -0.86130        1.12970        1.92070
C          2.30450        0.21620        3.42240
C          3.62250        0.62010        3.62420
C          4.47760       -0.16160        4.37080
C          4.02450       -1.35490        4.91800
S          5.18270       -2.40120        5.75440
C          4.71120       -4.01170        5.04660
C          2.69060       -1.71810        4.78610
C          1.83210       -0.93590        4.04260
C          2.93860        0.38980        0.62980
S          3.67710       -1.11210        1.04830
C          0.70850        3.32710        0.86420
C         -0.41960        3.64690        0.08170
N         -0.79590        3.24610       -1.14170
N         -1.98790        3.75150       -1.29290
C         -2.77190        3.53800       -2.47590
C         -4.09060        2.86510       -2.11080
N         -2.46060        4.44050       -0.29430
C         -1.49440        4.40430        0.62670
C         -1.50370        4.90630        1.94780
C         -0.31650        4.69680        2.63720
C          0.73520        3.93300        2.11380
F          1.80830        3.74000        2.90510
F         -0.16820        5.15750        3.89040
C         -2.71900        5.42830        2.49650
C         -2.94370        6.02780        3.72290
C         -4.29240        6.26980        3.94460
Cl        -4.87720        7.00400        5.37440
C         -5.13780        5.83650        2.91230
S         -4.18520        5.15600        1.62420
C         -6.53450        5.95510        2.94820
C         -7.48100        5.44810        2.09710
C         -7.24520        4.53230        0.97460
O         -6.17740        4.20090        0.48380
C         -8.56880        4.04800        0.55170
C         -8.83710        3.09780       -0.43220
C        -10.17370        2.82770       -0.59840
C        -11.17130        3.45330        0.16140
C        -10.92050        4.39190        1.13440
C         -9.56580        4.68550        1.31700
C         -8.91630        5.60900        2.24580
C         -9.56280        6.50310        3.05760
C         -8.93960        7.45460        3.89430
N         -8.52450        8.27210        4.58570
C        -10.96530        6.63290        3.14060
N        -12.09630        6.79140        3.25810
C        -12.28140        2.70220       -0.53030
C        -13.08440        3.48200       -1.59280
C        -13.74500        2.39790       -2.41360
C        -12.80120        1.80580       -3.13420
C        -11.48670        2.47990       -2.81270
C        -11.97820        3.91190       -2.56500
C        -11.16930        2.00550       -1.37860
H          5.91440       -1.91100       -1.82930
H          4.69540       -6.02550        2.75310
H          7.93930       -6.91000       -1.03450
H          6.99630       -9.85520        0.46100
H          9.33600       -9.79830        1.31000
H          9.73770       -7.38550        2.23410
H          8.03570       -6.96350        4.22740
H          6.57930       -9.11670        4.53020
H          7.50530      -11.01640        2.86380
H          8.82600      -10.34240        3.85130
H          5.33800       -9.43810        2.39430
H          3.53920        0.93560       -5.02300
H          3.72910        3.23340       -5.89780
H          5.02010        6.60880       -2.72960
H          6.62330        6.26260       -3.45910
H          5.64030        7.61620       -4.05590
H          5.76390        4.41660       -2.32430
H          5.58620        2.14320       -1.47100
H          3.00770       -2.16250       -2.73820
H          3.47850       -4.12670       -4.15100
H          7.78160       -4.16410       -5.76960
H          7.21130       -3.79130       -7.42950
H          7.48950       -5.47480       -6.93410
H          6.67710       -1.99820       -6.02920
H          6.24350       -0.07490       -4.59930
H          0.61970        1.72560        4.89940
H         -1.69670        2.36070        5.46340
H         -4.97470        0.84060        2.49750
H         -6.16490        2.04480        3.03560
H         -5.00470        2.48460        1.76740
H         -2.91670        1.43240        1.47250
H         -0.63480        0.76990        0.92750
H          3.97030        1.53670        3.17200
H          5.50610        0.13080        4.51440
H          4.47270       -3.86130        3.99750
H          3.86850       -4.43360        5.58720
H          5.57730       -4.65760        5.15340
H          2.32440       -2.62350        5.24400
H          0.80030       -1.22760        3.91280
H         -2.17100        2.92360       -3.14790
H         -2.96670        4.50890       -2.94040
H         -4.71010        2.76670       -2.99750
H         -3.90960        1.87410       -1.70140
H         -4.61850        3.46140       -1.36980
H         -2.17350        6.27740        4.42830
H         -6.89490        6.49940        3.81370
H         -8.03670        2.63470       -0.98830
H        -11.69980        4.85490        1.71580
H        -12.90940        2.08730        0.11130
H        -13.73170        4.25820       -1.19430
H        -14.78670        2.14510       -2.34620
H        -12.89710        0.95950       -3.78890
H        -10.67930        2.34310       -3.52730
H        -12.37910        4.37100       -3.46700
H        -11.23020        4.56820       -2.12400
H        -11.05620        0.92550       -1.30290
