265

C         -6.19350        6.52210       -1.56100
C         -6.59440        6.63920       -2.86450
C         -7.95990        7.09420       -3.21830
O         -8.75900        7.64230       -2.49020
C         -8.14880        6.68160       -4.62690
C         -9.32590        6.71560       -5.37100
C         -9.19800        6.21270       -6.64490
C         -7.98790        5.72130       -7.15140
C         -6.81590        5.68830       -6.43420
C         -6.92970        6.18520       -5.13470
C         -5.91760        6.29190       -4.09000
C         -4.55800        6.31880       -4.29400
C         -3.92880        6.11720       -5.53600
N         -3.35510        5.95410       -6.51780
C         -3.64500        6.64620       -3.27880
N         -2.88200        6.94890       -2.47360
C         -8.59700        5.36070       -8.48270
C         -8.89150        3.86480       -8.71730
C         -9.89730        3.86430       -9.84500
C        -11.04580        4.32010       -9.36110
C        -10.83530        4.63630       -7.89770
C         -9.81820        3.54570       -7.53700
C         -9.94920        5.90050       -7.91660
C         -5.17980        5.64590       -1.12310
C         -4.25350        5.75920       -0.07840
N         -4.21590        6.75830        0.85460
C         -5.38570        7.37080        1.32760
C         -5.39170        8.73610        1.59670
C         -6.52920        9.35450        2.07700
C         -7.68480        8.61440        2.29590
S         -9.19060        9.28890        2.91280
C         -8.92210       11.08330        2.84930
C         -7.67820        7.24380        2.03850
C         -6.54350        6.62710        1.56210
C         -2.98940        7.09560        1.46090
C         -1.85020        7.29900        0.68300
C         -0.64810        7.58630        1.29100
C         -0.56070        7.67440        2.67930
S          1.03540        7.99960        3.35690
C          0.70020        8.35720        5.10530
C         -1.69970        7.49410        3.45240
C         -2.90660        7.21140        2.84400
C         -3.29470        4.71820       -0.15000
S         -1.88380        4.31830        0.76330
C         -1.63400        2.87640       -0.20730
C         -2.64210        2.67690       -1.13760
N         -2.82460        1.52950       -1.89420
C         -3.59960        1.60790       -3.06560
C         -4.61750        0.68850       -3.30420
C         -5.41750        0.79330       -4.42490
C         -5.20670        1.81940       -5.33630
S         -6.19040        2.08730       -6.77690
C         -7.37790        0.71340       -6.75980
C         -4.16890        2.72170       -5.11940
C         -3.38170        2.62710       -3.99270
C         -2.51180        0.27000       -1.36330
C         -2.58990        0.01420        0.00530
C         -2.20320       -1.20660        0.51970
C         -1.77150       -2.21590       -0.33010
S         -1.20970       -3.78670        0.26220
C         -2.23970       -4.03010        1.74550
C         -1.75280       -1.99250       -1.70310
C         -2.11210       -0.76090       -2.21340
C         -3.54210        3.76910       -1.12890
S         -4.93210        4.16760       -2.06140
C         -0.53060        2.02230        0.10900
C          0.39050        1.41930       -0.73310
N          0.58280        1.74950       -2.05890
C          1.36790        0.91210       -2.87490
C          1.11480       -0.45580       -2.93750
C          1.91300       -1.27850       -3.70080
C          2.97640       -0.75490       -4.42750
S          3.95460       -1.91070       -5.34220
C          5.21660       -0.89390       -6.15120
C          3.21750        0.61200       -4.39330
C          2.42190        1.43480       -3.62040
C          0.30300        3.03940       -2.55410
C         -0.09260        3.16860       -3.88610
C         -0.28820        4.41370       -4.44140
C         -0.10500        5.56620       -3.67750
S         -0.29550        7.09780       -4.52550
C         -0.08320        8.34850       -3.22750
C          0.25540        5.44090       -2.34230
C          0.46750        4.19090       -1.79090
C          1.17640        0.48260       -0.00560
S          2.30650       -0.75620       -0.41730
C          2.41350       -1.29120        1.26400
C          1.64560       -0.50360        2.09950
N          1.52340       -0.57970        3.48130
C          1.44090        0.64930        4.15850
C          2.18010        1.73300        3.68780
C          2.11580        2.96440        4.30240
C          1.31820        3.13420        5.42420
S          1.21330        4.67010        6.28830
C          2.74600        5.51530        5.79100
C          0.55540        2.06630        5.88840
C          0.60710        0.84000        5.25940
C          1.39970       -1.79990        4.14170
C          1.78540       -1.93170        5.47440
C          1.63570       -3.12970        6.14300
C          1.11720       -4.23590        5.48280
S          0.94160       -5.83500        6.21570
C          1.44180       -5.58170        7.94140
C          0.74150       -4.11610        4.14650
C          0.87090       -2.91420        3.48630
C          0.93400        0.47360        1.35570
S         -0.29550        1.59540        1.80130
C          3.03750       -2.57520        1.42660
C          3.98420       -3.09040        2.29970
N          4.59740       -2.40760        3.33400
C          5.12450       -3.15000        4.40920
C          4.40460       -4.21370        4.94420
C          4.93690       -4.98980        5.95360
C          6.20380       -4.71450        6.44410
S          6.96240       -5.69990        7.69890
C          6.29520       -7.34770        7.31210
C          6.91280       -3.62730        5.94240
C          6.38320       -2.85550        4.93170
C          4.82700       -1.02810        3.29360
C          5.09240       -0.35990        2.10190
C          5.34900        0.99950        2.09510
C          5.35250        1.71500        3.28370
S          5.63860        3.45540        3.40050
C          5.63740        4.01410        1.67330
C          5.09970        1.04890        4.48170
C          4.83570       -0.30030        4.48610
C          4.27100       -4.44720        1.98290
S          5.30820       -5.64890        2.67380
C          4.75050       -6.84080        1.49460
C          3.71690       -6.31760        0.67010
N          2.95800       -7.03890       -0.20040
C          2.60690       -8.38530        0.01560
C          2.35920       -8.87130        1.29650
C          2.00870      -10.19230        1.48890
C          1.88430      -11.04610        0.39880
S          1.45080      -12.74990        0.51880
C          1.26860      -13.03700        2.30270
C          2.10140      -10.55200       -0.88610
C          2.46030       -9.23700       -1.07870
C          2.28030       -6.36860       -1.24610
C          0.89310       -6.45260       -1.33580
C          0.23150       -5.82000       -2.36330
C          0.94570       -5.11270       -3.32720
S          0.00760       -4.34120       -4.61230
C          1.16370       -4.34410       -6.01400
C          2.32960       -5.02400       -3.23870
C          2.99160       -5.64550       -2.19720
C          3.52820       -4.94930        0.92040
S          2.51140       -3.74600        0.21960
C          5.31620       -8.09090        1.29600
C          6.28640       -8.76350        2.01660
C          6.83240       -8.36120        3.30610
O          6.58240       -7.35990        3.95920
C          7.73590       -9.45640        3.72400
C          8.50000       -9.55050        4.86710
C          9.26220      -10.70020        5.02780
Br        10.32650      -10.89310        6.59260
C          9.26400      -11.71150        4.07910
C          8.49550      -11.60160        2.92790
C          7.72140      -10.46640        2.74670
C          6.82910      -10.05060        1.66220
C          6.58790      -10.77680        0.51890
C          5.80720      -10.35510       -0.57410
N          5.20990      -10.08000       -1.51780
C          7.11850      -12.05880        0.27500
N          7.51020      -13.10890        0.02310
H         -6.75980        7.08430       -0.82730
H        -10.23910        7.10590       -4.94950
H         -5.89400        5.29190       -6.82600
H         -8.16300        5.85110       -9.35170
H         -8.00540        3.24860       -8.84210
H         -9.66330        3.59650      -10.85880
H        -11.96200        4.50860       -9.88970
H        -11.72710        4.71340       -7.28120
H        -10.24850        2.54740       -7.60660
H         -9.35130        3.67590       -6.56290
H        -10.42370        6.74490       -8.41320
H         -4.49680        9.31480        1.42220
H         -6.50180       10.41410        2.27230
H         -9.87510       11.53000        3.11500
H         -8.16540       11.37790        3.57080
H         -8.64530       11.37570        1.84080
H         -8.57530        6.67220        2.21870
H         -6.54370        5.56430        1.37100
H         -1.92680        7.22750       -0.39080
H          0.24130        7.74680        0.70070
H          1.64320        8.70050        5.51960
H          0.37730        7.45570        5.61880
H         -0.04250        9.14580        5.17900
H         -1.65950        7.55010        4.52780
H         -3.78970        7.06020        3.44720
H         -4.79550       -0.10750       -2.59590
H         -6.20780        0.07380       -4.56570
H         -6.84890       -0.23440       -6.79410
H         -8.01270        0.78190       -5.88120
H         -7.97860        0.83270       -7.65590
H         -3.98460        3.49920       -5.84360
H         -2.58860        3.33990       -3.82740
H         -2.95610        0.77660        0.67600
H         -2.24350       -1.36160        1.58670
H         -1.86530       -3.44180        2.57840
H         -3.26700       -3.76910        1.51220
H         -2.16930       -5.08630        1.98570
H         -1.43510       -2.78360       -2.36610
H         -2.07850       -0.58890       -3.27900
H          0.28890       -0.87350       -2.38760
H          1.71590       -2.33650       -3.71900
H          5.82860       -1.58600       -6.72170
H          5.82470       -0.39430       -5.40260
H          4.74430       -0.18060       -6.82030
H          4.02910        1.05180       -4.95060
H          2.62660        2.49490       -3.58910
H         -0.23190        2.28090       -4.48560
H         -0.58810        4.51190       -5.47370
H          0.91380        8.28240       -2.80200
H         -0.20900        9.30560       -3.72420
H         -0.85540        8.21720       -2.47600
H          0.39460        6.30940       -1.72020
H          0.79130        4.11950       -0.76320
H          2.80730        1.60720        2.81970
H          2.69450        3.77990        3.90150
H          3.57540        4.81660        5.83670
H          2.89330        6.31300        6.51240
H          2.64140        5.93410        4.79380
H         -0.08590        2.20940        6.74470
H         -0.00460        0.02640        5.61940
H          2.20910       -1.08570        5.99320
H          1.94770       -3.18910        7.17270
H          1.32570       -6.54750        8.42400
H          2.48030       -5.26610        7.98860
H          0.78770       -4.85380        8.41260
H          0.34310       -4.97720        3.63110
H          0.55420       -2.83430        2.45800
H          3.42550       -4.44020        4.55470
H          4.36270       -5.81890        6.33510
H          5.30180       -7.46770        7.73560
H          6.97170       -8.06340        7.76930
H          6.27960       -7.46360        6.23190
H          7.89510       -3.41270        6.33400
H          6.95400       -2.03400        4.52490
H          5.12550       -0.90580        1.17140
H          5.55470        1.48100        1.15220
H          5.69970        5.09710        1.71540
H          4.71160        3.71490        1.19010
H          6.50230        3.61690        1.14990
H          5.10400        1.60700        5.40530
H          4.63950       -0.80820        5.41770
H          2.44270       -8.21250        2.14840
H          1.82460      -10.53800        2.49310
H          0.46450      -12.42420        2.69970
H          2.20780      -12.83680        2.81010
H          1.01380      -14.08750        2.40250
H          2.00100      -11.21710       -1.72900
H          2.64280       -8.86480       -2.07400
H          0.34270       -7.01150       -0.59460
H         -0.84350       -5.86960       -2.43290
H          1.62060       -5.32540       -6.09300
H          1.91620       -3.56980       -5.89760
H          0.56040       -4.14070       -6.89300
H          2.90060       -4.47540       -3.97180
H          4.06700       -5.58040       -2.12480
H          4.93480       -8.61360        0.42860
H          8.50640       -8.75750        5.59860
H          9.86950      -12.59090        4.23630
H          8.51490      -12.39800        2.20250
