242

C          7.51070       -3.28830        2.49280
C          8.66650       -2.58130        2.56280
C          9.91230       -3.13340        1.96350
O         10.07590       -4.25580        1.53860
C         10.86110       -2.00540        1.91860
C         12.13350       -1.99880        1.35090
C         12.78180       -0.79100        1.44140
C         12.20640        0.33550        2.04550
C         10.95560        0.34320        2.61520
C         10.28240       -0.87910        2.54120
C          8.97310       -1.25800        3.06700
C          8.28940       -0.59600        4.05320
C          7.16300       -1.12490        4.71740
N          6.27830       -1.52350        5.33060
C          8.67890        0.64740        4.59040
N          8.94210        1.66580        5.05070
C         13.40920        1.19990        1.76360
C         13.31920        2.20530        0.58890
C         12.31830        1.63790       -0.38670
C         12.86560        0.57150       -0.95450
C         14.24690        0.39830       -0.37290
C         14.62940        1.86880       -0.14100
C         14.05250       -0.05580        1.09510
C          6.15970       -2.82550        2.59420
C          5.75250       -1.55330        2.21320
C          4.41110       -1.21580        2.13660
C          3.40020       -2.10880        2.47060
C          3.78490       -3.36570        3.01930
N          2.89800       -4.15220        3.64630
C          3.28510       -5.31960        4.10290
C          2.36080       -6.06230        4.96240
C          2.82590       -6.74390        6.08590
C          1.94220       -7.43970        6.88810
C          0.59150       -7.47070        6.57830
C          0.12300       -6.78750        5.46830
C          1.00040       -6.08040        4.66890
C          4.58710       -5.82190        3.77350
N          5.49430       -5.00200        3.30190
C          5.15180       -3.74760        2.98900
C          4.97080       -7.22830        3.89750
C          4.05490       -8.25570        3.67680
C          4.45720       -9.57430        3.76710
C          5.77130       -9.88470        4.07800
C          6.69070       -8.86840        4.28210
C          6.29660       -7.54820        4.18580
C          2.02530       -1.76490        2.23060
C          0.99210       -2.55350        1.73530
N          1.09220       -3.86860        1.31230
C          2.29710       -4.35020        0.77560
C          2.71220       -5.65540        1.04400
C          3.95060       -6.09010        0.63030
C          4.80470       -5.23410       -0.06360
S          6.41430       -5.84940       -0.42910
C          7.35450       -4.35570       -0.85450
C          4.35550       -3.96900       -0.42010
C          3.11010       -3.53550       -0.00840
C         -0.05830       -4.66250        1.26430
C         -0.25570       -5.56830        0.21970
C         -1.43510       -6.26870        0.11710
C         -2.44900       -6.09540        1.05860
S         -3.95120       -6.97430        0.77020
C         -5.05910       -6.38880        2.07960
C         -2.22930       -5.25840        2.14230
C         -1.04520       -4.55170        2.24350
C         -0.17810       -1.77800        1.54630
S         -1.75410       -2.12380        0.93430
C         -2.17170       -0.42970        0.97720
C         -1.16890        0.34900        1.53850
N         -1.28380        1.73370        1.75590
C         -1.91940        2.15680        2.92670
C         -2.58370        3.38220        2.99620
C         -3.23070        3.77330        4.15060
C         -3.23440        2.94530        5.26470
S         -4.02920        3.35870        6.78950
C         -4.13830        5.16960        6.72030
C         -2.60260        1.70800        5.19360
C         -1.95490        1.31770        4.04250
C         -0.76160        2.61050        0.79650
C         -0.76780        2.25870       -0.55180
C         -0.32240        3.13830       -1.52010
C          0.15630        4.38830       -1.15500
S          0.71730        5.61720       -2.29650
C          0.38560        4.90390       -3.93110
C          0.21720        4.72370        0.19720
C         -0.22910        3.84820        1.16110
C         -0.03060       -0.42680        1.83180
S          1.56060       -0.07320        2.39220
C         -3.35700        0.04500        0.35500
C         -4.09620       -0.56390       -0.65370
N         -3.81980       -1.81910       -1.21130
C         -2.58930       -1.99340       -1.85340
C         -1.93590       -3.22560       -1.85340
C         -0.66110       -3.34870       -2.36830
C         -0.00280       -2.23940       -2.87790
S          1.66840       -2.26510       -3.45550
C          2.11060       -4.02550       -3.44920
C         -0.66790       -1.01630       -2.92450
C         -1.94820       -0.89480       -2.43150
C         -4.77260       -2.82710       -1.07620
C         -4.89610       -3.84760       -2.01680
C         -5.81060       -4.86550       -1.83750
C         -6.63570       -4.87460       -0.72160
S         -7.81560       -6.15000       -0.38980
C         -7.18310       -7.55030       -1.35840
C         -6.55960       -3.82700        0.19100
C         -5.63690       -2.81880        0.02060
C         -5.09760        0.30240       -1.13800
S         -6.20700        0.25370       -2.45800
C         -6.50340        1.98660       -2.30400
C         -5.85400        2.53300       -1.20620
N         -6.00640        3.83460       -0.71420
C         -6.30660        3.96530        0.64600
C         -5.90800        5.08740        1.37430
C         -6.23010        5.20430        2.70820
C         -6.94100        4.20130        3.35760
S         -7.30440        4.43450        5.07180
C         -7.46580        2.73430        5.68570
C         -7.35890        3.09220        2.63600
C         -7.05250        2.98140        1.29550
C         -5.24840        4.87320       -1.32070
C         -5.87610        6.03770       -1.74060
C         -5.13920        7.07570       -2.28250
C         -3.75970        6.95640       -2.40730
S         -2.69790        8.18650       -3.07970
C         -3.80680        9.58460       -3.41690
C         -3.13190        5.78560       -1.98320
C         -3.86590        4.75240       -1.44400
C         -5.08240        1.55490       -0.54480
S         -3.90030        1.67360        0.70280
C         -7.37970        2.58200       -3.25230
C         -7.21700        3.71170       -3.98620
C         -8.39880        4.28640       -4.68820
O         -9.50450        3.79750       -4.74800
C         -7.94250        5.56620       -5.25590
C         -8.71240        6.50490       -5.93920
C         -8.01300        7.61680       -6.33940
C         -6.64920        7.79510       -6.06650
C         -5.87160        6.86060       -5.42370
C         -6.56160        5.71500       -5.01670
C         -6.06640        4.51870       -4.33440
C         -4.74980        4.14150       -4.29720
C         -4.22670        2.94380       -3.77200
N         -3.66950        2.00900       -3.40270
C         -3.69180        4.88080       -4.86780
N         -2.77190        5.39020       -5.32980
C         -6.61410        9.14840       -6.73420
C         -6.65280       10.41580       -5.84120
C         -7.37980       10.04220       -4.57300
C         -8.65830        9.86050       -4.87420
C         -8.82010       10.10980       -6.35270
C         -7.76020       11.20340       -6.56050
C         -8.12300        8.93080       -7.07180
H          7.61450       -4.34370        2.25820
H         12.54110       -2.88750        0.89470
H         10.52110        1.21640        3.07350
H         13.90410        1.62430        2.63490
H         13.16400        3.23780        0.88980
H         11.32480        2.02490       -0.51840
H         12.42060       -0.11090       -1.65500
H         14.93680       -0.21390       -0.94780
H         14.74880        2.42440       -1.07000
H         15.51590        1.99390        0.47910
H         14.96710       -0.45240        1.53150
H          6.48990       -0.83500        1.88370
H          4.13820       -0.24010        1.76090
H          3.87620       -6.71270        6.33610
H          2.30820       -7.96130        7.75990
H         -0.09360       -8.02310        7.20420
H         -0.92910       -6.80510        5.22300
H          0.64690       -5.54850        3.80050
H          3.03310       -8.02230        3.41610
H          3.74200      -10.36440        3.59080
H          6.07900      -10.91710        4.15290
H          7.71820       -9.10720        4.51300
H          7.00220       -6.74610        4.33780
H          2.06900       -6.31170        1.61150
H          4.28850       -7.08680        0.87020
H          7.11570       -3.56500       -0.14930
H          7.14200       -4.05080       -1.87560
H          8.40070       -4.62970       -0.75610
H          4.96410       -3.31010       -1.01840
H          2.77170       -2.54930       -0.29030
H          0.51760       -5.70620       -0.52070
H         -1.59540       -6.94760       -0.70690
H         -4.70400       -6.72940        3.04810
H         -5.13100       -5.30600        2.03460
H         -6.02880       -6.82820        1.86580
H         -2.97230       -5.13600        2.91340
H         -0.88840       -3.90020        3.09060
H         -2.61250        4.02860        2.13220
H         -3.74490        4.72050        4.16260
H         -4.93400        5.47120        6.04520
H         -4.37570        5.48980        7.72990
H         -3.17840        5.57500        6.41520
H         -2.61630        1.05930        6.05610
H         -1.46100        0.35850        4.01280
H         -1.13460        1.29060       -0.85660
H         -0.37140        2.83810       -2.55450
H          0.95690        3.98960       -4.06220
H          0.71920        5.65300       -4.64230
H         -0.67940        4.73290       -4.06320
H          0.62130        5.68380        0.47960
H         -0.16480        4.11660        2.20440
H         -2.40660       -4.08730       -1.40570
H         -0.18580       -4.31470       -2.33890
H          1.40060       -4.58570       -4.05030
H          3.09730       -4.08020       -3.89860
H          2.15550       -4.39920       -2.42960
H         -0.16680       -0.16090       -3.35100
H         -2.45850        0.05390       -2.49760
H         -4.27600       -3.83900       -2.90000
H         -5.87700       -5.64360       -2.58070
H         -6.11960       -7.66430       -1.16910
H         -7.72230       -8.42340       -1.00410
H         -7.38500       -7.40070       -2.41520
H         -7.22370       -3.82160        1.04260
H         -5.56690       -2.02540        0.75060
H         -5.33350        5.86670        0.89840
H         -5.92540        6.07980        3.26190
H         -6.65020        2.13590        5.29200
H         -7.38620        2.79970        6.76610
H         -8.43220        2.32160        5.40970
H         -7.93700        2.31270        3.10660
H         -7.40490        2.12170        0.74500
H         -6.94650        6.13190       -1.63210
H         -5.65450        7.96630       -2.60340
H         -3.16700       10.37700       -3.79300
H         -4.28800        9.90750       -2.49820
H         -4.53460        9.30760       -4.17310
H         -2.06000        5.70970       -2.06580
H         -3.36490        3.85910       -1.10160
H         -8.32060        2.06220       -3.41850
H         -9.76110        6.33270       -6.12390
H         -4.81650        6.98890       -5.24420
H         -5.91350        9.25300       -7.56050
H         -5.69300       10.91200       -5.71860
H         -6.90280        9.91030       -3.61940
H         -9.45330        9.53580       -4.22880
H         -9.82940       10.31850       -6.69670
H         -8.01020       12.13460       -6.05440
H         -7.54070       11.40160       -7.60850
H         -8.39870        8.86100       -8.12210
