226

C          0.60520       -9.33200        7.32490
C         -0.32180       -9.98450        8.08880
C         -1.64260       -9.46940        8.49300
O         -2.09590       -8.35270        8.32310
C         -2.33950      -10.59150        9.14180
C         -3.64290      -10.58980        9.63510
C         -4.03670      -11.78940       10.17620
C         -3.19550      -12.90960       10.22300
C         -1.90880      -12.92440        9.73940
C         -1.48620      -11.71210        9.18410
C         -0.21190      -11.35220        8.56600
C          0.88730      -12.16820        8.48700
C          2.13060      -11.82900        7.91280
N          3.17400      -11.64090        7.46970
C          0.94260      -13.48480        8.99140
N          1.06500      -14.55990        9.37570
C         -4.23890      -13.76440       10.89850
C         -4.06440      -13.99720       12.41420
C         -5.43710      -14.43410       12.87260
C         -6.23390      -13.37410       12.82820
C         -5.41330      -12.20270       12.33860
C         -4.05250      -12.55990       12.95040
C         -5.17660      -12.51550       10.84590
C          0.59070       -8.02710        6.79350
C          1.55560       -7.57550        5.91130
C          1.35070       -6.26580        5.45270
C          2.09300       -5.53540        4.48650
C          3.19770       -6.11870        3.76880
C          3.34100       -7.41300        3.34430
C          4.54700       -7.72470        2.69420
C          5.43190       -6.68810        2.58020
S          7.03000       -6.86720        1.90400
C          7.55910       -5.12930        1.71960
C          6.89010       -4.44270        0.54810
Se         4.72620       -5.10530        3.32160
C          1.65110       -4.24150        4.24330
C          0.56390       -3.62960        4.91460
C         -0.15380       -4.34380        5.89920
C         -1.25560       -3.75530        6.62020
C         -1.40410       -2.44560        7.00820
C         -2.61880       -2.11780        7.62760
C         -3.49770       -3.16170        7.75080
S         -5.09690       -3.03020        8.43620
C         -5.70080       -4.72960        8.12180
C         -7.12690       -4.88170        8.60720
Se        -2.76250       -4.76390        7.11500
C          0.23430       -5.66910        6.09420
S         -0.59190       -6.78290        7.13890
C          0.25250       -2.36180        4.37250
C          1.02240       -2.01100        3.30020
S          2.26860       -3.20890        2.97980
C          0.90900       -0.89800        2.42410
C         -0.14820       -0.01920        2.19830
N         -1.41650       -0.05500        2.75200
C         -2.12030        1.16680        2.81790
C         -1.52510        2.28710        3.39590
C         -2.19360        3.49200        3.41850
C         -3.46760        3.59940        2.86720
S         -4.23860        5.18510        2.91500
C         -6.00380        4.78530        2.74250
C         -4.06610        2.48340        2.29580
C         -3.39750        1.27670        2.27610
C         -2.10830       -1.24100        3.01300
C         -3.09780       -1.25320        4.00000
C         -3.75960       -2.41940        4.31220
C         -3.43810       -3.60450        3.65910
S         -4.30400       -5.07550        4.12830
C         -3.00950       -6.33930        3.95570
C         -2.47920       -3.59600        2.65690
C         -1.82250       -2.42490        2.33480
C          0.21920        0.95480        1.23350
S         -0.60480        2.28990        0.50790
C          0.77200        2.60590       -0.54500
C          1.79320        1.67970       -0.36870
N          2.93940        1.54890       -1.13820
C          4.07630        1.02220       -0.51140
C          4.42080        1.46450        0.76600
C          5.45170        0.86230        1.45550
C          6.14640       -0.18990        0.87810
S          7.38850       -1.05910        1.81070
C          6.34510       -1.64620        3.18280
C          5.86290       -0.58030       -0.42310
C          4.83440        0.02210       -1.11740
C          2.89590        1.72240       -2.52610
C          4.01190        2.21450       -3.20520
C          3.92330        2.53620       -4.54190
C          2.72030        2.37780       -5.22080
S          2.62220        2.91580       -6.90200
C          0.93740        3.59600       -6.98310
C          1.63390        1.80400       -4.57470
C          1.72490        1.47070       -3.23970
C          1.47440        0.77880        0.67840
S          2.28500       -0.57690        1.37400
C          0.64210        3.69320       -1.45270
C         -0.53990        4.26320       -1.84270
C         -0.39840        5.25960       -2.83210
C         -1.44250        5.91950       -3.52220
C         -2.81340        5.85940       -3.06560
C         -3.95180        5.84500       -3.82220
C         -5.16440        5.95730       -3.11300
C         -5.03290        6.09180       -1.76320
S         -6.36540        6.22540       -0.63810
C         -5.72880        7.56080        0.44120
C         -5.58810        8.86830       -0.30860
Se        -3.22630        6.00470       -1.22580
C         -1.05980        6.66290       -4.63110
C          0.29690        6.83200       -5.01730
C          1.35130        6.20080       -4.30710
C          2.70870        6.22090       -4.77580
C          3.84840        6.04910       -4.02600
C          5.04930        5.95790       -4.73660
C          4.91880        6.03200       -6.09960
S          6.28380        6.01540       -7.18380
C          5.47800        6.08970       -8.82150
C          4.93730        4.74480       -9.26150
Se         3.14010        6.26710       -6.61620
C          0.95440        5.44360       -3.20520
S          2.00910        4.47120       -2.21610
C          0.42400        7.65600       -6.14420
C         -0.77260        8.04480       -6.69870
S         -2.13040        7.50650       -5.71830
C         -0.98670        8.75230       -7.89620
C         -0.14260        8.74610       -8.97850
C          0.90380        7.74220       -9.26030
O          1.36400        6.87640       -8.53000
C          1.24960        7.91000      -10.68080
C          2.14740        7.13300      -11.40960
C          2.27090        7.50910      -12.72500
C          1.55490        8.58120      -13.27500
C          0.66820        9.35730      -12.56560
C          0.52450        8.98780      -11.22590
C         -0.31650        9.55020      -10.17320
C         -1.07300       10.68870      -10.27240
C         -1.79700       11.26820       -9.20840
N         -2.39150       11.81190       -8.39000
C         -1.19730       11.46280      -11.44430
N         -1.34440       12.13510      -12.36320
C          2.15430        8.38200      -14.64430
C          1.27900        7.69420      -15.72110
C          0.29840        6.81800      -14.98180
C          0.97500        5.80320      -14.46080
C          2.42570        5.97480      -14.83870
C          2.26970        6.63020      -16.22010
C          2.95190        7.18780      -14.03170
H          1.48880       -9.89100        7.04070
H         -4.25680       -9.70480        9.57280
H         -1.28030      -13.79820        9.77630
H         -4.53610      -14.66290       10.36120
H         -3.23050      -14.63990       12.68260
H         -5.69220      -15.44750       13.12080
H         -7.28770      -13.32510       13.03150
H         -5.80860      -11.21050       12.53900
H         -4.06920      -12.52660       14.03840
H         -3.22690      -11.95480       12.58050
H         -6.09970      -12.58100       10.27270
H          2.39230       -8.18850        5.62810
H          2.55090       -8.13820        3.44200
H          4.76610       -8.70600        2.31050
H          7.33800       -4.62520        2.66550
H          8.63880       -5.17940        1.58470
H          5.80890       -4.40530        0.68810
H          7.26480       -3.42480        0.47020
H          7.10420       -4.97280       -0.37680
H         -0.61680       -1.71970        6.89260
H         -2.85190       -1.12510        7.97250
H         -5.62390       -4.90190        7.04370
H         -5.02470       -5.41150        8.64770
H         -7.47570       -5.89320        8.41180
H         -7.18920       -4.68940        9.67590
H         -7.77990       -4.18140        8.09160
H         -0.54000       -1.74670        4.74790
H         -0.53670        2.20430        3.82350
H         -1.73700        4.36250        3.86330
H         -6.24480        4.55990        1.70760
H         -6.54130        5.67430        3.05670
H         -6.24810        3.95590        3.39860
H         -5.04260        2.54860        1.84380
H         -3.85900        0.41270        1.82140
H         -3.33000       -0.34430        4.53450
H         -4.51820       -2.42480        5.07940
H         -2.95590       -6.69170        2.92960
H         -2.05920       -5.91730        4.27330
H         -3.29050       -7.15550        4.61510
H         -2.24020       -4.49900        2.11680
H         -1.09160       -2.42800        1.54060
H          3.86480        2.27370        1.21650
H          5.70950        1.20490        2.44600
H          5.95880       -0.80350        3.74680
H          6.98170       -2.25480        3.81690
H          5.52850       -2.24390        2.78130
H          6.43100       -1.37700       -0.87740
H          4.58660       -0.30500       -2.11610
H          4.93020        2.38790       -2.66530
H          4.77310        2.95110       -5.06100
H          0.66660        3.98360       -6.00510
H          0.96780        4.41000       -7.70410
H          0.23630        2.83170       -7.30650
H          0.71320        1.62060       -5.10700
H          0.87290        1.03410       -2.73990
H         -1.48920        3.89760       -1.48850
H         -3.93060        5.74100       -4.89360
H         -6.12550        5.96370       -3.59740
H         -4.77370        7.21940        0.85000
H         -6.45730        7.64020        1.24650
H         -5.24410        9.64600        0.36990
H         -6.54340        9.16950       -0.73290
H         -4.86530        8.77110       -1.11800
H          3.83060        6.04100       -2.94920
H          6.00580        5.83700       -4.25770
H          6.25950        6.44400       -9.49410
H          4.68530        6.84280       -8.75760
H          4.12910        4.42100       -8.60640
H          5.72220        3.99230       -9.23990
H          4.55280        4.81580      -10.27700
H          1.36080        8.04100       -6.50300
H         -1.93100        9.27610       -7.97980
H          2.67510        6.31700      -10.94110
H          0.12110       10.17480      -13.00460
H          2.71960        9.22140      -15.04380
H          0.85650        8.37100      -16.45860
H         -0.74470        7.04920      -14.86970
H          0.61020        5.01710      -13.82590
H          3.04690        5.08520      -14.77390
H          3.19690        7.04870      -16.60920
H          1.83120        5.95940      -16.95720
H          4.03860        7.24680      -14.03220
