
  xtb     02122221293D
 energy: -393.582524699903 gnorm: 0.000796174574 xtb: 6.4.1 (unknown)
221243  0     0  0            999 V2000
   -8.2698    7.0614   -1.4408 C   0  0  0  0  0  0  0  0  0  0  0  0
   -8.7888    7.6047   -0.3060 C   0  0  0  0  0  0  0  0  0  0  0  0
   -8.3794    7.2549    1.0806 C   0  0  0  0  0  0  0  0  0  0  0  0
   -7.4289    6.5874    1.4331 O   0  0  0  0  0  0  0  0  0  0  0  0
   -9.4334    7.7913    1.9541 C   0  0  0  0  0  0  0  0  0  0  0  0
   -9.5026    7.6652    3.3405 C   0  0  0  0  0  0  0  0  0  0  0  0
  -10.6092    8.2564    3.8995 C   0  0  0  0  0  0  0  0  0  0  0  0
  -11.5808    8.9204    3.1364 C   0  0  0  0  0  0  0  0  0  0  0  0
  -11.5221    9.0561    1.7698 C   0  0  0  0  0  0  0  0  0  0  0  0
  -10.4012    8.4643    1.1797 C   0  0  0  0  0  0  0  0  0  0  0  0
   -9.9990    8.4054   -0.2205 C   0  0  0  0  0  0  0  0  0  0  0  0
  -10.6015    9.0590   -1.2617 C   0  0  0  0  0  0  0  0  0  0  0  0
  -10.1203    9.0679   -2.5889 C   0  0  0  0  0  0  0  0  0  0  0  0
   -9.7799    9.1363   -3.6832 N   0  0  0  0  0  0  0  0  0  0  0  0
  -11.7648    9.8484   -1.1427 C   0  0  0  0  0  0  0  0  0  0  0  0
  -12.7106   10.4983   -1.1174 N   0  0  0  0  0  0  0  0  0  0  0  0
  -12.4185    9.2505    4.3454 C   0  0  0  0  0  0  0  0  0  0  0  0
  -13.6871    8.3979    4.5977 C   0  0  0  0  0  0  0  0  0  0  0  0
  -13.4348    7.0526    3.9631 C   0  0  0  0  0  0  0  0  0  0  0  0
  -12.5141    6.4296    4.6865 C   0  0  0  0  0  0  0  0  0  0  0  0
  -12.1267    7.3425    5.8237 C   0  0  0  0  0  0  0  0  0  0  0  0
  -13.4707    8.0437    6.0777 C   0  0  0  0  0  0  0  0  0  0  0  0
  -11.3344    8.5160    5.1956 C   0  0  0  0  0  0  0  0  0  0  0  0
   -7.0471    6.3441   -1.5344 C   0  0  0  0  0  0  0  0  0  0  0  0
   -5.8910    6.4991   -0.8192 C   0  0  0  0  0  0  0  0  0  0  0  0
   -4.8778    5.5761   -1.1620 C   0  0  0  0  0  0  0  0  0  0  0  0
   -3.5984    5.4508   -0.5876 C   0  0  0  0  0  0  0  0  0  0  0  0
   -3.1759    6.2929    0.5378 C   0  0  0  0  0  0  0  0  0  0  0  0
   -4.0031    6.4669    1.6450 C   0  0  0  0  0  0  0  0  0  0  0  0
   -3.5661    7.2481    2.6958 C   0  0  0  0  0  0  0  0  0  0  0  0
   -4.3794    7.4032    3.7591 F   0  0  0  0  0  0  0  0  0  0  0  0
   -2.3275    7.8821    2.7178 C   0  0  0  0  0  0  0  0  0  0  0  0
   -1.8982    8.7568    3.8581 C   0  0  0  0  0  0  0  0  0  0  0  0
   -2.4024   10.1877    3.6556 C   0  0  0  0  0  0  0  0  0  0  0  0
   -1.5357    7.6828    1.5931 C   0  0  0  0  0  0  0  0  0  0  0  0
   -0.3237    8.2738    1.5434 F   0  0  0  0  0  0  0  0  0  0  0  0
   -1.9268    6.9067    0.5208 C   0  0  0  0  0  0  0  0  0  0  0  0
   -2.7848    4.4523   -1.0975 C   0  0  0  0  0  0  0  0  0  0  0  0
   -3.2073    3.5647   -2.1194 C   0  0  0  0  0  0  0  0  0  0  0  0
   -4.4829    3.6867   -2.6955 C   0  0  0  0  0  0  0  0  0  0  0  0
   -4.9302    2.7118   -3.6987 C   0  0  0  0  0  0  0  0  0  0  0  0
   -6.1420    2.0454   -3.5490 C   0  0  0  0  0  0  0  0  0  0  0  0
   -6.4856    1.0424   -4.4337 C   0  0  0  0  0  0  0  0  0  0  0  0
   -5.6803    0.6553   -5.4982 C   0  0  0  0  0  0  0  0  0  0  0  0
   -6.0210   -0.4962   -6.3956 C   0  0  0  0  0  0  0  0  0  0  0  0
   -5.3136   -1.7646   -5.9116 C   0  0  0  0  0  0  0  0  0  0  0  0
   -4.4986    1.3751   -5.6400 C   0  0  0  0  0  0  0  0  0  0  0  0
   -4.1149    2.3823   -4.7786 C   0  0  0  0  0  0  0  0  0  0  0  0
   -3.6761    1.0652   -6.6638 F   0  0  0  0  0  0  0  0  0  0  0  0
   -7.6541    0.3992   -4.2387 F   0  0  0  0  0  0  0  0  0  0  0  0
   -5.2894    4.6996   -2.2022 C   0  0  0  0  0  0  0  0  0  0  0  0
   -6.9045    5.0703   -2.7402 S   0  0  0  0  0  0  0  0  0  0  0  0
   -2.2627    2.5359   -2.3411 C   0  0  0  0  0  0  0  0  0  0  0  0
   -1.1653    2.6111   -1.5370 C   0  0  0  0  0  0  0  0  0  0  0  0
   -1.2029    4.0188   -0.4975 S   0  0  0  0  0  0  0  0  0  0  0  0
   -0.1841    1.5747   -1.4225 C   0  0  0  0  0  0  0  0  0  0  0  0
   -0.4962    0.2232   -1.4046 C   0  0  0  0  0  0  0  0  0  0  0  0
   -1.7848   -0.2939   -1.3506 N   0  0  0  0  0  0  0  0  0  0  0  0
   -2.1326   -1.3507   -2.1987 C   0  0  0  0  0  0  0  0  0  0  0  0
   -1.5266   -1.4817   -3.4452 C   0  0  0  0  0  0  0  0  0  0  0  0
   -1.8692   -2.5163   -4.2945 C   0  0  0  0  0  0  0  0  0  0  0  0
   -2.8368   -3.4352   -3.9143 C   0  0  0  0  0  0  0  0  0  0  0  0
   -3.3863   -4.7767   -4.9203 S   0  0  0  0  0  0  0  0  0  0  0  0
   -2.4109   -4.6135   -6.4425 C   0  0  0  0  0  0  0  0  0  0  0  0
   -3.4405   -3.3120   -2.6629 C   0  0  0  0  0  0  0  0  0  0  0  0
   -3.0907   -2.2891   -1.8121 C   0  0  0  0  0  0  0  0  0  0  0  0
   -2.7365    0.3637   -0.5584 C   0  0  0  0  0  0  0  0  0  0  0  0
   -2.3435    0.9381    0.6530 C   0  0  0  0  0  0  0  0  0  0  0  0
   -3.2134    1.7283    1.3655 C   0  0  0  0  0  0  0  0  0  0  0  0
   -4.5119    1.9434    0.9054 C   0  0  0  0  0  0  0  0  0  0  0  0
   -5.4954    3.0649    1.8447 S   0  0  0  0  0  0  0  0  0  0  0  0
   -6.9553    3.3488    0.8077 C   0  0  0  0  0  0  0  0  0  0  0  0
   -4.9384    1.2910   -0.2423 C   0  0  0  0  0  0  0  0  0  0  0  0
   -4.0549    0.5213   -0.9758 C   0  0  0  0  0  0  0  0  0  0  0  0
    0.6776   -0.5621   -1.3397 C   0  0  0  0  0  0  0  0  0  0  0  0
    0.9748   -2.2579   -1.2366 S   0  0  0  0  0  0  0  0  0  0  0  0
    2.7038   -1.9597   -1.1164 C   0  0  0  0  0  0  0  0  0  0  0  0
    3.0185   -0.6066   -1.1069 C   0  0  0  0  0  0  0  0  0  0  0  0
    4.2711   -0.0608   -0.8968 N   0  0  0  0  0  0  0  0  0  0  0  0
    4.6008    1.1450   -1.5357 C   0  0  0  0  0  0  0  0  0  0  0  0
    4.1963    1.3827   -2.8497 C   0  0  0  0  0  0  0  0  0  0  0  0
    4.5075    2.5734   -3.4661 C   0  0  0  0  0  0  0  0  0  0  0  0
    5.2376    3.5503   -2.7914 C   0  0  0  0  0  0  0  0  0  0  0  0
    5.5754    5.0313   -3.6872 S   0  0  0  0  0  0  0  0  0  0  0  0
    6.4885    6.0638   -2.5066 C   0  0  0  0  0  0  0  0  0  0  0  0
    5.6539    3.3110   -1.4880 C   0  0  0  0  0  0  0  0  0  0  0  0
    5.3338    2.1201   -0.8666 C   0  0  0  0  0  0  0  0  0  0  0  0
    5.2021   -0.6941   -0.0628 C   0  0  0  0  0  0  0  0  0  0  0  0
    4.7907   -1.3588    1.0894 C   0  0  0  0  0  0  0  0  0  0  0  0
    5.6799   -2.1175    1.8237 C   0  0  0  0  0  0  0  0  0  0  0  0
    7.0081   -2.2081    1.4281 C   0  0  0  0  0  0  0  0  0  0  0  0
    8.1954   -3.2643    2.1962 S   0  0  0  0  0  0  0  0  0  0  0  0
    7.1933   -4.2882    3.3063 C   0  0  0  0  0  0  0  0  0  0  0  0
    7.4471   -1.4489    0.3452 C   0  0  0  0  0  0  0  0  0  0  0  0
    6.5561   -0.7107   -0.3997 C   0  0  0  0  0  0  0  0  0  0  0  0
    1.8467    0.1779   -1.2628 C   0  0  0  0  0  0  0  0  0  0  0  0
    1.5328    1.8808   -1.2677 S   0  0  0  0  0  0  0  0  0  0  0  0
    3.5926   -3.0645   -0.9331 C   0  0  0  0  0  0  0  0  0  0  0  0
    4.8635   -3.2161   -1.4039 C   0  0  0  0  0  0  0  0  0  0  0  0
    5.5389   -4.3420   -0.8720 C   0  0  0  0  0  0  0  0  0  0  0  0
    6.8853   -4.7037   -1.0500 C   0  0  0  0  0  0  0  0  0  0  0  0
    7.7518   -3.9755   -1.9838 C   0  0  0  0  0  0  0  0  0  0  0  0
    7.3201   -3.7065   -3.2794 C   0  0  0  0  0  0  0  0  0  0  0  0
    8.1426   -3.0094   -4.1415 C   0  0  0  0  0  0  0  0  0  0  0  0
    7.6926   -2.7651   -5.3899 F   0  0  0  0  0  0  0  0  0  0  0  0
    9.4064   -2.5516   -3.7870 C   0  0  0  0  0  0  0  0  0  0  0  0
   10.2667   -1.7532   -4.7203 C   0  0  0  0  0  0  0  0  0  0  0  0
   10.0573   -0.2543   -4.4908 C   0  0  0  0  0  0  0  0  0  0  0  0
    9.8027   -2.8482   -2.4872 C   0  0  0  0  0  0  0  0  0  0  0  0
   11.0156   -2.4279   -2.0757 F   0  0  0  0  0  0  0  0  0  0  0  0
    9.0166   -3.5461   -1.5930 C   0  0  0  0  0  0  0  0  0  0  0  0
    7.3537   -5.7592   -0.2814 C   0  0  0  0  0  0  0  0  0  0  0  0
    6.5285   -6.4899    0.6159 C   0  0  0  0  0  0  0  0  0  0  0  0
    5.1671   -6.1564    0.7613 C   0  0  0  0  0  0  0  0  0  0  0  0
    4.2841   -6.8825    1.6842 C   0  0  0  0  0  0  0  0  0  0  0  0
    4.6686   -7.1565    2.9950 C   0  0  0  0  0  0  0  0  0  0  0  0
    3.7959   -7.8255    3.8308 C   0  0  0  0  0  0  0  0  0  0  0  0
    2.5354   -8.2601    3.4365 C   0  0  0  0  0  0  0  0  0  0  0  0
    1.5907   -8.9508    4.3738 C   0  0  0  0  0  0  0  0  0  0  0  0
    0.6695   -7.9323    5.0501 C   0  0  0  0  0  0  0  0  0  0  0  0
    2.1915   -7.9680    2.1210 C   0  0  0  0  0  0  0  0  0  0  0  0
    3.0268   -7.2971    1.2515 C   0  0  0  0  0  0  0  0  0  0  0  0
    0.9876   -8.3683    1.6669 F   0  0  0  0  0  0  0  0  0  0  0  0
    4.1940   -8.0722    5.0954 F   0  0  0  0  0  0  0  0  0  0  0  0
    4.7133   -5.0802    0.0169 C   0  0  0  0  0  0  0  0  0  0  0  0
    3.1230   -4.3759    0.1325 S   0  0  0  0  0  0  0  0  0  0  0  0
    7.2446   -7.4995    1.2900 C   0  0  0  0  0  0  0  0  0  0  0  0
    8.5755   -7.5415    0.9649 C   0  0  0  0  0  0  0  0  0  0  0  0
    8.9801   -6.3752   -0.2839 S   0  0  0  0  0  0  0  0  0  0  0  0
    9.5925   -8.3746    1.4926 C   0  0  0  0  0  0  0  0  0  0  0  0
    9.6401   -8.8565    2.7689 C   0  0  0  0  0  0  0  0  0  0  0  0
    8.8711   -8.3164    3.9174 C   0  0  0  0  0  0  0  0  0  0  0  0
    7.9633   -7.5113    3.9096 O   0  0  0  0  0  0  0  0  0  0  0  0
    9.5127   -8.8864    5.1194 C   0  0  0  0  0  0  0  0  0  0  0  0
    9.1904   -8.6571    6.4414 C   0  0  0  0  0  0  0  0  0  0  0  0
    9.9441   -9.3124    7.4084 C   0  0  0  0  0  0  0  0  0  0  0  0
    9.5833   -9.0689    9.0739 Cl  0  0  0  0  0  0  0  0  0  0  0  0
   10.9871  -10.1623    7.0537 C   0  0  0  0  0  0  0  0  0  0  0  0
   11.3023  -10.3874    5.7227 C   0  0  0  0  0  0  0  0  0  0  0  0
   10.5585   -9.7468    4.7417 C   0  0  0  0  0  0  0  0  0  0  0  0
   10.6342   -9.7814    3.2862 C   0  0  0  0  0  0  0  0  0  0  0  0
   11.4367  -10.6031    2.5415 C   0  0  0  0  0  0  0  0  0  0  0  0
   11.4069  -10.6931    1.1329 C   0  0  0  0  0  0  0  0  0  0  0  0
   11.4240  -10.8337   -0.0062 N   0  0  0  0  0  0  0  0  0  0  0  0
   12.3736  -11.5020    3.0937 C   0  0  0  0  0  0  0  0  0  0  0  0
   13.1535  -12.2469    3.4863 N   0  0  0  0  0  0  0  0  0  0  0  0
   -8.8452    7.1178   -2.3570 H   0  0  0  0  0  0  0  0  0  0  0  0
   -8.7313    7.1465    3.8884 H   0  0  0  0  0  0  0  0  0  0  0  0
  -12.2778    9.5672    1.1969 H   0  0  0  0  0  0  0  0  0  0  0  0
  -12.5864   10.3088    4.5343 H   0  0  0  0  0  0  0  0  0  0  0  0
  -14.6196    8.8874    4.3303 H   0  0  0  0  0  0  0  0  0  0  0  0
  -13.8967    6.7255    3.0500 H   0  0  0  0  0  0  0  0  0  0  0  0
  -12.0523    5.4780    4.4987 H   0  0  0  0  0  0  0  0  0  0  0  0
  -11.6387    6.8715    6.6728 H   0  0  0  0  0  0  0  0  0  0  0  0
  -14.2317    7.3674    6.4641 H   0  0  0  0  0  0  0  0  0  0  0  0
  -13.3901    8.9155    6.7254 H   0  0  0  0  0  0  0  0  0  0  0  0
  -10.7903    9.0952    5.9389 H   0  0  0  0  0  0  0  0  0  0  0  0
   -5.7539    7.2813   -0.0978 H   0  0  0  0  0  0  0  0  0  0  0  0
   -4.9674    5.9889    1.7112 H   0  0  0  0  0  0  0  0  0  0  0  0
   -0.8091    8.7610    3.9216 H   0  0  0  0  0  0  0  0  0  0  0  0
   -2.3039    8.3595    4.7900 H   0  0  0  0  0  0  0  0  0  0  0  0
   -2.0022   10.6043    2.7338 H   0  0  0  0  0  0  0  0  0  0  0  0
   -2.0870   10.8151    4.4852 H   0  0  0  0  0  0  0  0  0  0  0  0
   -3.4886   10.2029    3.6022 H   0  0  0  0  0  0  0  0  0  0  0  0
   -1.2656    6.8062   -0.3251 H   0  0  0  0  0  0  0  0  0  0  0  0
   -6.8128    2.2770   -2.7380 H   0  0  0  0  0  0  0  0  0  0  0  0
   -7.0999   -0.6549   -6.3944 H   0  0  0  0  0  0  0  0  0  0  0  0
   -5.6996   -0.2691   -7.4138 H   0  0  0  0  0  0  0  0  0  0  0  0
   -5.5483   -2.5989   -6.5671 H   0  0  0  0  0  0  0  0  0  0  0  0
   -4.2358   -1.6160   -5.9036 H   0  0  0  0  0  0  0  0  0  0  0  0
   -5.6303   -2.0201   -4.9026 H   0  0  0  0  0  0  0  0  0  0  0  0
   -3.1917    2.9099   -4.9582 H   0  0  0  0  0  0  0  0  0  0  0  0
   -2.4023    1.7429   -3.0522 H   0  0  0  0  0  0  0  0  0  0  0  0
   -0.7863   -0.7601   -3.7597 H   0  0  0  0  0  0  0  0  0  0  0  0
   -1.3799   -2.5829   -5.2528 H   0  0  0  0  0  0  0  0  0  0  0  0
   -1.3530   -4.7162   -6.2195 H   0  0  0  0  0  0  0  0  0  0  0  0
   -2.7322   -5.4292   -7.0825 H   0  0  0  0  0  0  0  0  0  0  0  0
   -2.6249   -3.6632   -6.9228 H   0  0  0  0  0  0  0  0  0  0  0  0
   -4.1835   -4.0365   -2.3673 H   0  0  0  0  0  0  0  0  0  0  0  0
   -3.5540   -2.2079   -0.8406 H   0  0  0  0  0  0  0  0  0  0  0  0
   -1.3376    0.7857    1.0145 H   0  0  0  0  0  0  0  0  0  0  0  0
   -2.8965    2.2020    2.2818 H   0  0  0  0  0  0  0  0  0  0  0  0
   -6.6411    3.5265   -0.2150 H   0  0  0  0  0  0  0  0  0  0  0  0
   -7.6365    2.5050    0.8717 H   0  0  0  0  0  0  0  0  0  0  0  0
   -7.4237    4.2440    1.2065 H   0  0  0  0  0  0  0  0  0  0  0  0
   -5.9539    1.3871   -0.5895 H   0  0  0  0  0  0  0  0  0  0  0  0
   -4.3888    0.0609   -1.8940 H   0  0  0  0  0  0  0  0  0  0  0  0
    3.6426    0.6253   -3.3847 H   0  0  0  0  0  0  0  0  0  0  0  0
    4.1952    2.7601   -4.4819 H   0  0  0  0  0  0  0  0  0  0  0  0
    7.4215    5.5803   -2.2318 H   0  0  0  0  0  0  0  0  0  0  0  0
    6.6961    6.9911   -3.0315 H   0  0  0  0  0  0  0  0  0  0  0  0
    5.8725    6.2640   -1.6349 H   0  0  0  0  0  0  0  0  0  0  0  0
    6.2204    4.0456   -0.9395 H   0  0  0  0  0  0  0  0  0  0  0  0
    5.6513    1.9427    0.1502 H   0  0  0  0  0  0  0  0  0  0  0  0
    3.7578   -1.3023    1.4000 H   0  0  0  0  0  0  0  0  0  0  0  0
    5.3210   -2.6333    2.6997 H   0  0  0  0  0  0  0  0  0  0  0  0
    6.9138   -3.7208    4.1895 H   0  0  0  0  0  0  0  0  0  0  0  0
    7.8136   -5.1337    3.5894 H   0  0  0  0  0  0  0  0  0  0  0  0
    6.3181   -4.6408    2.7700 H   0  0  0  0  0  0  0  0  0  0  0  0
    8.4911   -1.4680    0.0770 H   0  0  0  0  0  0  0  0  0  0  0  0
    6.8991   -0.1652   -1.2663 H   0  0  0  0  0  0  0  0  0  0  0  0
    5.3173   -2.5230   -2.0870 H   0  0  0  0  0  0  0  0  0  0  0  0
    6.3617   -4.0551   -3.6302 H   0  0  0  0  0  0  0  0  0  0  0  0
   10.0130   -2.0026   -5.7515 H   0  0  0  0  0  0  0  0  0  0  0  0
   11.3149   -2.0016   -4.5457 H   0  0  0  0  0  0  0  0  0  0  0  0
    9.0179    0.0163   -4.6644 H   0  0  0  0  0  0  0  0  0  0  0  0
   10.6824    0.3171   -5.1717 H   0  0  0  0  0  0  0  0  0  0  0  0
   10.3218    0.0135   -3.4702 H   0  0  0  0  0  0  0  0  0  0  0  0
    9.3832   -3.7239   -0.5949 H   0  0  0  0  0  0  0  0  0  0  0  0
    5.6274   -6.8510    3.3834 H   0  0  0  0  0  0  0  0  0  0  0  0
    2.1604   -9.4871    5.1340 H   0  0  0  0  0  0  0  0  0  0  0  0
    0.9870   -9.6676    3.8146 H   0  0  0  0  0  0  0  0  0  0  0  0
    1.2530   -7.2130    5.6206 H   0  0  0  0  0  0  0  0  0  0  0  0
    0.0861   -7.3957    4.3054 H   0  0  0  0  0  0  0  0  0  0  0  0
   -0.0133   -8.4398    5.7263 H   0  0  0  0  0  0  0  0  0  0  0  0
    2.6993   -7.1229    0.2392 H   0  0  0  0  0  0  0  0  0  0  0  0
    6.7882   -8.2045    1.9576 H   0  0  0  0  0  0  0  0  0  0  0  0
   10.4219   -8.5814    0.8272 H   0  0  0  0  0  0  0  0  0  0  0  0
    8.3788   -7.9974    6.7049 H   0  0  0  0  0  0  0  0  0  0  0  0
   11.5566  -10.6512    7.8285 H   0  0  0  0  0  0  0  0  0  0  0  0
   12.1177  -11.0463    5.4731 H   0  0  0  0  0  0  0  0  0  0  0  0
  1  2  2  0  0  0  0
  2  3  1  0  0  0  0
  3  4  2  0  0  0  0
  3  5  1  0  0  0  0
  5  6  2  0  0  0  0
  6  7  1  0  0  0  0
  7  8  2  0  0  0  0
  8  9  1  0  0  0  0
  9 10  2  0  0  0  0
 10 11  1  0  0  0  0
 11 12  2  0  0  0  0
 12 13  1  0  0  0  0
 13 14  3  0  0  0  0
 12 15  1  0  0  0  0
 15 16  3  0  0  0  0
  8 17  1  0  0  0  0
 17 18  1  0  0  0  0
 18 19  1  0  0  0  0
 19 20  2  0  0  0  0
 20 21  1  0  0  0  0
 21 22  1  0  0  0  0
 21 23  1  0  0  0  0
  1 24  1  0  0  0  0
 24 25  2  0  0  0  0
 25 26  1  0  0  0  0
 26 27  2  0  0  0  0
 27 28  1  0  0  0  0
 28 29  2  0  0  0  0
 29 30  1  0  0  0  0
 30 31  1  0  0  0  0
 30 32  2  0  0  0  0
 32 33  1  0  0  0  0
 33 34  1  0  0  0  0
 32 35  1  0  0  0  0
 35 36  1  0  0  0  0
 35 37  2  0  0  0  0
 27 38  1  0  0  0  0
 38 39  2  0  0  0  0
 39 40  1  0  0  0  0
 40 41  1  0  0  0  0
 41 42  2  0  0  0  0
 42 43  1  0  0  0  0
 43 44  2  0  0  0  0
 44 45  1  0  0  0  0
 45 46  1  0  0  0  0
 44 47  1  0  0  0  0
 47 48  2  0  0  0  0
 47 49  1  0  0  0  0
 43 50  1  0  0  0  0
 40 51  2  0  0  0  0
 51 52  1  0  0  0  0
 39 53  1  0  0  0  0
 53 54  2  0  0  0  0
 54 55  1  0  0  0  0
 54 56  1  0  0  0  0
 56 57  2  0  0  0  0
 57 58  1  0  0  0  0
 58 59  1  0  0  0  0
 59 60  2  0  0  0  0
 60 61  1  0  0  0  0
 61 62  2  0  0  0  0
 62 63  1  0  0  0  0
 63 64  1  0  0  0  0
 62 65  1  0  0  0  0
 65 66  2  0  0  0  0
 58 67  1  0  0  0  0
 67 68  2  0  0  0  0
 68 69  1  0  0  0  0
 69 70  2  0  0  0  0
 70 71  1  0  0  0  0
 71 72  1  0  0  0  0
 70 73  1  0  0  0  0
 73 74  2  0  0  0  0
 57 75  1  0  0  0  0
 75 76  1  0  0  0  0
 76 77  1  0  0  0  0
 77 78  2  0  0  0  0
 78 79  1  0  0  0  0
 79 80  1  0  0  0  0
 80 81  2  0  0  0  0
 81 82  1  0  0  0  0
 82 83  2  0  0  0  0
 83 84  1  0  0  0  0
 84 85  1  0  0  0  0
 83 86  1  0  0  0  0
 86 87  2  0  0  0  0
 79 88  1  0  0  0  0
 88 89  2  0  0  0  0
 89 90  1  0  0  0  0
 90 91  2  0  0  0  0
 91 92  1  0  0  0  0
 92 93  1  0  0  0  0
 91 94  1  0  0  0  0
 94 95  2  0  0  0  0
 78 96  1  0  0  0  0
 96 97  1  0  0  0  0
 77 98  1  0  0  0  0
 98 99  2  0  0  0  0
 99100  1  0  0  0  0
100101  2  0  0  0  0
101102  1  0  0  0  0
102103  2  0  0  0  0
103104  1  0  0  0  0
104105  1  0  0  0  0
104106  2  0  0  0  0
106107  1  0  0  0  0
107108  1  0  0  0  0
106109  1  0  0  0  0
109110  1  0  0  0  0
109111  2  0  0  0  0
101112  1  0  0  0  0
112113  2  0  0  0  0
113114  1  0  0  0  0
114115  1  0  0  0  0
115116  2  0  0  0  0
116117  1  0  0  0  0
117118  2  0  0  0  0
118119  1  0  0  0  0
119120  1  0  0  0  0
118121  1  0  0  0  0
121122  2  0  0  0  0
121123  1  0  0  0  0
117124  1  0  0  0  0
114125  2  0  0  0  0
125126  1  0  0  0  0
113127  1  0  0  0  0
127128  2  0  0  0  0
128129  1  0  0  0  0
128130  1  0  0  0  0
130131  2  0  0  0  0
131132  1  0  0  0  0
132133  2  0  0  0  0
132134  1  0  0  0  0
134135  2  0  0  0  0
135136  1  0  0  0  0
136137  1  0  0  0  0
136138  2  0  0  0  0
138139  1  0  0  0  0
139140  2  0  0  0  0
140141  1  0  0  0  0
141142  2  0  0  0  0
142143  1  0  0  0  0
143144  3  0  0  0  0
142145  1  0  0  0  0
145146  3  0  0  0  0
 11  2  1  0  0  0  0
 23 17  1  0  0  0  0
 52 24  1  0  0  0  0
 97 56  1  0  0  0  0
126 98  1  0  0  0  0
141131  1  0  0  0  0
 10  5  1  0  0  0  0
 22 18  1  0  0  0  0
 51 26  1  0  0  0  0
 66 59  1  0  0  0  0
 74 67  1  0  0  0  0
 96 75  2  0  0  0  0
125100  1  0  0  0  0
140134  1  0  0  0  0
 23  7  1  0  0  0  0
 37 28  1  0  0  0  0
 55 38  1  0  0  0  0
 87 80  1  0  0  0  0
 95 88  1  0  0  0  0
111102  1  0  0  0  0
129112  1  0  0  0  0
 48 41  1  0  0  0  0
122115  1  0  0  0  0
  1147  1  0  0  0  0
  6148  1  0  0  0  0
  9149  1  0  0  0  0
 17150  1  0  0  0  0
 18151  1  0  0  0  0
 19152  1  0  0  0  0
 20153  1  0  0  0  0
 21154  1  0  0  0  0
 22155  1  0  0  0  0
 22156  1  0  0  0  0
 23157  1  0  0  0  0
 25158  1  0  0  0  0
 29159  1  0  0  0  0
 33160  1  0  0  0  0
 33161  1  0  0  0  0
 34162  1  0  0  0  0
 34163  1  0  0  0  0
 34164  1  0  0  0  0
 37165  1  0  0  0  0
 42166  1  0  0  0  0
 45167  1  0  0  0  0
 45168  1  0  0  0  0
 46169  1  0  0  0  0
 46170  1  0  0  0  0
 46171  1  0  0  0  0
 48172  1  0  0  0  0
 53173  1  0  0  0  0
 60174  1  0  0  0  0
 61175  1  0  0  0  0
 64176  1  0  0  0  0
 64177  1  0  0  0  0
 64178  1  0  0  0  0
 65179  1  0  0  0  0
 66180  1  0  0  0  0
 68181  1  0  0  0  0
 69182  1  0  0  0  0
 72183  1  0  0  0  0
 72184  1  0  0  0  0
 72185  1  0  0  0  0
 73186  1  0  0  0  0
 74187  1  0  0  0  0
 81188  1  0  0  0  0
 82189  1  0  0  0  0
 85190  1  0  0  0  0
 85191  1  0  0  0  0
 85192  1  0  0  0  0
 86193  1  0  0  0  0
 87194  1  0  0  0  0
 89195  1  0  0  0  0
 90196  1  0  0  0  0
 93197  1  0  0  0  0
 93198  1  0  0  0  0
 93199  1  0  0  0  0
 94200  1  0  0  0  0
 95201  1  0  0  0  0
 99202  1  0  0  0  0
103203  1  0  0  0  0
107204  1  0  0  0  0
107205  1  0  0  0  0
108206  1  0  0  0  0
108207  1  0  0  0  0
108208  1  0  0  0  0
111209  1  0  0  0  0
116210  1  0  0  0  0
119211  1  0  0  0  0
119212  1  0  0  0  0
120213  1  0  0  0  0
120214  1  0  0  0  0
120215  1  0  0  0  0
122216  1  0  0  0  0
127217  1  0  0  0  0
130218  1  0  0  0  0
135219  1  0  0  0  0
138220  1  0  0  0  0
139221  1  0  0  0  0
M  END
