220

C         -1.57530       -2.34320        7.25920
C         -2.45510       -3.35880        7.58030
C         -3.75980       -3.55920        6.93240
O         -4.24550       -2.90670        6.02490
C         -4.42070       -4.64310        7.69020
C         -5.67080       -5.20100        7.44230
C         -6.00560       -6.22620        8.29570
C         -5.16360       -6.65980        9.32620
C         -3.92930       -6.11210        9.58690
C         -3.57050       -5.07200        8.72750
C         -2.33750       -4.29100        8.66290
C         -1.19430       -4.52790        9.39010
C          0.03630       -3.88930        9.14560
N          1.08660       -3.45710        8.96690
C         -1.07120       -5.49710       10.40120
N         -0.88160       -6.27330       11.22780
C         -6.13630       -7.71710        9.78680
C         -6.95690       -7.39660       11.05380
C         -8.12370       -8.35490       10.98180
C         -8.92170       -7.94620       10.00370
C         -8.30760       -6.70460        9.39840
C         -7.65960       -6.09460       10.64790
C         -7.07570       -7.23510        8.63500
C         -1.48570       -1.71300        6.02050
C         -1.88840       -2.12870        4.73240
N         -2.25220       -3.38080        4.34320
C         -1.95170       -4.55080        5.04830
C         -0.73730       -4.72970        5.70660
C         -0.49180       -5.87380        6.43890
C         -1.46360       -6.86390        6.53280
S         -1.31000       -8.31750        7.51060
C          0.33800       -8.18810        8.25790
C         -2.65630       -6.71630        5.82420
C         -2.89550       -5.58040        5.08610
C         -2.87380       -3.53310        3.07880
C         -4.07670       -2.88950        2.79780
C         -4.60480       -2.95610        1.52680
C         -3.93780       -3.65690        0.52300
S         -4.64130       -3.57720       -1.09160
C         -3.49630       -4.53910       -2.12100
C         -2.77830       -4.35780        0.82630
C         -2.25360       -4.30160        2.10220
C         -1.72690       -1.07250        3.80380
S         -2.04610       -0.92740        2.11320
C         -1.32180        0.67630        2.07680
C         -0.81720        1.05530        3.33150
N         -0.09690        2.18980        3.68190
C         -0.28150        2.66670        4.99760
C         -1.56880        2.86150        5.49890
C         -1.75240        3.31730        6.78450
C         -0.65700        3.58880        7.60240
S         -1.01740        4.17270        9.22530
C          0.60500        4.25040       10.03540
C          0.62660        3.39390        7.10800
C          0.80930        2.93360        5.81950
C          0.90780        2.75390        2.89590
C          1.28330        4.08870        3.08850
C          2.22880        4.67210        2.28130
C          2.83750        3.94730        1.25630
S          3.99830        4.81530        0.24820
C          4.17630        3.74250       -1.20310
C          2.50700        2.61380        1.08890
C          1.54750        2.02820        1.89590
C         -1.10230        0.05970        4.30100
S         -0.72450       -0.11110        5.98230
C         -1.20770        1.25220        0.77470
C         -0.81270        2.56540        0.46450
O         -1.02720        3.59390        1.34230
C         -2.33540        3.67440        1.89960
C         -2.43540        4.98480        2.66040
C         -0.17100        2.84890       -0.77180
O          0.54970        3.97560       -1.01270
C          0.13740        5.26270       -0.57690
C         -1.20930        5.65690       -1.16500
C         -0.09620        1.88820       -1.79270
C         -0.95310        0.76910       -1.64960
C         -1.46100        0.42800       -0.35680
N         -2.22130       -0.65750       -0.38830
S         -2.35210       -1.16230       -1.91560
N         -1.40640       -0.04720       -2.59440
C          0.73570        2.05640       -2.94200
C          1.21520        1.08020       -3.81350
N          1.11960       -0.29670       -3.69120
C          1.03270       -1.01470       -4.90370
C          1.93960       -2.02830       -5.19360
C          1.92370       -2.64250       -6.42880
C          1.00530       -2.24410       -7.39090
S          0.97600       -2.94110       -9.01210
C          2.72270       -3.38280       -9.26150
C          0.06030       -1.27110       -7.08400
C          0.07310       -0.66010       -5.84890
C          1.19130       -0.97940       -2.48390
C          1.82590       -0.43930       -1.36710
C          1.82090       -1.10200       -0.15410
C          1.17030       -2.31980       -0.02530
S          1.03250       -3.22640        1.48510
C          1.61970       -2.07010        2.75310
C          0.58710       -2.89610       -1.15200
C          0.60520       -2.24490       -2.36310
C          1.91300        1.66880       -4.89640
S          2.65750        1.03010       -6.31320
C          3.17030        2.65060       -6.80620
C          2.79400        3.62460       -5.84470
N          3.05550        4.97000       -5.89290
C          4.29300        5.50590       -6.28360
C          5.48780        4.84100       -6.02000
C          6.69480        5.41660       -6.35660
C          6.72790        6.66530       -6.96820
S          8.21970        7.47920       -7.42190
C          9.37800        6.09620       -7.63020
C          5.53380        7.33560       -7.22370
C          4.32840        6.76340       -6.88700
C          2.14500        5.84260       -5.26040
C          0.78660        5.77970       -5.56930
C         -0.10320        6.62380       -4.94430
C          0.34240        7.54660       -3.99850
S         -0.89000        8.57070       -3.26180
C          0.03400        9.58760       -2.07560
C          1.69550        7.61470       -3.69420
C          2.58780        6.76960       -4.32340
C          2.02930        3.04880       -4.81580
S          1.27720        3.66850       -3.37950
C          3.75440        2.92350       -8.04410
C          3.79900        2.13470       -9.17630
C          3.21420        0.79990       -9.36030
O          2.98530       -0.04760       -8.51520
C          3.02000        0.64380      -10.81580
C          2.36380       -0.35430      -11.50860
C          2.30880       -0.27070      -12.89190
C          2.91210        0.79630      -13.54590
Cl         2.83110        0.88010      -15.26560
C          3.57790        1.80820      -12.85880
C          3.62320        1.72610      -11.47920
C          4.23240        2.59720      -10.47340
C          5.15200        3.58400      -10.73070
C          5.49980        4.02340      -12.02300
N          5.80750        4.43530      -13.04980
C          5.97270        4.16140       -9.74690
N          6.75250        4.58630       -9.01730
H         -0.91350       -1.96690        8.03030
H         -6.28860       -4.84330        6.63320
H         -3.29020       -6.45390       10.38410
H         -5.76800       -8.74100        9.76450
H         -6.38470       -7.39060       11.97750
H         -8.21670       -9.23410       11.59220
H         -9.81440       -8.41590        9.63380
H         -8.96690       -6.06780        8.81420
H         -6.98000       -5.27100       10.43720
H         -8.39850       -5.77880       11.38280
H         -7.33410       -7.93920        7.84590
H          0.02390       -3.96590        5.65580
H          0.45600       -5.97150        6.94320
H          0.45700       -9.09030        8.84980
H          1.09630       -8.15240        7.48140
H          0.38950       -7.31970        8.90790
H         -3.39850       -7.49740        5.88150
H         -3.82690       -5.46280        4.55370
H         -4.57240       -2.34220        3.58460
H         -5.52730       -2.44970        1.28930
H         -3.49500       -5.57840       -1.80570
H         -2.50130       -4.10590       -2.07210
H         -3.88040       -4.46380       -3.13360
H         -2.26180       -4.93720        0.07930
H         -1.33690       -4.82340        2.33200
H         -2.42640        2.64400        4.88030
H         -2.74780        3.46710        7.17290
H          0.40440        4.54840       11.05980
H          1.23040        4.99550        9.55230
H          1.07110        3.26980       10.02080
H          1.49430        3.58590        7.71760
H          1.80970        2.77120        5.44680
H          0.80510        4.67510        3.85790
H          2.49940        5.70770        2.42140
H          3.18810        3.49180       -1.57590
H          4.71370        4.32840       -1.94260
H          4.75050        2.85510       -0.95080
H          2.97900        2.01500        0.32690
H          1.29940        0.98930        1.74810
H         -3.07860        3.63810        1.09040
H         -2.52770        2.82840        2.56800
H         -1.70970        5.00200        3.46850
H         -3.43270        5.08870        3.07800
H         -2.23830        5.82080        1.99490
H          0.12730        5.30970        0.51510
H          0.92690        5.91560       -0.96050
H         -1.17440        5.58830       -2.25000
H         -1.45210        6.67790       -0.88600
H         -1.99370        4.99880       -0.79940
H          2.67160       -2.31770       -4.45370
H          2.64440       -3.41610       -6.63920
H          3.33290       -2.54520       -8.93630
H          2.96810       -4.29090       -8.71860
H          2.84680       -3.55320      -10.32670
H         -0.66720       -0.98750       -7.82890
H         -0.64380        0.10970       -5.60560
H          2.32990        0.51160       -1.45010
H          2.34050       -0.66140        0.68140
H          1.44330       -2.56170        3.70490
H          1.04590       -1.14980        2.70490
H          2.68240       -1.88060        2.63220
H          0.11040       -3.85990       -1.05610
H          0.13150       -2.69130       -3.22460
H          5.46540        3.87280       -5.54140
H          7.60680        4.88820       -6.13390
H          9.73380        5.74950       -6.66400
H         10.20930        6.48720       -8.20830
H          8.87250        5.30860       -8.17940
H          5.56500        8.30360       -7.69920
H          3.40260        7.28000       -7.09350
H          0.43870        5.06530       -6.30050
H         -1.15500        6.58310       -5.18330
H          0.51470        8.95310       -1.33660
H          0.75750       10.20560       -2.59880
H         -0.70670       10.21900       -1.59460
H          2.07060        8.31470       -2.96580
H          3.63830        6.82240       -4.07960
H          4.11510        3.94080       -8.16280
H          1.89090       -1.16730      -10.98000
H          1.79820       -1.02730      -13.46610
H          4.02680        2.62390      -13.40160
