
  xtb     02092203273D
 energy: -322.092801945272 gnorm: 0.000232023888 xtb: 6.4.1 (unknown)
188207  0     0  0            999 V2000
   -1.0155   -8.3336   -2.8022 C   0  0  0  0  0  0  0  0  0  0  0  0
   -1.0298   -8.4860   -4.1431 C   0  0  0  0  0  0  0  0  0  0  0  0
   -0.8743   -7.3602   -5.1088 C   0  0  0  0  0  0  0  0  0  0  0  0
   -0.8234   -6.1741   -4.8657 O   0  0  0  0  0  0  0  0  0  0  0  0
   -0.6552   -7.9932   -6.4198 C   0  0  0  0  0  0  0  0  0  0  0  0
   -0.3989   -7.3402   -7.6252 C   0  0  0  0  0  0  0  0  0  0  0  0
   -0.1825   -8.1852   -8.6860 C   0  0  0  0  0  0  0  0  0  0  0  0
   -0.2147   -9.5820   -8.5612 C   0  0  0  0  0  0  0  0  0  0  0  0
   -0.4685  -10.2399   -7.3822 C   0  0  0  0  0  0  0  0  0  0  0  0
   -0.6926   -9.3972   -6.2872 C   0  0  0  0  0  0  0  0  0  0  0  0
   -0.9789   -9.7298   -4.8978 C   0  0  0  0  0  0  0  0  0  0  0  0
   -1.2477  -10.9747   -4.4007 C   0  0  0  0  0  0  0  0  0  0  0  0
   -1.6216  -11.2367   -3.0641 C   0  0  0  0  0  0  0  0  0  0  0  0
   -1.9540  -11.5246   -2.0041 N   0  0  0  0  0  0  0  0  0  0  0  0
   -1.2310  -12.1616   -5.1642 C   0  0  0  0  0  0  0  0  0  0  0  0
   -1.2306  -13.1612   -5.7282 N   0  0  0  0  0  0  0  0  0  0  0  0
    0.1139   -9.7993  -10.0169 C   0  0  0  0  0  0  0  0  0  0  0  0
    1.5681  -10.2036  -10.3404 C   0  0  0  0  0  0  0  0  0  0  0  0
    1.7159   -9.8773  -11.8091 C   0  0  0  0  0  0  0  0  0  0  0  0
    1.7449   -8.5560  -11.9279 C   0  0  0  0  0  0  0  0  0  0  0  0
    1.6173   -7.9670  -10.5416 C   0  0  0  0  0  0  0  0  0  0  0  0
    2.3585   -9.0383   -9.7311 C   0  0  0  0  0  0  0  0  0  0  0  0
    0.1480   -8.2434  -10.1564 C   0  0  0  0  0  0  0  0  0  0  0  0
   -1.2174   -7.0561   -2.1547 C   0  0  0  0  0  0  0  0  0  0  0  0
   -0.3910   -6.6037   -1.1491 C   0  0  0  0  0  0  0  0  0  0  0  0
    0.6474   -7.3591   -0.7606 F   0  0  0  0  0  0  0  0  0  0  0  0
   -0.5366   -5.3326   -0.5720 C   0  0  0  0  0  0  0  0  0  0  0  0
    0.4063   -4.9616    0.3009 F   0  0  0  0  0  0  0  0  0  0  0  0
   -1.5622   -4.4835   -0.9410 C   0  0  0  0  0  0  0  0  0  0  0  0
   -2.5083   -4.9768   -1.8824 C   0  0  0  0  0  0  0  0  0  0  0  0
   -3.5986   -4.2479   -2.1692 N   0  0  0  0  0  0  0  0  0  0  0  0
   -4.4377   -4.6678   -3.0808 C   0  0  0  0  0  0  0  0  0  0  0  0
   -5.5853   -3.7553   -3.3853 C   0  0  0  0  0  0  0  0  0  0  0  0
   -5.1925   -2.8011   -4.5170 C   0  0  0  0  0  0  0  0  0  0  0  0
   -4.2291   -5.9152   -3.7366 C   0  0  0  0  0  0  0  0  0  0  0  0
   -3.2099   -6.6717   -3.4161 N   0  0  0  0  0  0  0  0  0  0  0  0
   -2.3223   -6.2331   -2.5114 C   0  0  0  0  0  0  0  0  0  0  0  0
   -5.1837   -6.4906   -4.7382 C   0  0  0  0  0  0  0  0  0  0  0  0
   -6.2567   -7.3197   -4.0271 C   0  0  0  0  0  0  0  0  0  0  0  0
   -1.6361   -3.1065   -0.4533 C   0  0  0  0  0  0  0  0  0  0  0  0
   -1.8864   -2.0411   -1.2955 C   0  0  0  0  0  0  0  0  0  0  0  0
   -2.0779   -2.2137   -2.6147 F   0  0  0  0  0  0  0  0  0  0  0  0
   -1.8149   -0.7178   -0.8469 C   0  0  0  0  0  0  0  0  0  0  0  0
   -2.0360    0.2582   -1.7461 F   0  0  0  0  0  0  0  0  0  0  0  0
   -1.3992   -0.3923    0.4283 C   0  0  0  0  0  0  0  0  0  0  0  0
   -1.1789   -1.4633    1.3283 C   0  0  0  0  0  0  0  0  0  0  0  0
   -0.7879   -1.1973    2.5951 N   0  0  0  0  0  0  0  0  0  0  0  0
   -0.6485   -2.2056    3.4167 C   0  0  0  0  0  0  0  0  0  0  0  0
   -0.2395   -2.0169    4.6643 O   0  0  0  0  0  0  0  0  0  0  0  0
    0.0991   -0.6827    5.0364 C   0  0  0  0  0  0  0  0  0  0  0  0
    0.4145   -0.6647    6.5204 C   0  0  0  0  0  0  0  0  0  0  0  0
   -0.9689   -3.5536    3.0275 C   0  0  0  0  0  0  0  0  0  0  0  0
   -1.3054   -3.8105    1.8015 N   0  0  0  0  0  0  0  0  0  0  0  0
   -1.3676   -2.8008    0.9053 C   0  0  0  0  0  0  0  0  0  0  0  0
   -0.9270   -4.6562    4.0237 C   0  0  0  0  0  0  0  0  0  0  0  0
   -1.1060    0.9864    0.7923 C   0  0  0  0  0  0  0  0  0  0  0  0
    0.1320    1.4900    1.1465 C   0  0  0  0  0  0  0  0  0  0  0  0
    1.3039    0.7614    1.2080 N   0  0  0  0  0  0  0  0  0  0  0  0
    2.3128    1.1295    2.1034 C   0  0  0  0  0  0  0  0  0  0  0  0
    3.6544    0.9599    1.7556 C   0  0  0  0  0  0  0  0  0  0  0  0
    4.6518    1.3135    2.6351 C   0  0  0  0  0  0  0  0  0  0  0  0
    4.3396    1.8433    3.8858 C   0  0  0  0  0  0  0  0  0  0  0  0
    5.6931    2.2795    4.9326 S   0  0  0  0  0  0  0  0  0  0  0  0
    4.9616    2.2696    6.5953 C   0  0  0  0  0  0  0  0  0  0  0  0
    3.0085    2.0224    4.2349 C   0  0  0  0  0  0  0  0  0  0  0  0
    2.0057    1.6724    3.3504 C   0  0  0  0  0  0  0  0  0  0  0  0
    1.5035   -0.3157    0.3255 C   0  0  0  0  0  0  0  0  0  0  0  0
    2.0405   -1.5186    0.7817 C   0  0  0  0  0  0  0  0  0  0  0  0
    2.1723   -2.5888   -0.0743 C   0  0  0  0  0  0  0  0  0  0  0  0
    1.7620   -2.4879   -1.4030 C   0  0  0  0  0  0  0  0  0  0  0  0
    1.8913   -3.9425   -2.3960 S   0  0  0  0  0  0  0  0  0  0  0  0
    0.8704   -3.5730   -3.8499 C   0  0  0  0  0  0  0  0  0  0  0  0
    1.2826   -1.2738   -1.8761 C   0  0  0  0  0  0  0  0  0  0  0  0
    1.1587   -0.1987   -1.0176 C   0  0  0  0  0  0  0  0  0  0  0  0
    0.0563    2.8903    1.3526 C   0  0  0  0  0  0  0  0  0  0  0  0
    1.2233    4.1027    1.7234 S   0  0  0  0  0  0  0  0  0  0  0  0
   -0.0114    5.3656    1.6116 C   0  0  0  0  0  0  0  0  0  0  0  0
   -1.2643    4.8404    1.2567 C   0  0  0  0  0  0  0  0  0  0  0  0
   -2.4313    5.5419    1.1126 N   0  0  0  0  0  0  0  0  0  0  0  0
   -2.4377    6.8543    0.6244 C   0  0  0  0  0  0  0  0  0  0  0  0
   -3.2468    7.8279    1.2098 C   0  0  0  0  0  0  0  0  0  0  0  0
   -3.1508    9.1405    0.8020 C   0  0  0  0  0  0  0  0  0  0  0  0
   -2.2434    9.5061   -0.1888 C   0  0  0  0  0  0  0  0  0  0  0  0
   -2.0602   11.2193   -0.5693 S   0  0  0  0  0  0  0  0  0  0  0  0
   -0.2755   11.3159   -0.9122 C   0  0  0  0  0  0  0  0  0  0  0  0
   -1.5014    8.5251   -0.8359 C   0  0  0  0  0  0  0  0  0  0  0  0
   -1.6028    7.2088   -0.4353 C   0  0  0  0  0  0  0  0  0  0  0  0
   -3.6340    4.9624    1.5596 C   0  0  0  0  0  0  0  0  0  0  0  0
   -4.8025    5.1135    0.8154 C   0  0  0  0  0  0  0  0  0  0  0  0
   -5.9765    4.5471    1.2575 C   0  0  0  0  0  0  0  0  0  0  0  0
   -6.0068    3.8177    2.4459 C   0  0  0  0  0  0  0  0  0  0  0  0
   -7.5676    3.1367    2.9034 S   0  0  0  0  0  0  0  0  0  0  0  0
   -7.2217    2.2388    4.4429 C   0  0  0  0  0  0  0  0  0  0  0  0
   -4.8441    3.6765    3.1925 C   0  0  0  0  0  0  0  0  0  0  0  0
   -3.6665    4.2492    2.7541 C   0  0  0  0  0  0  0  0  0  0  0  0
   -1.2020    3.4292    1.1471 C   0  0  0  0  0  0  0  0  0  0  0  0
   -2.3423    2.2158    0.6796 S   0  0  0  0  0  0  0  0  0  0  0  0
    0.3633    6.6978    1.8446 C   0  0  0  0  0  0  0  0  0  0  0  0
    1.4286    7.1461    2.5777 C   0  0  0  0  0  0  0  0  0  0  0  0
    2.0088    8.4775    2.2967 C   0  0  0  0  0  0  0  0  0  0  0  0
    1.5326    9.3430    1.5886 O   0  0  0  0  0  0  0  0  0  0  0  0
    3.3070    8.4933    3.0016 C   0  0  0  0  0  0  0  0  0  0  0  0
    4.3019    9.4655    2.9320 C   0  0  0  0  0  0  0  0  0  0  0  0
    5.4283    9.1685    3.6633 C   0  0  0  0  0  0  0  0  0  0  0  0
    5.5631    7.9902    4.4084 C   0  0  0  0  0  0  0  0  0  0  0  0
    4.5864    7.0259    4.4961 C   0  0  0  0  0  0  0  0  0  0  0  0
    3.4330    7.3128    3.7645 C   0  0  0  0  0  0  0  0  0  0  0  0
    2.2052    6.5347    3.6203 C   0  0  0  0  0  0  0  0  0  0  0  0
    1.7604    5.5794    4.5042 C   0  0  0  0  0  0  0  0  0  0  0  0
    0.4764    5.0044    4.4590 C   0  0  0  0  0  0  0  0  0  0  0  0
   -0.5714    4.5326    4.4995 N   0  0  0  0  0  0  0  0  0  0  0  0
    2.4749    5.1642    5.6387 C   0  0  0  0  0  0  0  0  0  0  0  0
    2.9879    4.7902    6.5977 N   0  0  0  0  0  0  0  0  0  0  0  0
    6.9593    8.3385    4.8594 C   0  0  0  0  0  0  0  0  0  0  0  0
    8.1168    7.6128    4.1413 C   0  0  0  0  0  0  0  0  0  0  0  0
    9.3214    8.4779    4.4334 C   0  0  0  0  0  0  0  0  0  0  0  0
    9.1947    9.5967    3.7315 C   0  0  0  0  0  0  0  0  0  0  0  0
    7.9022    9.5065    2.9525 C   0  0  0  0  0  0  0  0  0  0  0  0
    7.8651    7.9976    2.6776 C   0  0  0  0  0  0  0  0  0  0  0  0
    6.8086    9.6550    4.0317 C   0  0  0  0  0  0  0  0  0  0  0  0
   -0.8444   -9.1800   -2.1492 H   0  0  0  0  0  0  0  0  0  0  0  0
   -0.3811   -6.2627   -7.6769 H   0  0  0  0  0  0  0  0  0  0  0  0
   -0.4844  -11.3138   -7.2994 H   0  0  0  0  0  0  0  0  0  0  0  0
   -0.6213  -10.3592  -10.5914 H   0  0  0  0  0  0  0  0  0  0  0  0
    1.8395  -11.2095  -10.0325 H   0  0  0  0  0  0  0  0  0  0  0  0
    1.7287  -10.6155  -12.5892 H   0  0  0  0  0  0  0  0  0  0  0  0
    1.7869   -7.9700  -12.8272 H   0  0  0  0  0  0  0  0  0  0  0  0
    1.9345   -6.9352  -10.4169 H   0  0  0  0  0  0  0  0  0  0  0  0
    2.2443   -8.9384   -8.6533 H   0  0  0  0  0  0  0  0  0  0  0  0
    3.4169   -9.0842   -9.9817 H   0  0  0  0  0  0  0  0  0  0  0  0
   -0.5648   -7.7636  -10.8244 H   0  0  0  0  0  0  0  0  0  0  0  0
   -6.4743   -4.3212   -3.6624 H   0  0  0  0  0  0  0  0  0  0  0  0
   -5.7997   -3.1716   -2.4894 H   0  0  0  0  0  0  0  0  0  0  0  0
   -4.9543   -3.3509   -5.4251 H   0  0  0  0  0  0  0  0  0  0  0  0
   -4.3176   -2.2261   -4.2262 H   0  0  0  0  0  0  0  0  0  0  0  0
   -6.0093   -2.1156   -4.7283 H   0  0  0  0  0  0  0  0  0  0  0  0
   -5.6497   -5.7001   -5.3256 H   0  0  0  0  0  0  0  0  0  0  0  0
   -4.6186   -7.1413   -5.4073 H   0  0  0  0  0  0  0  0  0  0  0  0
   -6.9421   -7.7478   -4.7542 H   0  0  0  0  0  0  0  0  0  0  0  0
   -5.7906   -8.1276   -3.4686 H   0  0  0  0  0  0  0  0  0  0  0  0
   -6.8260   -6.7061   -3.3322 H   0  0  0  0  0  0  0  0  0  0  0  0
    0.9653   -0.3643    4.4462 H   0  0  0  0  0  0  0  0  0  0  0  0
   -0.7408   -0.0218    4.7962 H   0  0  0  0  0  0  0  0  0  0  0  0
   -0.4496   -0.9877    7.0946 H   0  0  0  0  0  0  0  0  0  0  0  0
    0.6835    0.3437    6.8210 H   0  0  0  0  0  0  0  0  0  0  0  0
    1.2437   -1.3333    6.7353 H   0  0  0  0  0  0  0  0  0  0  0  0
   -1.2364   -5.5840    3.5529 H   0  0  0  0  0  0  0  0  0  0  0  0
   -1.5787   -4.4260    4.8646 H   0  0  0  0  0  0  0  0  0  0  0  0
    0.0853   -4.7593    4.4109 H   0  0  0  0  0  0  0  0  0  0  0  0
    3.9061    0.5496    0.7893 H   0  0  0  0  0  0  0  0  0  0  0  0
    5.6881    1.1860    2.3629 H   0  0  0  0  0  0  0  0  0  0  0  0
    4.3183    3.1352    6.7344 H   0  0  0  0  0  0  0  0  0  0  0  0
    4.4155    1.3423    6.7393 H   0  0  0  0  0  0  0  0  0  0  0  0
    5.7997    2.3195    7.2834 H   0  0  0  0  0  0  0  0  0  0  0  0
    2.7388    2.4351    5.1938 H   0  0  0  0  0  0  0  0  0  0  0  0
    0.9747    1.8222    3.6345 H   0  0  0  0  0  0  0  0  0  0  0  0
    2.3393   -1.6107    1.8153 H   0  0  0  0  0  0  0  0  0  0  0  0
    2.5708   -3.5252    0.2818 H   0  0  0  0  0  0  0  0  0  0  0  0
    0.6684   -4.5282   -4.3253 H   0  0  0  0  0  0  0  0  0  0  0  0
    1.4093   -2.9211   -4.5317 H   0  0  0  0  0  0  0  0  0  0  0  0
   -0.0684   -3.1291   -3.5398 H   0  0  0  0  0  0  0  0  0  0  0  0
    1.0035   -1.1518   -2.9106 H   0  0  0  0  0  0  0  0  0  0  0  0
    0.7838    0.7428   -1.3926 H   0  0  0  0  0  0  0  0  0  0  0  0
   -3.9159    7.5543    2.0114 H   0  0  0  0  0  0  0  0  0  0  0  0
   -3.7488    9.9039    1.2747 H   0  0  0  0  0  0  0  0  0  0  0  0
   -0.0635   10.9845   -1.9246 H   0  0  0  0  0  0  0  0  0  0  0  0
   -0.0099   12.3632   -0.8086 H   0  0  0  0  0  0  0  0  0  0  0  0
    0.2607   10.7194   -0.1794 H   0  0  0  0  0  0  0  0  0  0  0  0
   -0.8343    8.7835   -1.6423 H   0  0  0  0  0  0  0  0  0  0  0  0
   -1.0138    6.4473   -0.9254 H   0  0  0  0  0  0  0  0  0  0  0  0
   -4.7805    5.6727   -0.1078 H   0  0  0  0  0  0  0  0  0  0  0  0
   -6.8851    4.6563    0.6858 H   0  0  0  0  0  0  0  0  0  0  0  0
   -6.8928    2.9311    5.2124 H   0  0  0  0  0  0  0  0  0  0  0  0
   -6.4814    1.4651    4.2620 H   0  0  0  0  0  0  0  0  0  0  0  0
   -8.1645    1.7864    4.7343 H   0  0  0  0  0  0  0  0  0  0  0  0
   -4.8400    3.1342    4.1237 H   0  0  0  0  0  0  0  0  0  0  0  0
   -2.7702    4.1589    3.3498 H   0  0  0  0  0  0  0  0  0  0  0  0
   -0.1801    7.4758    1.3224 H   0  0  0  0  0  0  0  0  0  0  0  0
    4.1656   10.3601    2.3446 H   0  0  0  0  0  0  0  0  0  0  0  0
    4.7018    6.1150    5.0607 H   0  0  0  0  0  0  0  0  0  0  0  0
    7.1060    8.4131    5.9352 H   0  0  0  0  0  0  0  0  0  0  0  0
    8.2042    6.5548    4.3730 H   0  0  0  0  0  0  0  0  0  0  0  0
   10.0885    8.2199    5.1399 H   0  0  0  0  0  0  0  0  0  0  0  0
    9.8342   10.4599    3.7346 H   0  0  0  0  0  0  0  0  0  0  0  0
    7.7967   10.1740    2.1013 H   0  0  0  0  0  0  0  0  0  0  0  0
    6.9160    7.6408    2.2822 H   0  0  0  0  0  0  0  0  0  0  0  0
    8.6749    7.6784    2.0236 H   0  0  0  0  0  0  0  0  0  0  0  0
    6.8540   10.6077    4.5563 H   0  0  0  0  0  0  0  0  0  0  0  0
  1  2  2  0  0  0  0
  2  3  1  0  0  0  0
  3  4  2  0  0  0  0
  3  5  1  0  0  0  0
  5  6  2  0  0  0  0
  6  7  1  0  0  0  0
  7  8  2  0  0  0  0
  8  9  1  0  0  0  0
  9 10  2  0  0  0  0
 10 11  1  0  0  0  0
 11 12  2  0  0  0  0
 12 13  1  0  0  0  0
 13 14  3  0  0  0  0
 12 15  1  0  0  0  0
 15 16  3  0  0  0  0
  8 17  1  0  0  0  0
 17 18  1  0  0  0  0
 18 19  1  0  0  0  0
 19 20  2  0  0  0  0
 20 21  1  0  0  0  0
 21 22  1  0  0  0  0
 21 23  1  0  0  0  0
  1 24  1  0  0  0  0
 24 25  2  0  0  0  0
 25 26  1  0  0  0  0
 25 27  1  0  0  0  0
 27 28  1  0  0  0  0
 27 29  2  0  0  0  0
 29 30  1  0  0  0  0
 30 31  2  0  0  0  0
 31 32  1  0  0  0  0
 32 33  1  0  0  0  0
 33 34  1  0  0  0  0
 32 35  2  0  0  0  0
 35 36  1  0  0  0  0
 36 37  2  0  0  0  0
 35 38  1  0  0  0  0
 38 39  1  0  0  0  0
 29 40  1  0  0  0  0
 40 41  2  0  0  0  0
 41 42  1  0  0  0  0
 41 43  1  0  0  0  0
 43 44  1  0  0  0  0
 43 45  2  0  0  0  0
 45 46  1  0  0  0  0
 46 47  2  0  0  0  0
 47 48  1  0  0  0  0
 48 49  1  0  0  0  0
 49 50  1  0  0  0  0
 50 51  1  0  0  0  0
 48 52  2  0  0  0  0
 52 53  1  0  0  0  0
 53 54  2  0  0  0  0
 52 55  1  0  0  0  0
 45 56  1  0  0  0  0
 56 57  2  0  0  0  0
 57 58  1  0  0  0  0
 58 59  1  0  0  0  0
 59 60  2  0  0  0  0
 60 61  1  0  0  0  0
 61 62  2  0  0  0  0
 62 63  1  0  0  0  0
 63 64  1  0  0  0  0
 62 65  1  0  0  0  0
 65 66  2  0  0  0  0
 58 67  1  0  0  0  0
 67 68  2  0  0  0  0
 68 69  1  0  0  0  0
 69 70  2  0  0  0  0
 70 71  1  0  0  0  0
 71 72  1  0  0  0  0
 70 73  1  0  0  0  0
 73 74  2  0  0  0  0
 57 75  1  0  0  0  0
 75 76  1  0  0  0  0
 76 77  1  0  0  0  0
 77 78  2  0  0  0  0
 78 79  1  0  0  0  0
 79 80  1  0  0  0  0
 80 81  2  0  0  0  0
 81 82  1  0  0  0  0
 82 83  2  0  0  0  0
 83 84  1  0  0  0  0
 84 85  1  0  0  0  0
 83 86  1  0  0  0  0
 86 87  2  0  0  0  0
 79 88  1  0  0  0  0
 88 89  2  0  0  0  0
 89 90  1  0  0  0  0
 90 91  2  0  0  0  0
 91 92  1  0  0  0  0
 92 93  1  0  0  0  0
 91 94  1  0  0  0  0
 94 95  2  0  0  0  0
 78 96  1  0  0  0  0
 96 97  1  0  0  0  0
 77 98  1  0  0  0  0
 98 99  2  0  0  0  0
 99100  1  0  0  0  0
100101  2  0  0  0  0
100102  1  0  0  0  0
102103  2  0  0  0  0
103104  1  0  0  0  0
104105  2  0  0  0  0
105106  1  0  0  0  0
106107  2  0  0  0  0
107108  1  0  0  0  0
108109  2  0  0  0  0
109110  1  0  0  0  0
110111  3  0  0  0  0
109112  1  0  0  0  0
112113  3  0  0  0  0
105114  1  0  0  0  0
114115  1  0  0  0  0
115116  1  0  0  0  0
116117  2  0  0  0  0
117118  1  0  0  0  0
118119  1  0  0  0  0
118120  1  0  0  0  0
 11  2  1  0  0  0  0
 23 17  1  0  0  0  0
 37 24  1  0  0  0  0
 54 40  1  0  0  0  0
 97 56  1  0  0  0  0
108 99  1  0  0  0  0
120114  1  0  0  0  0
 10  5  1  0  0  0  0
 22 18  1  0  0  0  0
 37 30  1  0  0  0  0
 54 46  1  0  0  0  0
 66 59  1  0  0  0  0
 74 67  1  0  0  0  0
 96 75  2  0  0  0  0
107102  1  0  0  0  0
119115  1  0  0  0  0
 23  7  1  0  0  0  0
 87 80  1  0  0  0  0
 95 88  1  0  0  0  0
120104  1  0  0  0  0
  1121  1  0  0  0  0
  6122  1  0  0  0  0
  9123  1  0  0  0  0
 17124  1  0  0  0  0
 18125  1  0  0  0  0
 19126  1  0  0  0  0
 20127  1  0  0  0  0
 21128  1  0  0  0  0
 22129  1  0  0  0  0
 22130  1  0  0  0  0
 23131  1  0  0  0  0
 33132  1  0  0  0  0
 33133  1  0  0  0  0
 34134  1  0  0  0  0
 34135  1  0  0  0  0
 34136  1  0  0  0  0
 38137  1  0  0  0  0
 38138  1  0  0  0  0
 39139  1  0  0  0  0
 39140  1  0  0  0  0
 39141  1  0  0  0  0
 50142  1  0  0  0  0
 50143  1  0  0  0  0
 51144  1  0  0  0  0
 51145  1  0  0  0  0
 51146  1  0  0  0  0
 55147  1  0  0  0  0
 55148  1  0  0  0  0
 55149  1  0  0  0  0
 60150  1  0  0  0  0
 61151  1  0  0  0  0
 64152  1  0  0  0  0
 64153  1  0  0  0  0
 64154  1  0  0  0  0
 65155  1  0  0  0  0
 66156  1  0  0  0  0
 68157  1  0  0  0  0
 69158  1  0  0  0  0
 72159  1  0  0  0  0
 72160  1  0  0  0  0
 72161  1  0  0  0  0
 73162  1  0  0  0  0
 74163  1  0  0  0  0
 81164  1  0  0  0  0
 82165  1  0  0  0  0
 85166  1  0  0  0  0
 85167  1  0  0  0  0
 85168  1  0  0  0  0
 86169  1  0  0  0  0
 87170  1  0  0  0  0
 89171  1  0  0  0  0
 90172  1  0  0  0  0
 93173  1  0  0  0  0
 93174  1  0  0  0  0
 93175  1  0  0  0  0
 94176  1  0  0  0  0
 95177  1  0  0  0  0
 98178  1  0  0  0  0
103179  1  0  0  0  0
106180  1  0  0  0  0
114181  1  0  0  0  0
115182  1  0  0  0  0
116183  1  0  0  0  0
117184  1  0  0  0  0
118185  1  0  0  0  0
119186  1  0  0  0  0
119187  1  0  0  0  0
120188  1  0  0  0  0
M  END
