186

C         -4.70960       -4.42330        5.31520
C         -5.74280       -5.02580        4.67470
C         -6.63780       -5.95160        5.42690
O         -6.70800       -6.06590        6.62910
C         -7.36100       -6.71940        4.39680
C         -8.23620       -7.78510        4.59750
C         -8.74250       -8.32070        3.43780
C         -8.38680       -7.85090        2.16550
C         -7.52970       -6.79860        1.95100
C         -7.02650       -6.22100        3.11940
C         -6.15990       -5.05720        3.28560
C         -6.00840       -4.05690        2.36260
C         -5.39990       -2.81230        2.62850
N         -4.96810       -1.76050        2.78660
C         -6.52710       -4.10480        1.05190
N         -6.91020       -4.09300       -0.03020
C         -9.26240       -8.85640        1.46160
C        -10.60400       -8.35080        0.87650
C        -11.00070       -7.14850        1.69720
C        -11.34750       -7.57890        2.90290
C        -11.19220       -9.07970        2.91920
C        -11.55690       -9.40510        1.46190
C         -9.67060       -9.36940        2.87860
C         -3.57900       -3.78720        4.73810
C         -3.02150       -3.98640        3.50340
C         -1.91970       -3.15030        3.23460
C         -1.16420       -3.09560        2.04710
C         -1.36850       -3.99580        0.93120
C         -1.45760       -3.64820       -0.38590
C         -1.52640       -4.71670       -1.30190
C         -1.46230       -5.96020       -0.74610
S         -1.54740       -7.44860       -1.66000
C         -0.47390       -8.52750       -0.64360
C          0.97780       -8.09770       -0.68920
Se        -1.38990       -5.86970        1.13940
C         -0.19390       -2.10680        1.98710
C          0.07750       -1.21300        3.04950
C         -0.61940       -1.32020        4.27020
C         -0.23230       -0.57170        5.44500
C         -1.02540       -0.10760        6.45730
C         -0.35680        0.37130        7.60000
C          1.00420        0.28030        7.55620
S          2.05680        0.75290        8.87190
C          3.44890       -0.42680        8.68130
C          4.53130        0.08910        7.75360
Se         1.58810       -0.36260        5.88710
C         -1.63740       -2.27210        4.31130
S         -2.70320       -2.57510        5.65180
C          1.08150       -0.27360        2.70290
C          1.60230       -0.46250        1.46050
S          0.87150       -1.83330        0.63940
C          2.56440        0.29060        0.71220
C          2.61290        1.64990        0.46350
N          1.77750        2.62150        1.00130
C          1.67260        2.84780        2.37050
C          0.48930        3.36770        2.90070
C          0.38000        3.61010        4.25020
C          1.44400        3.33880        5.10820
S          1.20250        3.71610        6.81640
C          2.89960        3.86310        7.44290
C          2.61270        2.79400        4.59190
C          2.72830        2.55880        3.23390
C          1.11700        3.46660        0.08810
C          0.38770        2.91490       -0.96140
C         -0.28890        3.73130       -1.84590
C         -0.22130        5.11090       -1.70650
S         -1.04490        6.21650       -2.82080
C         -2.63740        5.37530       -3.08990
C          0.53050        5.66620       -0.67620
C          1.18660        4.85160        0.22160
C          3.57080        1.94170       -0.53950
S          4.06710        3.38890       -1.32820
C          5.21520        2.48540       -2.33020
C          5.22330        1.12950       -2.01280
N          5.94040        0.14260       -2.65430
C          7.25910        0.33290       -3.06380
C          7.74350       -0.31170       -4.20470
C          9.04700       -0.12930       -4.60300
C          9.90290        0.70260       -3.88000
S         11.54910        0.85660       -4.49480
C         12.31750        2.07870       -3.39390
C          9.42870        1.34100       -2.74240
C          8.11990        1.15470       -2.33900
C          5.30850       -1.10670       -2.82410
C          5.98680       -2.29210       -2.54580
C          5.32460       -3.49770       -2.61570
C          3.97360       -3.54480       -2.95580
S          3.20410       -5.13240       -2.94070
C          1.43300       -4.74520       -3.02480
C          3.31030       -2.36980       -3.28290
C          3.97510       -1.16110       -3.22210
C          4.25850        0.83940       -1.01520
S          3.73580       -0.60940       -0.23310
C          5.93130        3.20380       -3.33450
C          5.32880        4.11690       -4.14770
C          3.92400        4.13080       -4.28690
C          3.14530        5.01380       -4.97250
C          3.57370        6.30870       -5.54480
O          4.70090        6.75480       -5.59860
C          2.33320        6.95270       -6.02700
C          2.20520        8.22730       -6.57220
C          0.91420        8.57440       -6.89360
C         -0.17240        7.71120       -6.70020
C         -0.06160        6.44840       -6.17200
C          1.24120        6.08150       -5.82520
C          1.72800        4.85620       -5.20500
C          0.98090        3.73530       -4.93400
C          1.44320        2.55070       -4.32570
N          1.70830        1.54220       -3.83870
C         -0.38450        3.59730       -5.24380
N         -1.49780        3.39710       -5.45120
C         -1.16890        8.71880       -7.21320
C         -2.02620        9.46830       -6.16370
C         -1.22120        9.48550       -4.88740
C         -0.19610       10.30730       -5.06900
C         -0.28760       10.85790       -6.47080
C         -1.81400       10.91400       -6.64000
C          0.04040        9.68300       -7.42640
H         -4.73510       -4.47700        6.39880
H         -8.47420       -8.12650        5.59270
H         -7.25720       -6.44950        0.96850
H         -8.75230       -9.55000        0.79610
H        -10.60440       -8.21720       -0.20180
H        -10.93460       -6.13570        1.34510
H        -11.63010       -6.99680        3.76050
H        -11.73100       -9.60930        3.70050
H        -11.30910      -10.42460        1.16940
H        -12.60170       -9.20050        1.23380
H         -9.43890      -10.40120        3.13620
H         -3.38630       -4.72500        2.80940
H         -1.48680       -2.62000       -0.70410
H         -1.60310       -4.56980       -2.36510
H         -0.60940       -9.52470       -1.06000
H         -0.87140       -8.50620        0.37590
H          1.35400       -8.12060       -1.70950
H          1.09390       -7.08680       -0.29970
H          1.57960       -8.77040       -0.08190
H         -2.09960       -0.09990        6.38680
H         -0.87520        0.75060        8.46320
H          3.83400       -0.56900        9.69040
H          3.02470       -1.36440        8.31950
H          4.94740        1.02050        8.13220
H          5.33190       -0.64390        7.67750
H          4.12860        0.26070        6.75280
H          1.39530        0.52650        3.34840
H         -0.33980        3.57880        2.24270
H         -0.53280        4.01380        4.66000
H          3.47240        4.51290        6.78810
H          2.81020        4.30650        8.42940
H          3.35400        2.88110        7.52780
H          3.44710        2.56100        5.23530
H          3.64370        2.14360        2.83750
H          0.34430        1.84230       -1.07850
H         -0.87630        3.28620       -2.63400
H         -2.99400        4.98670       -2.14150
H         -3.31580        6.13670       -3.46190
H         -2.53580        4.58230       -3.82630
H          0.58820        6.73970       -0.58540
H          1.75430        5.28010        1.03380
H          7.08560       -0.94970       -4.77470
H          9.42150       -0.62320       -5.48630
H         11.76130        3.01080       -3.42930
H         13.31870        2.23240       -3.78440
H         12.37410        1.68800       -2.38200
H         10.06650        1.98030       -2.15360
H          7.76490        1.63830       -1.44050
H          7.02570       -2.25870       -2.25290
H          5.83990       -4.41670       -2.38270
H          0.91580       -5.68800       -2.87630
H          1.17530       -4.05070       -2.23020
H          1.18130       -4.34250       -4.00160
H          2.27540       -2.37480       -3.58220
H          3.44590       -0.25300       -3.47060
H          6.99060        3.00570       -3.44050
H          5.91650        4.76810       -4.77600
H          3.41160        3.29170       -3.83750
H          3.06760        8.86170       -6.70630
H         -0.90750        5.79910       -6.02360
H         -1.74550        8.42220       -8.08730
H         -3.05020        9.11340       -6.08150
H         -1.43140        8.86630       -4.03540
H          0.61310       10.51670       -4.39440
H          0.27130       11.76920       -6.66780
H         -2.28330       11.64650       -5.98490
H         -2.13130       11.08320       -7.66830
H          0.25350       10.01840       -8.43970
