
  xtb     02052217433D
 energy: -367.454313202763 gnorm: 0.000364770647 xtb: 6.4.1 (unknown)
212233  0     0  0            999 V2000
    3.0318   -5.3809    2.4368 C   0  0  0  0  0  0  0  0  0  0  0  0
    4.1750   -5.7692    1.7819 C   0  0  0  0  0  0  0  0  0  0  0  0
    4.5289   -5.5353    0.3708 C   0  0  0  0  0  0  0  0  0  0  0  0
    3.7850   -5.4301   -0.5868 O   0  0  0  0  0  0  0  0  0  0  0  0
    6.0023   -5.5059    0.3282 C   0  0  0  0  0  0  0  0  0  0  0  0
    6.8047   -5.1284   -0.7457 C   0  0  0  0  0  0  0  0  0  0  0  0
    8.1522   -5.2020   -0.4835 C   0  0  0  0  0  0  0  0  0  0  0  0
    8.6649   -5.6219    0.7511 C   0  0  0  0  0  0  0  0  0  0  0  0
    7.8832   -5.9936    1.8203 C   0  0  0  0  0  0  0  0  0  0  0  0
    6.5096   -5.9217    1.5760 C   0  0  0  0  0  0  0  0  0  0  0  0
    5.3777   -6.2220    2.4478 C   0  0  0  0  0  0  0  0  0  0  0  0
    5.4267   -6.9187    3.6288 C   0  0  0  0  0  0  0  0  0  0  0  0
    4.2846   -7.4306    4.2700 C   0  0  0  0  0  0  0  0  0  0  0  0
    3.4005   -7.9567    4.7825 N   0  0  0  0  0  0  0  0  0  0  0  0
    6.6169   -7.3313    4.2589 C   0  0  0  0  0  0  0  0  0  0  0  0
    7.5550   -7.6792    4.8224 N   0  0  0  0  0  0  0  0  0  0  0  0
   10.0958   -5.4502    0.3055 C   0  0  0  0  0  0  0  0  0  0  0  0
   10.8615   -6.7379   -0.0657 C   0  0  0  0  0  0  0  0  0  0  0  0
   12.0220   -6.2406   -0.8969 C   0  0  0  0  0  0  0  0  0  0  0  0
   11.5383   -5.8385   -2.0653 C   0  0  0  0  0  0  0  0  0  0  0  0
   10.0429   -6.0583   -2.0437 C   0  0  0  0  0  0  0  0  0  0  0  0
    9.9740   -7.3199   -1.1736 C   0  0  0  0  0  0  0  0  0  0  0  0
    9.5238   -4.9793   -1.0703 C   0  0  0  0  0  0  0  0  0  0  0  0
    1.8924   -4.7569    1.9070 C   0  0  0  0  0  0  0  0  0  0  0  0
    0.9938   -3.9312    2.6254 C   0  0  0  0  0  0  0  0  0  0  0  0
    1.0359   -3.6709    3.9753 N   0  0  0  0  0  0  0  0  0  0  0  0
    0.7432   -2.3740    4.4315 C   0  0  0  0  0  0  0  0  0  0  0  0
    1.2145   -1.2576    3.7388 C   0  0  0  0  0  0  0  0  0  0  0  0
    0.9366    0.0106    4.1956 C   0  0  0  0  0  0  0  0  0  0  0  0
    0.1943    0.1985    5.3614 C   0  0  0  0  0  0  0  0  0  0  0  0
   -0.0870    1.8698    5.8546 S   0  0  0  0  0  0  0  0  0  0  0  0
   -1.0663    1.7210    7.3736 C   0  0  0  0  0  0  0  0  0  0  0  0
   -0.2706   -0.9101    6.0580 C   0  0  0  0  0  0  0  0  0  0  0  0
   -0.0027   -2.1818    5.5910 C   0  0  0  0  0  0  0  0  0  0  0  0
    1.2749   -4.6814    4.9209 C   0  0  0  0  0  0  0  0  0  0  0  0
    2.0253   -4.4034    6.0642 C   0  0  0  0  0  0  0  0  0  0  0  0
    2.2339   -5.3824    7.0088 C   0  0  0  0  0  0  0  0  0  0  0  0
    1.7048   -6.6596    6.8320 C   0  0  0  0  0  0  0  0  0  0  0  0
    2.0152   -7.8358    8.1022 S   0  0  0  0  0  0  0  0  0  0  0  0
    1.7735   -9.4221    7.2528 C   0  0  0  0  0  0  0  0  0  0  0  0
    0.9518   -6.9365    5.6960 C   0  0  0  0  0  0  0  0  0  0  0  0
    0.7408   -5.9561    4.7493 C   0  0  0  0  0  0  0  0  0  0  0  0
    0.0954   -3.2943    1.7476 C   0  0  0  0  0  0  0  0  0  0  0  0
   -1.1493   -2.0923    1.8965 S   0  0  0  0  0  0  0  0  0  0  0  0
   -1.3766   -2.0523    0.1404 C   0  0  0  0  0  0  0  0  0  0  0  0
   -0.5844   -2.9805   -0.4948 C   0  0  0  0  0  0  0  0  0  0  0  0
   -0.5535   -3.3087   -1.8668 N   0  0  0  0  0  0  0  0  0  0  0  0
    0.7170   -3.2913   -2.4498 C   0  0  0  0  0  0  0  0  0  0  0  0
    1.0428   -4.0031   -3.6036 C   0  0  0  0  0  0  0  0  0  0  0  0
    2.3375   -4.0171   -4.0803 C   0  0  0  0  0  0  0  0  0  0  0  0
    3.3355   -3.3085   -3.4287 C   0  0  0  0  0  0  0  0  0  0  0  0
    5.0343   -3.3989   -3.9211 S   0  0  0  0  0  0  0  0  0  0  0  0
    5.1650   -5.1558   -4.3828 C   0  0  0  0  0  0  0  0  0  0  0  0
    2.9940   -2.4827   -2.3671 C   0  0  0  0  0  0  0  0  0  0  0  0
    1.7011   -2.4655   -1.8946 C   0  0  0  0  0  0  0  0  0  0  0  0
   -1.5492   -4.2551   -2.2156 C   0  0  0  0  0  0  0  0  0  0  0  0
   -2.8865   -3.8880   -2.1173 C   0  0  0  0  0  0  0  0  0  0  0  0
   -3.8956   -4.7580   -2.4843 C   0  0  0  0  0  0  0  0  0  0  0  0
   -3.5807   -6.0277   -2.9463 C   0  0  0  0  0  0  0  0  0  0  0  0
   -4.7680   -7.2062   -3.5165 S   0  0  0  0  0  0  0  0  0  0  0  0
   -6.3517   -6.3282   -3.3908 C   0  0  0  0  0  0  0  0  0  0  0  0
   -2.2480   -6.4346   -2.9547 C   0  0  0  0  0  0  0  0  0  0  0  0
   -1.2461   -5.5679   -2.5762 C   0  0  0  0  0  0  0  0  0  0  0  0
    0.2427   -3.6738    0.4228 C   0  0  0  0  0  0  0  0  0  0  0  0
    1.5227   -4.7893    0.1846 S   0  0  0  0  0  0  0  0  0  0  0  0
   -2.1918   -0.9791   -0.3399 C   0  0  0  0  0  0  0  0  0  0  0  0
   -2.0150   -0.1222   -1.4132 C   0  0  0  0  0  0  0  0  0  0  0  0
   -1.0449   -0.2073   -2.4263 N   0  0  0  0  0  0  0  0  0  0  0  0
   -0.1826    0.9054   -2.4512 C   0  0  0  0  0  0  0  0  0  0  0  0
    0.0700    1.6334   -3.6093 C   0  0  0  0  0  0  0  0  0  0  0  0
    0.8426    2.7785   -3.5682 C   0  0  0  0  0  0  0  0  0  0  0  0
    1.3689    3.2247   -2.3641 C   0  0  0  0  0  0  0  0  0  0  0  0
    2.3269    4.6968   -2.1821 S   0  0  0  0  0  0  0  0  0  0  0  0
    2.2936    5.4550   -3.8316 C   0  0  0  0  0  0  0  0  0  0  0  0
    1.1384    2.4872   -1.2049 C   0  0  0  0  0  0  0  0  0  0  0  0
    0.3763    1.3420   -1.2482 C   0  0  0  0  0  0  0  0  0  0  0  0
   -1.2970   -0.9727   -3.5650 C   0  0  0  0  0  0  0  0  0  0  0  0
   -2.5825   -1.4306   -3.8408 C   0  0  0  0  0  0  0  0  0  0  0  0
   -2.8180   -2.2882   -4.8969 C   0  0  0  0  0  0  0  0  0  0  0  0
   -1.7700   -2.6840   -5.7128 C   0  0  0  0  0  0  0  0  0  0  0  0
   -1.9595   -3.8434   -7.0350 S   0  0  0  0  0  0  0  0  0  0  0  0
   -3.4339   -4.7790   -6.5325 C   0  0  0  0  0  0  0  0  0  0  0  0
   -0.5008   -2.1520   -5.5011 C   0  0  0  0  0  0  0  0  0  0  0  0
   -0.2615   -1.3122   -4.4371 C   0  0  0  0  0  0  0  0  0  0  0  0
   -2.8133    1.0404   -1.2698 C   0  0  0  0  0  0  0  0  0  0  0  0
   -2.9276    2.4941   -2.1903 S   0  0  0  0  0  0  0  0  0  0  0  0
   -3.8658    3.2259   -0.9121 C   0  0  0  0  0  0  0  0  0  0  0  0
   -4.1702    2.3539    0.1202 C   0  0  0  0  0  0  0  0  0  0  0  0
   -4.9680    2.6697    1.2020 N   0  0  0  0  0  0  0  0  0  0  0  0
   -4.7084    2.0486    2.4302 C   0  0  0  0  0  0  0  0  0  0  0  0
   -3.3955    1.7666    2.8067 C   0  0  0  0  0  0  0  0  0  0  0  0
   -3.1441    1.0277    3.9433 C   0  0  0  0  0  0  0  0  0  0  0  0
   -4.2010    0.5889    4.7238 C   0  0  0  0  0  0  0  0  0  0  0  0
   -3.8781   -0.4763    6.1193 S   0  0  0  0  0  0  0  0  0  0  0  0
   -3.4935   -1.9876    5.1830 C   0  0  0  0  0  0  0  0  0  0  0  0
   -5.5041    0.9420    4.4075 C   0  0  0  0  0  0  0  0  0  0  0  0
   -5.7602    1.6665    3.2605 C   0  0  0  0  0  0  0  0  0  0  0  0
   -5.8594    3.7494    1.1131 C   0  0  0  0  0  0  0  0  0  0  0  0
   -6.6167    3.9425   -0.0400 C   0  0  0  0  0  0  0  0  0  0  0  0
   -7.3667    5.0892   -0.2040 C   0  0  0  0  0  0  0  0  0  0  0  0
   -7.3754    6.0618    0.7871 C   0  0  0  0  0  0  0  0  0  0  0  0
   -8.2086    7.6099    0.6187 S   0  0  0  0  0  0  0  0  0  0  0  0
   -8.3562    7.7989   -1.1826 C   0  0  0  0  0  0  0  0  0  0  0  0
   -6.6994    5.8257    1.9817 C   0  0  0  0  0  0  0  0  0  0  0  0
   -5.9527    4.6796    2.1476 C   0  0  0  0  0  0  0  0  0  0  0  0
   -3.5721    1.0916   -0.1104 C   0  0  0  0  0  0  0  0  0  0  0  0
   -3.4111   -0.3805    0.7839 S   0  0  0  0  0  0  0  0  0  0  0  0
   -4.0233    4.6583   -0.9100 C   0  0  0  0  0  0  0  0  0  0  0  0
   -4.4997    5.4133   -1.9573 C   0  0  0  0  0  0  0  0  0  0  0  0
   -5.1582    4.9716   -3.2013 C   0  0  0  0  0  0  0  0  0  0  0  0
   -5.4662    3.8613   -3.5577 O   0  0  0  0  0  0  0  0  0  0  0  0
   -5.4094    6.1313   -3.9256 N   0  0  0  0  0  0  0  0  0  0  0  0
   -6.0937    6.1399   -5.2006 C   0  0  0  0  0  0  0  0  0  0  0  0
   -7.5938    6.3446   -5.0185 C   0  0  0  0  0  0  0  0  0  0  0  0
   -4.9703    7.2785   -3.2885 C   0  0  0  0  0  0  0  0  0  0  0  0
   -5.0673    8.3993   -3.7247 O   0  0  0  0  0  0  0  0  0  0  0  0
   -4.4073    6.8257   -1.9978 C   0  0  0  0  0  0  0  0  0  0  0  0
   -3.8012    7.5718   -1.0192 C   0  0  0  0  0  0  0  0  0  0  0  0
   -3.3961    6.8404    0.1304 C   0  0  0  0  0  0  0  0  0  0  0  0
   -3.5158    5.4083    0.1892 C   0  0  0  0  0  0  0  0  0  0  0  0
   -3.0215    4.9184    1.3212 N   0  0  0  0  0  0  0  0  0  0  0  0
   -2.4866    6.1321    2.2277 S   0  0  0  0  0  0  0  0  0  0  0  0
   -2.8413    7.3397    1.2298 N   0  0  0  0  0  0  0  0  0  0  0  0
   -3.3979    8.9609   -1.1857 C   0  0  0  0  0  0  0  0  0  0  0  0
   -2.0899    9.2566   -1.2762 C   0  0  0  0  0  0  0  0  0  0  0  0
   -0.9949    8.2532   -1.3346 C   0  0  0  0  0  0  0  0  0  0  0  0
   -1.0954    7.0472   -1.3395 O   0  0  0  0  0  0  0  0  0  0  0  0
    0.2525    9.0370   -1.4599 C   0  0  0  0  0  0  0  0  0  0  0  0
    1.5529    8.5755   -1.5468 C   0  0  0  0  0  0  0  0  0  0  0  0
    2.5702    9.5104   -1.6930 C   0  0  0  0  0  0  0  0  0  0  0  0
    4.1967    8.9740   -1.8173 Cl  0  0  0  0  0  0  0  0  0  0  0  0
    2.2810   10.8814   -1.7433 C   0  0  0  0  0  0  0  0  0  0  0  0
    3.5582   12.0130   -1.9252 Cl  0  0  0  0  0  0  0  0  0  0  0  0
    0.9704   11.3382   -1.6503 C   0  0  0  0  0  0  0  0  0  0  0  0
   -0.0406   10.4061   -1.5117 C   0  0  0  0  0  0  0  0  0  0  0  0
   -1.5087   10.6184   -1.4056 C   0  0  0  0  0  0  0  0  0  0  0  0
   -2.0998   11.6686   -1.4127 O   0  0  0  0  0  0  0  0  0  0  0  0
    3.0565   -5.4485    3.5196 H   0  0  0  0  0  0  0  0  0  0  0  0
    6.3728   -4.7938   -1.6754 H   0  0  0  0  0  0  0  0  0  0  0  0
    8.2872   -6.2993    2.7714 H   0  0  0  0  0  0  0  0  0  0  0  0
   10.6945   -4.7526    0.8881 H   0  0  0  0  0  0  0  0  0  0  0  0
   11.1014   -7.3830    0.7751 H   0  0  0  0  0  0  0  0  0  0  0  0
   13.0336   -6.1818   -0.5404 H   0  0  0  0  0  0  0  0  0  0  0  0
   12.0651   -5.3765   -2.8796 H   0  0  0  0  0  0  0  0  0  0  0  0
    9.5390   -6.0837   -3.0062 H   0  0  0  0  0  0  0  0  0  0  0  0
    8.9688   -7.5791   -0.8464 H   0  0  0  0  0  0  0  0  0  0  0  0
   10.4324   -8.1804   -1.6583 H   0  0  0  0  0  0  0  0  0  0  0  0
    9.7368   -3.9657   -1.4045 H   0  0  0  0  0  0  0  0  0  0  0  0
    1.8107   -1.3921    2.8482 H   0  0  0  0  0  0  0  0  0  0  0  0
    1.3020    0.8746    3.6620 H   0  0  0  0  0  0  0  0  0  0  0  0
   -0.4871    1.2104    8.1373 H   0  0  0  0  0  0  0  0  0  0  0  0
   -1.9995    1.2035    7.1679 H   0  0  0  0  0  0  0  0  0  0  0  0
   -1.2707    2.7402    7.6867 H   0  0  0  0  0  0  0  0  0  0  0  0
   -0.8559   -0.7989    6.9556 H   0  0  0  0  0  0  0  0  0  0  0  0
   -0.3741   -3.0382    6.1335 H   0  0  0  0  0  0  0  0  0  0  0  0
    2.4486   -3.4188    6.1975 H   0  0  0  0  0  0  0  0  0  0  0  0
    2.8204   -5.1739    7.8901 H   0  0  0  0  0  0  0  0  0  0  0  0
    0.7139   -9.6304    7.1335 H   0  0  0  0  0  0  0  0  0  0  0  0
    2.2255  -10.1735    7.8926 H   0  0  0  0  0  0  0  0  0  0  0  0
    2.2864   -9.3804    6.2974 H   0  0  0  0  0  0  0  0  0  0  0  0
    0.5218   -7.9120    5.5432 H   0  0  0  0  0  0  0  0  0  0  0  0
    0.1547   -6.1734    3.8683 H   0  0  0  0  0  0  0  0  0  0  0  0
    0.2850   -4.5424   -4.1478 H   0  0  0  0  0  0  0  0  0  0  0  0
    2.5616   -4.5971   -4.9620 H   0  0  0  0  0  0  0  0  0  0  0  0
    4.7519   -5.3208   -5.3736 H   0  0  0  0  0  0  0  0  0  0  0  0
    4.6431   -5.7497   -3.6383 H   0  0  0  0  0  0  0  0  0  0  0  0
    6.2241   -5.3953   -4.3866 H   0  0  0  0  0  0  0  0  0  0  0  0
    3.7509   -1.8686   -1.9037 H   0  0  0  0  0  0  0  0  0  0  0  0
    1.4530   -1.8115   -1.0720 H   0  0  0  0  0  0  0  0  0  0  0  0
   -3.1428   -2.9111   -1.7420 H   0  0  0  0  0  0  0  0  0  0  0  0
   -4.9193   -4.4290   -2.4065 H   0  0  0  0  0  0  0  0  0  0  0  0
   -7.0982   -7.0205   -3.7673 H   0  0  0  0  0  0  0  0  0  0  0  0
   -6.5638   -6.0870   -2.3533 H   0  0  0  0  0  0  0  0  0  0  0  0
   -6.3324   -5.4355   -4.0091 H   0  0  0  0  0  0  0  0  0  0  0  0
   -2.0102   -7.4442   -3.2534 H   0  0  0  0  0  0  0  0  0  0  0  0
   -0.2265   -5.9177   -2.5389 H   0  0  0  0  0  0  0  0  0  0  0  0
   -0.3644    1.3196   -4.5462 H   0  0  0  0  0  0  0  0  0  0  0  0
    1.0043    3.3239   -4.4840 H   0  0  0  0  0  0  0  0  0  0  0  0
    2.7611    4.7939   -4.5555 H   0  0  0  0  0  0  0  0  0  0  0  0
    1.2688    5.6868   -4.1080 H   0  0  0  0  0  0  0  0  0  0  0  0
    2.8712    6.3707   -3.7485 H   0  0  0  0  0  0  0  0  0  0  0  0
    1.5578    2.8299   -0.2712 H   0  0  0  0  0  0  0  0  0  0  0  0
    0.1928    0.7836   -0.3416 H   0  0  0  0  0  0  0  0  0  0  0  0
   -3.4097   -1.1065   -3.2265 H   0  0  0  0  0  0  0  0  0  0  0  0
   -3.8231   -2.6351   -5.0761 H   0  0  0  0  0  0  0  0  0  0  0  0
   -3.4430   -5.6752   -7.1448 H   0  0  0  0  0  0  0  0  0  0  0  0
   -3.3472   -5.0456   -5.4832 H   0  0  0  0  0  0  0  0  0  0  0  0
   -4.3333   -4.1992   -6.7208 H   0  0  0  0  0  0  0  0  0  0  0  0
    0.3037   -2.4288   -6.1646 H   0  0  0  0  0  0  0  0  0  0  0  0
    0.7356   -0.9412   -4.2569 H   0  0  0  0  0  0  0  0  0  0  0  0
   -2.5787    2.1345    2.2051 H   0  0  0  0  0  0  0  0  0  0  0  0
   -2.1295    0.7828    4.2142 H   0  0  0  0  0  0  0  0  0  0  0  0
   -2.6536   -1.8025    4.5195 H   0  0  0  0  0  0  0  0  0  0  0  0
   -4.3713   -2.2842    4.6161 H   0  0  0  0  0  0  0  0  0  0  0  0
   -3.2405   -2.7508    5.9111 H   0  0  0  0  0  0  0  0  0  0  0  0
   -6.3136    0.6231    5.0460 H   0  0  0  0  0  0  0  0  0  0  0  0
   -6.7742    1.9177    2.9870 H   0  0  0  0  0  0  0  0  0  0  0  0
   -6.5952    3.2044   -0.8278 H   0  0  0  0  0  0  0  0  0  0  0  0
   -7.9333    5.2170   -1.1125 H   0  0  0  0  0  0  0  0  0  0  0  0
   -9.1205    7.1343   -1.5752 H   0  0  0  0  0  0  0  0  0  0  0  0
   -7.3924    7.6107   -1.6470 H   0  0  0  0  0  0  0  0  0  0  0  0
   -8.6508    8.8306   -1.3470 H   0  0  0  0  0  0  0  0  0  0  0  0
   -6.7440    6.5666    2.7651 H   0  0  0  0  0  0  0  0  0  0  0  0
   -5.4014    4.5164    3.0617 H   0  0  0  0  0  0  0  0  0  0  0  0
   -5.8949    5.1791   -5.6811 H   0  0  0  0  0  0  0  0  0  0  0  0
   -5.6700    6.9515   -5.7969 H   0  0  0  0  0  0  0  0  0  0  0  0
   -8.0111    5.5444   -4.4110 H   0  0  0  0  0  0  0  0  0  0  0  0
   -8.0853    6.3392   -5.9870 H   0  0  0  0  0  0  0  0  0  0  0  0
   -7.7872    7.2994   -4.5341 H   0  0  0  0  0  0  0  0  0  0  0  0
   -4.1463    9.7383   -1.2682 H   0  0  0  0  0  0  0  0  0  0  0  0
    1.7704    7.5190   -1.4985 H   0  0  0  0  0  0  0  0  0  0  0  0
    0.7504   12.3935   -1.6903 H   0  0  0  0  0  0  0  0  0  0  0  0
  1  2  2  0  0  0  0
  2  3  1  0  0  0  0
  3  4  2  0  0  0  0
  3  5  1  0  0  0  0
  5  6  2  0  0  0  0
  6  7  1  0  0  0  0
  7  8  2  0  0  0  0
  8  9  1  0  0  0  0
  9 10  2  0  0  0  0
 10 11  1  0  0  0  0
 11 12  2  0  0  0  0
 12 13  1  0  0  0  0
 13 14  3  0  0  0  0
 12 15  1  0  0  0  0
 15 16  3  0  0  0  0
  8 17  1  0  0  0  0
 17 18  1  0  0  0  0
 18 19  1  0  0  0  0
 19 20  2  0  0  0  0
 20 21  1  0  0  0  0
 21 22  1  0  0  0  0
 21 23  1  0  0  0  0
  1 24  1  0  0  0  0
 24 25  2  0  0  0  0
 25 26  1  0  0  0  0
 26 27  1  0  0  0  0
 27 28  2  0  0  0  0
 28 29  1  0  0  0  0
 29 30  2  0  0  0  0
 30 31  1  0  0  0  0
 31 32  1  0  0  0  0
 30 33  1  0  0  0  0
 33 34  2  0  0  0  0
 26 35  1  0  0  0  0
 35 36  2  0  0  0  0
 36 37  1  0  0  0  0
 37 38  2  0  0  0  0
 38 39  1  0  0  0  0
 39 40  1  0  0  0  0
 38 41  1  0  0  0  0
 41 42  2  0  0  0  0
 25 43  1  0  0  0  0
 43 44  1  0  0  0  0
 44 45  1  0  0  0  0
 45 46  2  0  0  0  0
 46 47  1  0  0  0  0
 47 48  1  0  0  0  0
 48 49  2  0  0  0  0
 49 50  1  0  0  0  0
 50 51  2  0  0  0  0
 51 52  1  0  0  0  0
 52 53  1  0  0  0  0
 51 54  1  0  0  0  0
 54 55  2  0  0  0  0
 47 56  1  0  0  0  0
 56 57  2  0  0  0  0
 57 58  1  0  0  0  0
 58 59  2  0  0  0  0
 59 60  1  0  0  0  0
 60 61  1  0  0  0  0
 59 62  1  0  0  0  0
 62 63  2  0  0  0  0
 46 64  1  0  0  0  0
 64 65  1  0  0  0  0
 45 66  1  0  0  0  0
 66 67  2  0  0  0  0
 67 68  1  0  0  0  0
 68 69  1  0  0  0  0
 69 70  2  0  0  0  0
 70 71  1  0  0  0  0
 71 72  2  0  0  0  0
 72 73  1  0  0  0  0
 73 74  1  0  0  0  0
 72 75  1  0  0  0  0
 75 76  2  0  0  0  0
 68 77  1  0  0  0  0
 77 78  2  0  0  0  0
 78 79  1  0  0  0  0
 79 80  2  0  0  0  0
 80 81  1  0  0  0  0
 81 82  1  0  0  0  0
 80 83  1  0  0  0  0
 83 84  2  0  0  0  0
 67 85  1  0  0  0  0
 85 86  1  0  0  0  0
 86 87  1  0  0  0  0
 87 88  2  0  0  0  0
 88 89  1  0  0  0  0
 89 90  1  0  0  0  0
 90 91  2  0  0  0  0
 91 92  1  0  0  0  0
 92 93  2  0  0  0  0
 93 94  1  0  0  0  0
 94 95  1  0  0  0  0
 93 96  1  0  0  0  0
 96 97  2  0  0  0  0
 89 98  1  0  0  0  0
 98 99  2  0  0  0  0
 99100  1  0  0  0  0
100101  2  0  0  0  0
101102  1  0  0  0  0
102103  1  0  0  0  0
101104  1  0  0  0  0
104105  2  0  0  0  0
 88106  1  0  0  0  0
106107  1  0  0  0  0
 87108  1  0  0  0  0
108109  2  0  0  0  0
109110  1  0  0  0  0
110111  2  0  0  0  0
110112  1  0  0  0  0
112113  1  0  0  0  0
113114  1  0  0  0  0
112115  1  0  0  0  0
115116  2  0  0  0  0
115117  1  0  0  0  0
117118  2  0  0  0  0
118119  1  0  0  0  0
119120  1  0  0  0  0
120121  2  0  0  0  0
121122  1  0  0  0  0
122123  1  0  0  0  0
118124  1  0  0  0  0
124125  2  0  0  0  0
125126  1  0  0  0  0
126127  2  0  0  0  0
126128  1  0  0  0  0
128129  2  0  0  0  0
129130  1  0  0  0  0
130131  1  0  0  0  0
130132  2  0  0  0  0
132133  1  0  0  0  0
132134  1  0  0  0  0
134135  2  0  0  0  0
135136  1  0  0  0  0
136137  2  0  0  0  0
 11  2  1  0  0  0  0
 23 17  1  0  0  0  0
 65 24  1  0  0  0  0
107 66  1  0  0  0  0
120108  1  0  0  0  0
136125  1  0  0  0  0
 10  5  1  0  0  0  0
 22 18  1  0  0  0  0
 34 27  1  0  0  0  0
 42 35  1  0  0  0  0
 64 43  2  0  0  0  0
 76 69  1  0  0  0  0
 84 77  1  0  0  0  0
106 85  2  0  0  0  0
117109  1  0  0  0  0
123119  2  0  0  0  0
135128  1  0  0  0  0
 23  7  1  0  0  0  0
 55 48  1  0  0  0  0
 63 56  1  0  0  0  0
 97 90  1  0  0  0  0
105 98  1  0  0  0  0
  1138  1  0  0  0  0
  6139  1  0  0  0  0
  9140  1  0  0  0  0
 17141  1  0  0  0  0
 18142  1  0  0  0  0
 19143  1  0  0  0  0
 20144  1  0  0  0  0
 21145  1  0  0  0  0
 22146  1  0  0  0  0
 22147  1  0  0  0  0
 23148  1  0  0  0  0
 28149  1  0  0  0  0
 29150  1  0  0  0  0
 32151  1  0  0  0  0
 32152  1  0  0  0  0
 32153  1  0  0  0  0
 33154  1  0  0  0  0
 34155  1  0  0  0  0
 36156  1  0  0  0  0
 37157  1  0  0  0  0
 40158  1  0  0  0  0
 40159  1  0  0  0  0
 40160  1  0  0  0  0
 41161  1  0  0  0  0
 42162  1  0  0  0  0
 49163  1  0  0  0  0
 50164  1  0  0  0  0
 53165  1  0  0  0  0
 53166  1  0  0  0  0
 53167  1  0  0  0  0
 54168  1  0  0  0  0
 55169  1  0  0  0  0
 57170  1  0  0  0  0
 58171  1  0  0  0  0
 61172  1  0  0  0  0
 61173  1  0  0  0  0
 61174  1  0  0  0  0
 62175  1  0  0  0  0
 63176  1  0  0  0  0
 70177  1  0  0  0  0
 71178  1  0  0  0  0
 74179  1  0  0  0  0
 74180  1  0  0  0  0
 74181  1  0  0  0  0
 75182  1  0  0  0  0
 76183  1  0  0  0  0
 78184  1  0  0  0  0
 79185  1  0  0  0  0
 82186  1  0  0  0  0
 82187  1  0  0  0  0
 82188  1  0  0  0  0
 83189  1  0  0  0  0
 84190  1  0  0  0  0
 91191  1  0  0  0  0
 92192  1  0  0  0  0
 95193  1  0  0  0  0
 95194  1  0  0  0  0
 95195  1  0  0  0  0
 96196  1  0  0  0  0
 97197  1  0  0  0  0
 99198  1  0  0  0  0
100199  1  0  0  0  0
103200  1  0  0  0  0
103201  1  0  0  0  0
103202  1  0  0  0  0
104203  1  0  0  0  0
105204  1  0  0  0  0
113205  1  0  0  0  0
113206  1  0  0  0  0
114207  1  0  0  0  0
114208  1  0  0  0  0
114209  1  0  0  0  0
124210  1  0  0  0  0
129211  1  0  0  0  0
134212  1  0  0  0  0
M  END
