
  xtb     02062218063D
 energy: -372.769432254628 gnorm: 0.000858582704 xtb: 6.4.1 (unknown)
219242  0     0  0            999 V2000
   -4.4263   -5.9215   -7.2795 C   0  0  0  0  0  0  0  0  0  0  0  0
   -3.9497   -6.8636   -8.1241 C   0  0  0  0  0  0  0  0  0  0  0  0
   -2.7583   -7.7229   -7.8627 C   0  0  0  0  0  0  0  0  0  0  0  0
   -2.1077   -7.7816   -6.8441 O   0  0  0  0  0  0  0  0  0  0  0  0
   -2.6154   -8.5738   -9.0559 C   0  0  0  0  0  0  0  0  0  0  0  0
   -1.6160   -9.5175   -9.2882 C   0  0  0  0  0  0  0  0  0  0  0  0
   -1.7337  -10.1738  -10.4888 C   0  0  0  0  0  0  0  0  0  0  0  0
   -2.7777   -9.9201  -11.3902 C   0  0  0  0  0  0  0  0  0  0  0  0
   -3.7758   -9.0028  -11.1694 C   0  0  0  0  0  0  0  0  0  0  0  0
   -3.6720   -8.3154   -9.9540 C   0  0  0  0  0  0  0  0  0  0  0  0
   -4.5447   -7.2961   -9.3808 C   0  0  0  0  0  0  0  0  0  0  0  0
   -5.7035   -6.8251   -9.9355 C   0  0  0  0  0  0  0  0  0  0  0  0
   -6.2198   -7.2446  -11.1807 C   0  0  0  0  0  0  0  0  0  0  0  0
   -6.6941   -7.5320  -12.1859 N   0  0  0  0  0  0  0  0  0  0  0  0
   -6.5775   -5.8815   -9.3504 C   0  0  0  0  0  0  0  0  0  0  0  0
   -7.3596   -5.1426   -8.9506 N   0  0  0  0  0  0  0  0  0  0  0  0
   -2.2724  -10.9354  -12.3846 C   0  0  0  0  0  0  0  0  0  0  0  0
   -1.5324  -10.3805  -13.6201 C   0  0  0  0  0  0  0  0  0  0  0  0
   -0.7555  -11.5686  -14.1395 C   0  0  0  0  0  0  0  0  0  0  0  0
    0.2332  -11.8079  -13.2876 C   0  0  0  0  0  0  0  0  0  0  0  0
    0.1414  -10.7855  -12.1780 C   0  0  0  0  0  0  0  0  0  0  0  0
   -0.3935   -9.5849  -12.9692 C   0  0  0  0  0  0  0  0  0  0  0  0
   -1.1083  -11.2167  -11.3810 C   0  0  0  0  0  0  0  0  0  0  0  0
   -3.7415   -5.3764   -6.1375 C   0  0  0  0  0  0  0  0  0  0  0  0
   -2.3945   -5.0532   -6.0907 C   0  0  0  0  0  0  0  0  0  0  0  0
   -1.6255   -5.2281   -7.1762 F   0  0  0  0  0  0  0  0  0  0  0  0
   -1.8085   -4.3701   -5.0128 C   0  0  0  0  0  0  0  0  0  0  0  0
   -0.5130   -4.0304   -5.1277 F   0  0  0  0  0  0  0  0  0  0  0  0
   -2.5318   -3.9208   -3.9225 C   0  0  0  0  0  0  0  0  0  0  0  0
   -3.8973   -4.3017   -3.8971 C   0  0  0  0  0  0  0  0  0  0  0  0
   -4.4942   -5.0050   -4.9950 C   0  0  0  0  0  0  0  0  0  0  0  0
   -5.7857   -5.2463   -4.7884 N   0  0  0  0  0  0  0  0  0  0  0  0
   -6.2001   -4.6573   -3.3524 S   0  0  0  0  0  0  0  0  0  0  0  0
   -4.7689   -4.0682   -2.9189 N   0  0  0  0  0  0  0  0  0  0  0  0
   -2.0189   -3.0225   -2.9196 C   0  0  0  0  0  0  0  0  0  0  0  0
   -2.6464   -1.8547   -2.5056 C   0  0  0  0  0  0  0  0  0  0  0  0
   -3.7660   -1.2969   -3.0964 N   0  0  0  0  0  0  0  0  0  0  0  0
   -4.0013   -1.4911   -4.4661 C   0  0  0  0  0  0  0  0  0  0  0  0
   -2.9415   -1.4468   -5.3694 C   0  0  0  0  0  0  0  0  0  0  0  0
   -3.1231   -1.7854   -6.6955 C   0  0  0  0  0  0  0  0  0  0  0  0
   -4.3777   -2.1720   -7.1480 C   0  0  0  0  0  0  0  0  0  0  0  0
   -4.7081   -2.7415   -8.7849 S   0  0  0  0  0  0  0  0  0  0  0  0
   -3.0605   -2.8993   -9.5339 C   0  0  0  0  0  0  0  0  0  0  0  0
   -5.4605   -2.1264   -6.2711 C   0  0  0  0  0  0  0  0  0  0  0  0
   -5.2782   -1.7828   -4.9499 C   0  0  0  0  0  0  0  0  0  0  0  0
   -4.7363   -0.6943   -2.2868 C   0  0  0  0  0  0  0  0  0  0  0  0
   -5.4789    0.3818   -2.7651 C   0  0  0  0  0  0  0  0  0  0  0  0
   -6.4676    0.9540   -1.9913 C   0  0  0  0  0  0  0  0  0  0  0  0
   -6.7167    0.4665   -0.7157 C   0  0  0  0  0  0  0  0  0  0  0  0
   -7.9702    1.1120    0.3496 S   0  0  0  0  0  0  0  0  0  0  0  0
   -9.0406    2.0508   -0.7767 C   0  0  0  0  0  0  0  0  0  0  0  0
   -5.9559   -0.5886   -0.2205 C   0  0  0  0  0  0  0  0  0  0  0  0
   -4.9812   -1.1709   -0.9993 C   0  0  0  0  0  0  0  0  0  0  0  0
   -1.9210   -1.2480   -1.4522 C   0  0  0  0  0  0  0  0  0  0  0  0
   -2.1281    0.1893   -0.5087 S   0  0  0  0  0  0  0  0  0  0  0  0
   -0.6590   -0.1686    0.3878 C   0  0  0  0  0  0  0  0  0  0  0  0
   -0.0233   -1.3088   -0.0823 C   0  0  0  0  0  0  0  0  0  0  0  0
    1.2193   -1.7456    0.3609 N   0  0  0  0  0  0  0  0  0  0  0  0
    2.2631   -0.8221    0.4830 C   0  0  0  0  0  0  0  0  0  0  0  0
    3.1410   -0.9038    1.5622 C   0  0  0  0  0  0  0  0  0  0  0  0
    4.1159    0.0538    1.7430 C   0  0  0  0  0  0  0  0  0  0  0  0
    4.2456    1.0957    0.8356 C   0  0  0  0  0  0  0  0  0  0  0  0
    5.4445    2.3871    1.0806 S   0  0  0  0  0  0  0  0  0  0  0  0
    5.0107    2.9258    2.7650 C   0  0  0  0  0  0  0  0  0  0  0  0
    3.4299    1.1331   -0.2892 C   0  0  0  0  0  0  0  0  0  0  0  0
    2.4321    0.1937   -0.4557 C   0  0  0  0  0  0  0  0  0  0  0  0
    1.4311   -3.1139    0.5490 C   0  0  0  0  0  0  0  0  0  0  0  0
    0.4097   -3.9173    1.0566 C   0  0  0  0  0  0  0  0  0  0  0  0
    0.5948   -5.2749    1.1883 C   0  0  0  0  0  0  0  0  0  0  0  0
    1.8043   -5.8608    0.8229 C   0  0  0  0  0  0  0  0  0  0  0  0
    1.9422   -7.6087    1.0396 S   0  0  0  0  0  0  0  0  0  0  0  0
    3.4082   -8.0421    0.0573 C   0  0  0  0  0  0  0  0  0  0  0  0
    2.8345   -5.0602    0.3467 C   0  0  0  0  0  0  0  0  0  0  0  0
    2.6467   -3.6991    0.2068 C   0  0  0  0  0  0  0  0  0  0  0  0
   -0.7597   -1.9258   -1.1153 C   0  0  0  0  0  0  0  0  0  0  0  0
   -0.5026   -3.3205   -2.0991 S   0  0  0  0  0  0  0  0  0  0  0  0
   -0.2088    0.5574    1.5377 C   0  0  0  0  0  0  0  0  0  0  0  0
   -0.0122    1.9091    1.7569 C   0  0  0  0  0  0  0  0  0  0  0  0
   -0.3695    2.9426    0.9010 N   0  0  0  0  0  0  0  0  0  0  0  0
    0.4673    4.0806    0.9192 C   0  0  0  0  0  0  0  0  0  0  0  0
    1.8332    3.9146    0.7092 C   0  0  0  0  0  0  0  0  0  0  0  0
    2.6945    4.9852    0.8113 C   0  0  0  0  0  0  0  0  0  0  0  0
    2.2011    6.2414    1.1402 C   0  0  0  0  0  0  0  0  0  0  0  0
    3.3566    7.5646    1.3269 S   0  0  0  0  0  0  0  0  0  0  0  0
    2.5855    8.5331    2.6595 C   0  0  0  0  0  0  0  0  0  0  0  0
    0.8349    6.4229    1.3071 C   0  0  0  0  0  0  0  0  0  0  0  0
   -0.0272    5.3508    1.1985 C   0  0  0  0  0  0  0  0  0  0  0  0
   -1.6920    3.0953    0.4689 C   0  0  0  0  0  0  0  0  0  0  0  0
   -2.7689    2.5889    1.1952 C   0  0  0  0  0  0  0  0  0  0  0  0
   -4.0659    2.8503    0.7980 C   0  0  0  0  0  0  0  0  0  0  0  0
   -4.3020    3.6349   -0.3207 C   0  0  0  0  0  0  0  0  0  0  0  0
   -5.9351    4.1214   -0.7980 S   0  0  0  0  0  0  0  0  0  0  0  0
   -6.7005    4.4326    0.8259 C   0  0  0  0  0  0  0  0  0  0  0  0
   -3.2335    4.0915   -1.0850 C   0  0  0  0  0  0  0  0  0  0  0  0
   -1.9406    3.8223   -0.6962 C   0  0  0  0  0  0  0  0  0  0  0  0
    0.6449    2.1342    2.9940 C   0  0  0  0  0  0  0  0  0  0  0  0
    1.2984    3.5439    3.7339 S   0  0  0  0  0  0  0  0  0  0  0  0
    1.8043    2.5954    5.1392 C   0  0  0  0  0  0  0  0  0  0  0  0
    1.3919    1.2438    5.0294 C   0  0  0  0  0  0  0  0  0  0  0  0
    1.5175    0.2798    5.9928 N   0  0  0  0  0  0  0  0  0  0  0  0
    1.2482    0.5016    7.3532 C   0  0  0  0  0  0  0  0  0  0  0  0
    1.8402   -0.3318    8.3023 C   0  0  0  0  0  0  0  0  0  0  0  0
    1.5587   -0.1692    9.6398 C   0  0  0  0  0  0  0  0  0  0  0  0
    0.6864    0.8311   10.0587 C   0  0  0  0  0  0  0  0  0  0  0  0
    0.3857    0.9791   11.7865 S   0  0  0  0  0  0  0  0  0  0  0  0
   -0.0127    2.7439   11.9538 C   0  0  0  0  0  0  0  0  0  0  0  0
    0.0794    1.6496    9.1129 C   0  0  0  0  0  0  0  0  0  0  0  0
    0.3578    1.4869    7.7729 C   0  0  0  0  0  0  0  0  0  0  0  0
    1.6063   -1.0751    5.5830 C   0  0  0  0  0  0  0  0  0  0  0  0
    2.7336   -1.5231    4.9099 C   0  0  0  0  0  0  0  0  0  0  0  0
    2.8499   -2.8517    4.5423 C   0  0  0  0  0  0  0  0  0  0  0  0
    1.8266   -3.7441    4.8336 C   0  0  0  0  0  0  0  0  0  0  0  0
    1.8530   -5.4532    4.4181 S   0  0  0  0  0  0  0  0  0  0  0  0
    3.5252   -5.7243    3.7712 C   0  0  0  0  0  0  0  0  0  0  0  0
    0.6913   -3.2898    5.5065 C   0  0  0  0  0  0  0  0  0  0  0  0
    0.5844   -1.9725    5.8872 C   0  0  0  0  0  0  0  0  0  0  0  0
    0.8350    0.9946    3.7599 C   0  0  0  0  0  0  0  0  0  0  0  0
    0.2614   -0.4168    2.9357 S   0  0  0  0  0  0  0  0  0  0  0  0
    2.6362    3.0953    6.1467 C   0  0  0  0  0  0  0  0  0  0  0  0
    3.4085    4.2346    6.1358 C   0  0  0  0  0  0  0  0  0  0  0  0
    3.5328    5.2142    5.0501 C   0  0  0  0  0  0  0  0  0  0  0  0
    2.7126    5.4836    4.1877 O   0  0  0  0  0  0  0  0  0  0  0  0
    4.8355    5.8742    5.2399 C   0  0  0  0  0  0  0  0  0  0  0  0
    5.4710    6.7538    4.3677 C   0  0  0  0  0  0  0  0  0  0  0  0
    6.6880    7.2026    4.8227 C   0  0  0  0  0  0  0  0  0  0  0  0
    7.2334    6.8069    6.0510 C   0  0  0  0  0  0  0  0  0  0  0  0
    6.6170    5.9349    6.9185 C   0  0  0  0  0  0  0  0  0  0  0  0
    5.3784    5.4672    6.4756 C   0  0  0  0  0  0  0  0  0  0  0  0
    4.4303    4.5524    7.1088 C   0  0  0  0  0  0  0  0  0  0  0  0
    4.4468    4.1701    8.4267 C   0  0  0  0  0  0  0  0  0  0  0  0
    5.4764    4.4875    9.3341 C   0  0  0  0  0  0  0  0  0  0  0  0
    6.2907    4.6993   10.1158 N   0  0  0  0  0  0  0  0  0  0  0  0
    3.3658    3.5431    9.0719 C   0  0  0  0  0  0  0  0  0  0  0  0
    2.4876    3.1246    9.6833 N   0  0  0  0  0  0  0  0  0  0  0  0
    8.4684    7.6523    5.8648 C   0  0  0  0  0  0  0  0  0  0  0  0
    8.5517    8.9857    6.6478 C   0  0  0  0  0  0  0  0  0  0  0  0
    7.1308    9.4268    6.8964 C   0  0  0  0  0  0  0  0  0  0  0  0
    6.6142    9.8011    5.7336 C   0  0  0  0  0  0  0  0  0  0  0  0
    7.6762    9.6197    4.6775 C   0  0  0  0  0  0  0  0  0  0  0  0
    8.9339    9.9365    5.5020 C   0  0  0  0  0  0  0  0  0  0  0  0
    7.8600    8.0927    4.4960 C   0  0  0  0  0  0  0  0  0  0  0  0
   -5.4169   -5.5119   -7.4266 H   0  0  0  0  0  0  0  0  0  0  0  0
   -0.8358   -9.6847   -8.5623 H   0  0  0  0  0  0  0  0  0  0  0  0
   -4.5763   -8.8282  -11.8683 H   0  0  0  0  0  0  0  0  0  0  0  0
   -2.9591  -11.7440  -12.6270 H   0  0  0  0  0  0  0  0  0  0  0  0
   -2.1652   -9.8592  -14.3331 H   0  0  0  0  0  0  0  0  0  0  0  0
   -1.0295  -12.1284  -15.0143 H   0  0  0  0  0  0  0  0  0  0  0  0
    0.9500  -12.6077  -13.3086 H   0  0  0  0  0  0  0  0  0  0  0  0
    1.0342  -10.6329  -11.5778 H   0  0  0  0  0  0  0  0  0  0  0  0
    0.3255   -9.2219  -13.7017 H   0  0  0  0  0  0  0  0  0  0  0  0
   -0.7287   -8.7570  -12.3471 H   0  0  0  0  0  0  0  0  0  0  0  0
   -1.0174  -12.2136  -10.9539 H   0  0  0  0  0  0  0  0  0  0  0  0
   -1.9575   -1.1669   -5.0228 H   0  0  0  0  0  0  0  0  0  0  0  0
   -2.2754   -1.7547   -7.3605 H   0  0  0  0  0  0  0  0  0  0  0  0
   -2.6039   -1.9206   -9.6483 H   0  0  0  0  0  0  0  0  0  0  0  0
   -2.4379   -3.5587   -8.9373 H   0  0  0  0  0  0  0  0  0  0  0  0
   -3.2293   -3.3386  -10.5124 H   0  0  0  0  0  0  0  0  0  0  0  0
   -6.4404   -2.3932   -6.6360 H   0  0  0  0  0  0  0  0  0  0  0  0
   -6.1201   -1.7739   -4.2734 H   0  0  0  0  0  0  0  0  0  0  0  0
   -5.2821    0.7695   -3.7534 H   0  0  0  0  0  0  0  0  0  0  0  0
   -7.0229    1.7875   -2.3879 H   0  0  0  0  0  0  0  0  0  0  0  0
   -9.3420    1.4121   -1.6014 H   0  0  0  0  0  0  0  0  0  0  0  0
   -9.9083    2.3359   -0.1899 H   0  0  0  0  0  0  0  0  0  0  0  0
   -8.5256    2.9383   -1.1328 H   0  0  0  0  0  0  0  0  0  0  0  0
   -6.1544   -0.9609    0.7730 H   0  0  0  0  0  0  0  0  0  0  0  0
   -4.4273   -2.0196   -0.6291 H   0  0  0  0  0  0  0  0  0  0  0  0
    3.0258   -1.7121    2.2661 H   0  0  0  0  0  0  0  0  0  0  0  0
    4.7793   -0.0072    2.5927 H   0  0  0  0  0  0  0  0  0  0  0  0
    5.1931    2.1298    3.4807 H   0  0  0  0  0  0  0  0  0  0  0  0
    3.9700    3.2366    2.7861 H   0  0  0  0  0  0  0  0  0  0  0  0
    5.6539    3.7722    2.9852 H   0  0  0  0  0  0  0  0  0  0  0  0
    3.5850    1.9029   -1.0302 H   0  0  0  0  0  0  0  0  0  0  0  0
    1.7768    0.2450   -1.3124 H   0  0  0  0  0  0  0  0  0  0  0  0
   -0.5271   -3.4662    1.3472 H   0  0  0  0  0  0  0  0  0  0  0  0
   -0.1928   -5.8983    1.5812 H   0  0  0  0  0  0  0  0  0  0  0  0
    4.3126   -7.6846    0.5418 H   0  0  0  0  0  0  0  0  0  0  0  0
    3.4221   -9.1266    0.0147 H   0  0  0  0  0  0  0  0  0  0  0  0
    3.3091   -7.6332   -0.9435 H   0  0  0  0  0  0  0  0  0  0  0  0
    3.7858   -5.4850    0.0675 H   0  0  0  0  0  0  0  0  0  0  0  0
    3.4452   -3.0850   -0.1830 H   0  0  0  0  0  0  0  0  0  0  0  0
    2.2091    2.9272    0.4930 H   0  0  0  0  0  0  0  0  0  0  0  0
    3.7539    4.8530    0.6549 H   0  0  0  0  0  0  0  0  0  0  0  0
    3.3625    9.1794    3.0566 H   0  0  0  0  0  0  0  0  0  0  0  0
    2.2393    7.8419    3.4222 H   0  0  0  0  0  0  0  0  0  0  0  0
    1.7712    9.1383    2.2718 H   0  0  0  0  0  0  0  0  0  0  0  0
    0.4341    7.3964    1.5409 H   0  0  0  0  0  0  0  0  0  0  0  0
   -1.0864    5.4937    1.3539 H   0  0  0  0  0  0  0  0  0  0  0  0
   -2.5904    2.0098    2.0891 H   0  0  0  0  0  0  0  0  0  0  0  0
   -4.8876    2.4563    1.3752 H   0  0  0  0  0  0  0  0  0  0  0  0
   -5.9909    4.9637    1.4519 H   0  0  0  0  0  0  0  0  0  0  0  0
   -7.5704    5.0540    0.6379 H   0  0  0  0  0  0  0  0  0  0  0  0
   -7.0064    3.4982    1.2873 H   0  0  0  0  0  0  0  0  0  0  0  0
   -3.4287    4.6740   -1.9722 H   0  0  0  0  0  0  0  0  0  0  0  0
   -1.1082    4.1977   -1.2722 H   0  0  0  0  0  0  0  0  0  0  0  0
    2.5277   -1.1006    7.9822 H   0  0  0  0  0  0  0  0  0  0  0  0
    2.0233   -0.8057   10.3764 H   0  0  0  0  0  0  0  0  0  0  0  0
    0.1252    2.9853   13.0030 H   0  0  0  0  0  0  0  0  0  0  0  0
   -1.0437    2.9311   11.6669 H   0  0  0  0  0  0  0  0  0  0  0  0
    0.6829    3.3079   11.3411 H   0  0  0  0  0  0  0  0  0  0  0  0
   -0.6186    2.4138    9.4132 H   0  0  0  0  0  0  0  0  0  0  0  0
   -0.1238    2.1212    7.0434 H   0  0  0  0  0  0  0  0  0  0  0  0
    3.5274   -0.8257    4.6865 H   0  0  0  0  0  0  0  0  0  0  0  0
    3.7462   -3.1811    4.0411 H   0  0  0  0  0  0  0  0  0  0  0  0
    3.5737   -6.7853    3.5468 H   0  0  0  0  0  0  0  0  0  0  0  0
    3.6693   -5.1494    2.8606 H   0  0  0  0  0  0  0  0  0  0  0  0
    4.2610   -5.4698    4.5282 H   0  0  0  0  0  0  0  0  0  0  0  0
   -0.0985   -3.9900    5.7286 H   0  0  0  0  0  0  0  0  0  0  0  0
   -0.2872   -1.6246    6.4206 H   0  0  0  0  0  0  0  0  0  0  0  0
    2.7813    2.4256    6.9886 H   0  0  0  0  0  0  0  0  0  0  0  0
    5.0269    7.0257    3.4228 H   0  0  0  0  0  0  0  0  0  0  0  0
    7.0516    5.6286    7.8557 H   0  0  0  0  0  0  0  0  0  0  0  0
    9.4162    7.1178    5.8541 H   0  0  0  0  0  0  0  0  0  0  0  0
    9.2041    8.9590    7.5163 H   0  0  0  0  0  0  0  0  0  0  0  0
    6.6445    9.3678    7.8525 H   0  0  0  0  0  0  0  0  0  0  0  0
    5.6092   10.1186    5.5252 H   0  0  0  0  0  0  0  0  0  0  0  0
    7.5321   10.1697    3.7513 H   0  0  0  0  0  0  0  0  0  0  0  0
    9.8611    9.6616    5.0013 H   0  0  0  0  0  0  0  0  0  0  0  0
    8.9805   10.9779    5.8167 H   0  0  0  0  0  0  0  0  0  0  0  0
    8.4090    7.8461    3.5895 H   0  0  0  0  0  0  0  0  0  0  0  0
  1  2  2  0  0  0  0
  2  3  1  0  0  0  0
  3  4  2  0  0  0  0
  3  5  1  0  0  0  0
  5  6  2  0  0  0  0
  6  7  1  0  0  0  0
  7  8  2  0  0  0  0
  8  9  1  0  0  0  0
  9 10  2  0  0  0  0
 10 11  1  0  0  0  0
 11 12  2  0  0  0  0
 12 13  1  0  0  0  0
 13 14  3  0  0  0  0
 12 15  1  0  0  0  0
 15 16  3  0  0  0  0
  8 17  1  0  0  0  0
 17 18  1  0  0  0  0
 18 19  1  0  0  0  0
 19 20  2  0  0  0  0
 20 21  1  0  0  0  0
 21 22  1  0  0  0  0
 21 23  1  0  0  0  0
  1 24  1  0  0  0  0
 24 25  2  0  0  0  0
 25 26  1  0  0  0  0
 25 27  1  0  0  0  0
 27 28  1  0  0  0  0
 27 29  2  0  0  0  0
 29 30  1  0  0  0  0
 30 31  1  0  0  0  0
 31 32  2  0  0  0  0
 32 33  1  0  0  0  0
 33 34  1  0  0  0  0
 29 35  1  0  0  0  0
 35 36  2  0  0  0  0
 36 37  1  0  0  0  0
 37 38  1  0  0  0  0
 38 39  2  0  0  0  0
 39 40  1  0  0  0  0
 40 41  2  0  0  0  0
 41 42  1  0  0  0  0
 42 43  1  0  0  0  0
 41 44  1  0  0  0  0
 44 45  2  0  0  0  0
 37 46  1  0  0  0  0
 46 47  2  0  0  0  0
 47 48  1  0  0  0  0
 48 49  2  0  0  0  0
 49 50  1  0  0  0  0
 50 51  1  0  0  0  0
 49 52  1  0  0  0  0
 52 53  2  0  0  0  0
 36 54  1  0  0  0  0
 54 55  1  0  0  0  0
 55 56  1  0  0  0  0
 56 57  2  0  0  0  0
 57 58  1  0  0  0  0
 58 59  1  0  0  0  0
 59 60  2  0  0  0  0
 60 61  1  0  0  0  0
 61 62  2  0  0  0  0
 62 63  1  0  0  0  0
 63 64  1  0  0  0  0
 62 65  1  0  0  0  0
 65 66  2  0  0  0  0
 58 67  1  0  0  0  0
 67 68  2  0  0  0  0
 68 69  1  0  0  0  0
 69 70  2  0  0  0  0
 70 71  1  0  0  0  0
 71 72  1  0  0  0  0
 70 73  1  0  0  0  0
 73 74  2  0  0  0  0
 57 75  1  0  0  0  0
 75 76  1  0  0  0  0
 56 77  1  0  0  0  0
 77 78  2  0  0  0  0
 78 79  1  0  0  0  0
 79 80  1  0  0  0  0
 80 81  2  0  0  0  0
 81 82  1  0  0  0  0
 82 83  2  0  0  0  0
 83 84  1  0  0  0  0
 84 85  1  0  0  0  0
 83 86  1  0  0  0  0
 86 87  2  0  0  0  0
 79 88  1  0  0  0  0
 88 89  2  0  0  0  0
 89 90  1  0  0  0  0
 90 91  2  0  0  0  0
 91 92  1  0  0  0  0
 92 93  1  0  0  0  0
 91 94  1  0  0  0  0
 94 95  2  0  0  0  0
 78 96  1  0  0  0  0
 96 97  1  0  0  0  0
 97 98  1  0  0  0  0
 98 99  2  0  0  0  0
 99100  1  0  0  0  0
100101  1  0  0  0  0
101102  2  0  0  0  0
102103  1  0  0  0  0
103104  2  0  0  0  0
104105  1  0  0  0  0
105106  1  0  0  0  0
104107  1  0  0  0  0
107108  2  0  0  0  0
100109  1  0  0  0  0
109110  2  0  0  0  0
110111  1  0  0  0  0
111112  2  0  0  0  0
112113  1  0  0  0  0
113114  1  0  0  0  0
112115  1  0  0  0  0
115116  2  0  0  0  0
 99117  1  0  0  0  0
117118  1  0  0  0  0
 98119  1  0  0  0  0
119120  2  0  0  0  0
120121  1  0  0  0  0
121122  2  0  0  0  0
121123  1  0  0  0  0
123124  2  0  0  0  0
124125  1  0  0  0  0
125126  2  0  0  0  0
126127  1  0  0  0  0
127128  2  0  0  0  0
128129  1  0  0  0  0
129130  2  0  0  0  0
130131  1  0  0  0  0
131132  3  0  0  0  0
130133  1  0  0  0  0
133134  3  0  0  0  0
126135  1  0  0  0  0
135136  1  0  0  0  0
136137  1  0  0  0  0
137138  2  0  0  0  0
138139  1  0  0  0  0
139140  1  0  0  0  0
139141  1  0  0  0  0
 11  2  1  0  0  0  0
 23 17  1  0  0  0  0
 31 24  1  0  0  0  0
 76 35  1  0  0  0  0
118 77  1  0  0  0  0
129120  1  0  0  0  0
141135  1  0  0  0  0
 10  5  1  0  0  0  0
 22 18  1  0  0  0  0
 34 30  2  0  0  0  0
 45 38  1  0  0  0  0
 53 46  1  0  0  0  0
 75 54  2  0  0  0  0
 87 80  1  0  0  0  0
 95 88  1  0  0  0  0
117 96  2  0  0  0  0
128123  1  0  0  0  0
140136  1  0  0  0  0
 23  7  1  0  0  0  0
 66 59  1  0  0  0  0
 74 67  1  0  0  0  0
108101  1  0  0  0  0
116109  1  0  0  0  0
141125  1  0  0  0  0
  1142  1  0  0  0  0
  6143  1  0  0  0  0
  9144  1  0  0  0  0
 17145  1  0  0  0  0
 18146  1  0  0  0  0
 19147  1  0  0  0  0
 20148  1  0  0  0  0
 21149  1  0  0  0  0
 22150  1  0  0  0  0
 22151  1  0  0  0  0
 23152  1  0  0  0  0
 39153  1  0  0  0  0
 40154  1  0  0  0  0
 43155  1  0  0  0  0
 43156  1  0  0  0  0
 43157  1  0  0  0  0
 44158  1  0  0  0  0
 45159  1  0  0  0  0
 47160  1  0  0  0  0
 48161  1  0  0  0  0
 51162  1  0  0  0  0
 51163  1  0  0  0  0
 51164  1  0  0  0  0
 52165  1  0  0  0  0
 53166  1  0  0  0  0
 60167  1  0  0  0  0
 61168  1  0  0  0  0
 64169  1  0  0  0  0
 64170  1  0  0  0  0
 64171  1  0  0  0  0
 65172  1  0  0  0  0
 66173  1  0  0  0  0
 68174  1  0  0  0  0
 69175  1  0  0  0  0
 72176  1  0  0  0  0
 72177  1  0  0  0  0
 72178  1  0  0  0  0
 73179  1  0  0  0  0
 74180  1  0  0  0  0
 81181  1  0  0  0  0
 82182  1  0  0  0  0
 85183  1  0  0  0  0
 85184  1  0  0  0  0
 85185  1  0  0  0  0
 86186  1  0  0  0  0
 87187  1  0  0  0  0
 89188  1  0  0  0  0
 90189  1  0  0  0  0
 93190  1  0  0  0  0
 93191  1  0  0  0  0
 93192  1  0  0  0  0
 94193  1  0  0  0  0
 95194  1  0  0  0  0
102195  1  0  0  0  0
103196  1  0  0  0  0
106197  1  0  0  0  0
106198  1  0  0  0  0
106199  1  0  0  0  0
107200  1  0  0  0  0
108201  1  0  0  0  0
110202  1  0  0  0  0
111203  1  0  0  0  0
114204  1  0  0  0  0
114205  1  0  0  0  0
114206  1  0  0  0  0
115207  1  0  0  0  0
116208  1  0  0  0  0
119209  1  0  0  0  0
124210  1  0  0  0  0
127211  1  0  0  0  0
135212  1  0  0  0  0
136213  1  0  0  0  0
137214  1  0  0  0  0
138215  1  0  0  0  0
139216  1  0  0  0  0
140217  1  0  0  0  0
140218  1  0  0  0  0
141219  1  0  0  0  0
M  END
