
  xtb     02122208553D
 energy: -416.090901783221 gnorm: 0.000453058057 xtb: 6.4.1 (unknown)
252278  0     0  0            999 V2000
    6.4563    4.8425    6.1536 C   0  0  0  0  0  0  0  0  0  0  0  0
    7.1142    4.9871    4.9698 C   0  0  0  0  0  0  0  0  0  0  0  0
    7.2321    3.9655    3.8945 C   0  0  0  0  0  0  0  0  0  0  0  0
    7.0949    2.7627    3.9623 O   0  0  0  0  0  0  0  0  0  0  0  0
    7.5372    4.7260    2.6683 C   0  0  0  0  0  0  0  0  0  0  0  0
    7.6411    4.2085    1.3783 C   0  0  0  0  0  0  0  0  0  0  0  0
    7.9108    5.1515    0.4158 C   0  0  0  0  0  0  0  0  0  0  0  0
    8.0614    6.5135    0.7123 C   0  0  0  0  0  0  0  0  0  0  0  0
    7.9712    7.0353    1.9806 C   0  0  0  0  0  0  0  0  0  0  0  0
    7.7052    6.0900    2.9760 C   0  0  0  0  0  0  0  0  0  0  0  0
    7.5425    6.2595    4.4146 C   0  0  0  0  0  0  0  0  0  0  0  0
    7.8217    7.3929    5.1302 C   0  0  0  0  0  0  0  0  0  0  0  0
    7.7505    7.4852    6.5369 C   0  0  0  0  0  0  0  0  0  0  0  0
    7.7395    7.6280    7.6761 N   0  0  0  0  0  0  0  0  0  0  0  0
    8.2734    8.6011    4.5607 C   0  0  0  0  0  0  0  0  0  0  0  0
    8.6425    9.6105    4.1570 N   0  0  0  0  0  0  0  0  0  0  0  0
    8.3063    6.8806   -0.7304 C   0  0  0  0  0  0  0  0  0  0  0  0
    9.7645    7.1690   -1.1643 C   0  0  0  0  0  0  0  0  0  0  0  0
   10.6531    6.3958   -0.2217 C   0  0  0  0  0  0  0  0  0  0  0  0
   10.5135    5.1066   -0.4997 C   0  0  0  0  0  0  0  0  0  0  0  0
    9.5280    4.9846   -1.6358 C   0  0  0  0  0  0  0  0  0  0  0  0
    9.8469    6.2730   -2.4107 C   0  0  0  0  0  0  0  0  0  0  0  0
    8.1414    5.3631   -1.0594 C   0  0  0  0  0  0  0  0  0  0  0  0
    5.9296    3.6308    6.6671 C   0  0  0  0  0  0  0  0  0  0  0  0
    6.3652    2.3420    6.5180 C   0  0  0  0  0  0  0  0  0  0  0  0
    5.4156    1.3739    6.9067 C   0  0  0  0  0  0  0  0  0  0  0  0
    5.4558   -0.0130    6.6157 C   0  0  0  0  0  0  0  0  0  0  0  0
    6.6887   -0.6834    6.3197 C   0  0  0  0  0  0  0  0  0  0  0  0
    7.9611   -0.3436    6.7198 C   0  0  0  0  0  0  0  0  0  0  0  0
    8.9487   -1.2446    6.3033 C   0  0  0  0  0  0  0  0  0  0  0  0
    8.4390   -2.2940    5.5869 C   0  0  0  0  0  0  0  0  0  0  0  0
    9.3574   -3.5698    4.8346 S   0  0  0  0  0  0  0  0  0  0  0  0
    8.1306   -4.9286    4.8059 C   0  0  0  0  0  0  0  0  0  0  0  0
    7.8401   -5.4548    6.1957 C   0  0  0  0  0  0  0  0  0  0  0  0
    6.7176   -2.1710    5.4122 S   0  0  0  0  0  0  0  0  0  0  0  0
    4.2036   -0.6203    6.5304 C   0  0  0  0  0  0  0  0  0  0  0  0
    3.0001   -0.0177    6.9741 C   0  0  0  0  0  0  0  0  0  0  0  0
    3.0174    1.2849    7.5082 C   0  0  0  0  0  0  0  0  0  0  0  0
    1.8385    1.9660    8.0061 C   0  0  0  0  0  0  0  0  0  0  0  0
    0.5872    2.0900    7.4718 C   0  0  0  0  0  0  0  0  0  0  0  0
   -0.2681    2.9180    8.2205 C   0  0  0  0  0  0  0  0  0  0  0  0
    0.3301    3.4298    9.3362 C   0  0  0  0  0  0  0  0  0  0  0  0
   -0.4431    4.4465   10.5236 S   0  0  0  0  0  0  0  0  0  0  0  0
    0.9945    5.2960   11.2714 C   0  0  0  0  0  0  0  0  0  0  0  0
    1.6544    6.2649   10.3111 C   0  0  0  0  0  0  0  0  0  0  0  0
    1.9690    2.8749    9.4887 S   0  0  0  0  0  0  0  0  0  0  0  0
    4.2231    1.9682    7.3837 C   0  0  0  0  0  0  0  0  0  0  0  0
    4.3785    3.6989    7.4943 S   0  0  0  0  0  0  0  0  0  0  0  0
    1.8557   -0.7449    6.5540 C   0  0  0  0  0  0  0  0  0  0  0  0
    2.1613   -1.7586    5.6935 C   0  0  0  0  0  0  0  0  0  0  0  0
    3.8784   -2.0791    5.6368 S   0  0  0  0  0  0  0  0  0  0  0  0
    1.3443   -2.1644    4.5784 C   0  0  0  0  0  0  0  0  0  0  0  0
    1.6982   -1.8467    3.2805 C   0  0  0  0  0  0  0  0  0  0  0  0
    2.9451   -1.3396    2.8558 N   0  0  0  0  0  0  0  0  0  0  0  0
    3.9304   -2.2622    2.4935 C   0  0  0  0  0  0  0  0  0  0  0  0
    5.2855   -1.9352    2.5130 C   0  0  0  0  0  0  0  0  0  0  0  0
    6.2484   -2.8648    2.1736 C   0  0  0  0  0  0  0  0  0  0  0  0
    5.8813   -4.1580    1.8341 C   0  0  0  0  0  0  0  0  0  0  0  0
    7.0348   -5.4286    1.3982 S   0  0  0  0  0  0  0  0  0  0  0  0
    8.5542   -4.5059    1.0292 C   0  0  0  0  0  0  0  0  0  0  0  0
    4.5366   -4.5077    1.8639 C   0  0  0  0  0  0  0  0  0  0  0  0
    3.5739   -3.5748    2.1769 C   0  0  0  0  0  0  0  0  0  0  0  0
    3.1385    0.0452    2.8381 C   0  0  0  0  0  0  0  0  0  0  0  0
    3.9905    0.6488    1.9100 C   0  0  0  0  0  0  0  0  0  0  0  0
    4.2699    1.9981    1.9732 C   0  0  0  0  0  0  0  0  0  0  0  0
    3.6853    2.7885    2.9519 C   0  0  0  0  0  0  0  0  0  0  0  0
    4.0775    4.5083    3.1529 S   0  0  0  0  0  0  0  0  0  0  0  0
    4.2205    5.0700    1.4285 C   0  0  0  0  0  0  0  0  0  0  0  0
    2.7639    2.2195    3.8191 C   0  0  0  0  0  0  0  0  0  0  0  0
    2.4777    0.8725    3.7484 C   0  0  0  0  0  0  0  0  0  0  0  0
    0.6065   -2.0117    2.4036 C   0  0  0  0  0  0  0  0  0  0  0  0
    0.3937   -1.7003    0.7252 S   0  0  0  0  0  0  0  0  0  0  0  0
   -1.3058   -2.1318    0.8571 C   0  0  0  0  0  0  0  0  0  0  0  0
   -1.6582   -2.5317    2.1259 C   0  0  0  0  0  0  0  0  0  0  0  0
   -2.9466   -2.9146    2.4969 N   0  0  0  0  0  0  0  0  0  0  0  0
   -3.4677   -2.3400    3.6610 C   0  0  0  0  0  0  0  0  0  0  0  0
   -3.1665   -1.0085    3.9576 C   0  0  0  0  0  0  0  0  0  0  0  0
   -3.6192   -0.4350    5.1232 C   0  0  0  0  0  0  0  0  0  0  0  0
   -4.3958   -1.1681    6.0180 C   0  0  0  0  0  0  0  0  0  0  0  0
   -4.9081   -0.3231    7.4822 S   0  0  0  0  0  0  0  0  0  0  0  0
   -5.8930   -1.5543    8.3799 C   0  0  0  0  0  0  0  0  0  0  0  0
   -4.7127   -2.4860    5.7197 C   0  0  0  0  0  0  0  0  0  0  0  0
   -4.2471   -3.0670    4.5557 C   0  0  0  0  0  0  0  0  0  0  0  0
   -3.5512   -4.0009    1.8567 C   0  0  0  0  0  0  0  0  0  0  0  0
   -4.9343   -4.0660    1.7098 C   0  0  0  0  0  0  0  0  0  0  0  0
   -5.5339   -5.1629    1.1201 C   0  0  0  0  0  0  0  0  0  0  0  0
   -4.7568   -6.2171    0.6613 C   0  0  0  0  0  0  0  0  0  0  0  0
   -5.3913   -7.6881   -0.0769 S   0  0  0  0  0  0  0  0  0  0  0  0
   -7.1895   -7.4557   -0.0695 C   0  0  0  0  0  0  0  0  0  0  0  0
   -3.3722   -6.1463    0.7876 C   0  0  0  0  0  0  0  0  0  0  0  0
   -2.7740   -5.0535    1.3714 C   0  0  0  0  0  0  0  0  0  0  0  0
   -0.5540   -2.4562    3.0142 C   0  0  0  0  0  0  0  0  0  0  0  0
   -0.3200   -2.6814    4.7166 S   0  0  0  0  0  0  0  0  0  0  0  0
   -2.1862   -1.7232   -0.2146 C   0  0  0  0  0  0  0  0  0  0  0  0
   -2.5891   -2.3484   -1.3702 C   0  0  0  0  0  0  0  0  0  0  0  0
   -2.2698   -3.6614   -1.7020 N   0  0  0  0  0  0  0  0  0  0  0  0
   -0.9066   -4.0052   -1.6674 C   0  0  0  0  0  0  0  0  0  0  0  0
   -0.4725   -5.2431   -1.2064 C   0  0  0  0  0  0  0  0  0  0  0  0
    0.8771   -5.5341   -1.1281 C   0  0  0  0  0  0  0  0  0  0  0  0
    1.8199   -4.5893   -1.5105 C   0  0  0  0  0  0  0  0  0  0  0  0
    3.5665   -4.8222   -1.4099 S   0  0  0  0  0  0  0  0  0  0  0  0
    3.7543   -6.5975   -1.0799 C   0  0  0  0  0  0  0  0  0  0  0  0
    1.3879   -3.3570   -1.9963 C   0  0  0  0  0  0  0  0  0  0  0  0
    0.0444   -3.0690   -2.0788 C   0  0  0  0  0  0  0  0  0  0  0  0
   -3.2762   -4.4898   -2.1871 C   0  0  0  0  0  0  0  0  0  0  0  0
   -2.9978   -5.5989   -2.9834 C   0  0  0  0  0  0  0  0  0  0  0  0
   -4.0163   -6.4072   -3.4463 C   0  0  0  0  0  0  0  0  0  0  0  0
   -5.3376   -6.1147   -3.1400 C   0  0  0  0  0  0  0  0  0  0  0  0
   -6.7007   -7.1008   -3.6909 S   0  0  0  0  0  0  0  0  0  0  0  0
   -5.9537   -8.7519   -3.8221 C   0  0  0  0  0  0  0  0  0  0  0  0
   -5.6250   -4.9900   -2.3761 C   0  0  0  0  0  0  0  0  0  0  0  0
   -4.6099   -4.1976   -1.8911 C   0  0  0  0  0  0  0  0  0  0  0  0
   -3.2938   -1.4520   -2.2164 C   0  0  0  0  0  0  0  0  0  0  0  0
   -3.9845   -1.5767   -3.7927 S   0  0  0  0  0  0  0  0  0  0  0  0
   -4.2725    0.1694   -3.8361 C   0  0  0  0  0  0  0  0  0  0  0  0
   -3.9209    0.7871   -2.6278 C   0  0  0  0  0  0  0  0  0  0  0  0
   -3.9091    2.1295   -2.3435 N   0  0  0  0  0  0  0  0  0  0  0  0
   -2.8011    2.6124   -1.6081 C   0  0  0  0  0  0  0  0  0  0  0  0
   -1.5131    2.2102   -1.9658 C   0  0  0  0  0  0  0  0  0  0  0  0
   -0.4384    2.5837   -1.1937 C   0  0  0  0  0  0  0  0  0  0  0  0
   -0.6241    3.3735   -0.0595 C   0  0  0  0  0  0  0  0  0  0  0  0
    0.8287    3.7243    0.8754 S   0  0  0  0  0  0  0  0  0  0  0  0
    0.2324    4.6213    2.3349 C   0  0  0  0  0  0  0  0  0  0  0  0
   -1.8978    3.8228    0.2630 C   0  0  0  0  0  0  0  0  0  0  0  0
   -2.9811    3.4414   -0.5083 C   0  0  0  0  0  0  0  0  0  0  0  0
   -4.8625    3.0145   -2.8460 C   0  0  0  0  0  0  0  0  0  0  0  0
   -4.5023    4.3076   -3.2270 C   0  0  0  0  0  0  0  0  0  0  0  0
   -5.4276    5.1333   -3.8262 C   0  0  0  0  0  0  0  0  0  0  0  0
   -6.7248    4.6852   -4.0624 C   0  0  0  0  0  0  0  0  0  0  0  0
   -7.8269    5.7364   -4.9533 S   0  0  0  0  0  0  0  0  0  0  0  0
   -8.7896    4.5179   -5.9020 C   0  0  0  0  0  0  0  0  0  0  0  0
   -7.1112    3.4316   -3.6049 C   0  0  0  0  0  0  0  0  0  0  0  0
   -6.1883    2.6059   -2.9969 C   0  0  0  0  0  0  0  0  0  0  0  0
   -3.3589   -0.1589   -1.7346 C   0  0  0  0  0  0  0  0  0  0  0  0
   -2.6504   -0.0268   -0.1677 S   0  0  0  0  0  0  0  0  0  0  0  0
   -4.7753    0.7791   -5.0003 C   0  0  0  0  0  0  0  0  0  0  0  0
   -4.6421    0.4050   -6.3063 C   0  0  0  0  0  0  0  0  0  0  0  0
   -5.5787    0.9637   -7.3084 C   0  0  0  0  0  0  0  0  0  0  0  0
   -6.3835    1.8563   -7.1273 O   0  0  0  0  0  0  0  0  0  0  0  0
   -5.3559    0.1795   -8.5371 C   0  0  0  0  0  0  0  0  0  0  0  0
   -6.0475    0.2799   -9.7418 C   0  0  0  0  0  0  0  0  0  0  0  0
   -5.6174   -0.5945  -10.7110 C   0  0  0  0  0  0  0  0  0  0  0  0
   -4.5783   -1.5100  -10.4989 C   0  0  0  0  0  0  0  0  0  0  0  0
   -3.8816   -1.6166   -9.3183 C   0  0  0  0  0  0  0  0  0  0  0  0
   -4.2982   -0.7307   -8.3228 C   0  0  0  0  0  0  0  0  0  0  0  0
   -3.7548   -0.5065   -6.9839 C   0  0  0  0  0  0  0  0  0  0  0  0
   -2.4996   -0.8770   -6.5654 C   0  0  0  0  0  0  0  0  0  0  0  0
   -1.6428   -1.7373   -7.2785 C   0  0  0  0  0  0  0  0  0  0  0  0
   -0.9066   -2.4469   -7.8018 N   0  0  0  0  0  0  0  0  0  0  0  0
   -1.8705   -0.3445   -5.4247 C   0  0  0  0  0  0  0  0  0  0  0  0
   -1.2820    0.1145   -4.5503 N   0  0  0  0  0  0  0  0  0  0  0  0
   -4.6876   -2.0788  -11.8912 C   0  0  0  0  0  0  0  0  0  0  0  0
   -5.3976   -3.4446  -12.0607 C   0  0  0  0  0  0  0  0  0  0  0  0
   -6.3671   -3.5694  -10.9117 C   0  0  0  0  0  0  0  0  0  0  0  0
   -7.3490   -2.7012  -11.1146 C   0  0  0  0  0  0  0  0  0  0  0  0
   -7.0610   -1.9733  -12.4042 C   0  0  0  0  0  0  0  0  0  0  0  0
   -6.3693   -3.0928  -13.1984 C   0  0  0  0  0  0  0  0  0  0  0  0
   -5.8435   -1.0565  -12.1291 C   0  0  0  0  0  0  0  0  0  0  0  0
    6.1768    5.7375    6.6974 H   0  0  0  0  0  0  0  0  0  0  0  0
    7.5171    3.1518    1.1950 H   0  0  0  0  0  0  0  0  0  0  0  0
    8.0854    8.0850    2.1945 H   0  0  0  0  0  0  0  0  0  0  0  0
    7.5961    7.5773   -1.1716 H   0  0  0  0  0  0  0  0  0  0  0  0
    9.9982    8.2229   -1.2882 H   0  0  0  0  0  0  0  0  0  0  0  0
   11.2298    6.8485    0.5635 H   0  0  0  0  0  0  0  0  0  0  0  0
   10.9503    4.2659    0.0071 H   0  0  0  0  0  0  0  0  0  0  0  0
    9.5465    4.0495   -2.1897 H   0  0  0  0  0  0  0  0  0  0  0  0
    9.1057    6.5169   -3.1707 H   0  0  0  0  0  0  0  0  0  0  0  0
   10.8404    6.2613   -2.8561 H   0  0  0  0  0  0  0  0  0  0  0  0
    7.3249    5.0701   -1.7175 H   0  0  0  0  0  0  0  0  0  0  0  0
    7.3097    2.0991    6.0738 H   0  0  0  0  0  0  0  0  0  0  0  0
    8.1735    0.5041    7.3453 H   0  0  0  0  0  0  0  0  0  0  0  0
    9.9949   -1.1424    6.5264 H   0  0  0  0  0  0  0  0  0  0  0  0
    7.2310   -4.5511    4.3199 H   0  0  0  0  0  0  0  0  0  0  0  0
    8.5843   -5.6955    4.1791 H   0  0  0  0  0  0  0  0  0  0  0  0
    7.1311   -6.2773    6.1315 H   0  0  0  0  0  0  0  0  0  0  0  0
    7.4075   -4.6758    6.8202 H   0  0  0  0  0  0  0  0  0  0  0  0
    8.7524   -5.8136    6.6671 H   0  0  0  0  0  0  0  0  0  0  0  0
    0.2981    1.6558    6.5315 H   0  0  0  0  0  0  0  0  0  0  0  0
   -1.2828    3.1426    7.9478 H   0  0  0  0  0  0  0  0  0  0  0  0
    0.5780    5.8149   12.1341 H   0  0  0  0  0  0  0  0  0  0  0  0
    1.6870    4.5269   11.6138 H   0  0  0  0  0  0  0  0  0  0  0  0
    2.0542    5.7422    9.4447 H   0  0  0  0  0  0  0  0  0  0  0  0
    2.4754    6.7731   10.8119 H   0  0  0  0  0  0  0  0  0  0  0  0
    0.9382    7.0088    9.9697 H   0  0  0  0  0  0  0  0  0  0  0  0
    0.8453   -0.4427    6.7593 H   0  0  0  0  0  0  0  0  0  0  0  0
    5.6004   -0.9510    2.8233 H   0  0  0  0  0  0  0  0  0  0  0  0
    7.2848   -2.5676    2.2011 H   0  0  0  0  0  0  0  0  0  0  0  0
    9.2366   -5.2257    0.5880 H   0  0  0  0  0  0  0  0  0  0  0  0
    8.9873   -4.1016    1.9403 H   0  0  0  0  0  0  0  0  0  0  0  0
    8.3311   -3.7190    0.3152 H   0  0  0  0  0  0  0  0  0  0  0  0
    4.2557   -5.5238    1.6384 H   0  0  0  0  0  0  0  0  0  0  0  0
    2.5358   -3.8702    2.1749 H   0  0  0  0  0  0  0  0  0  0  0  0
    4.4359    0.0522    1.1288 H   0  0  0  0  0  0  0  0  0  0  0  0
    4.9469    2.4313    1.2540 H   0  0  0  0  0  0  0  0  0  0  0  0
    4.1626    6.1535    1.4594 H   0  0  0  0  0  0  0  0  0  0  0  0
    5.1763    4.7675    1.0102 H   0  0  0  0  0  0  0  0  0  0  0  0
    3.3932    4.6619    0.8566 H   0  0  0  0  0  0  0  0  0  0  0  0
    2.2774    2.8352    4.5612 H   0  0  0  0  0  0  0  0  0  0  0  0
    1.7384    0.4627    4.4161 H   0  0  0  0  0  0  0  0  0  0  0  0
   -2.5765   -0.4278    3.2632 H   0  0  0  0  0  0  0  0  0  0  0  0
   -3.3822    0.5922    5.3549 H   0  0  0  0  0  0  0  0  0  0  0  0
   -5.2743   -2.4086    8.6394 H   0  0  0  0  0  0  0  0  0  0  0  0
   -6.7499   -1.8521    7.7826 H   0  0  0  0  0  0  0  0  0  0  0  0
   -6.2293   -1.0554    9.2835 H   0  0  0  0  0  0  0  0  0  0  0  0
   -5.3097   -3.0815    6.3913 H   0  0  0  0  0  0  0  0  0  0  0  0
   -4.4798   -4.1004    4.3466 H   0  0  0  0  0  0  0  0  0  0  0  0
   -5.5448   -3.2501    2.0684 H   0  0  0  0  0  0  0  0  0  0  0  0
   -6.6076   -5.1802    1.0234 H   0  0  0  0  0  0  0  0  0  0  0  0
   -7.5432   -7.3331    0.9500 H   0  0  0  0  0  0  0  0  0  0  0  0
   -7.4535   -6.6065   -0.6918 H   0  0  0  0  0  0  0  0  0  0  0  0
   -7.6037   -8.3631   -0.4977 H   0  0  0  0  0  0  0  0  0  0  0  0
   -2.7786   -6.9787    0.4401 H   0  0  0  0  0  0  0  0  0  0  0  0
   -1.6997   -5.0152    1.4751 H   0  0  0  0  0  0  0  0  0  0  0  0
   -1.1969   -5.9806   -0.9000 H   0  0  0  0  0  0  0  0  0  0  0  0
    1.1776   -6.5010   -0.7567 H   0  0  0  0  0  0  0  0  0  0  0  0
    3.3168   -6.8544   -0.1198 H   0  0  0  0  0  0  0  0  0  0  0  0
    4.8249   -6.7755   -1.0501 H   0  0  0  0  0  0  0  0  0  0  0  0
    3.3006   -7.1702   -1.8834 H   0  0  0  0  0  0  0  0  0  0  0  0
    2.1198   -2.6286   -2.3085 H   0  0  0  0  0  0  0  0  0  0  0  0
   -0.2747   -2.1135   -2.4687 H   0  0  0  0  0  0  0  0  0  0  0  0
   -1.9776   -5.8225   -3.2552 H   0  0  0  0  0  0  0  0  0  0  0  0
   -3.7688   -7.2591   -4.0596 H   0  0  0  0  0  0  0  0  0  0  0  0
   -5.3474   -8.9341   -2.9399 H   0  0  0  0  0  0  0  0  0  0  0  0
   -5.3641   -8.8307   -4.7310 H   0  0  0  0  0  0  0  0  0  0  0  0
   -6.7810   -9.4536   -3.8618 H   0  0  0  0  0  0  0  0  0  0  0  0
   -6.6536   -4.7469   -2.1553 H   0  0  0  0  0  0  0  0  0  0  0  0
   -4.8498   -3.3562   -1.2589 H   0  0  0  0  0  0  0  0  0  0  0  0
   -1.3665    1.5904   -2.8377 H   0  0  0  0  0  0  0  0  0  0  0  0
    0.5579    2.2595   -1.4516 H   0  0  0  0  0  0  0  0  0  0  0  0
   -0.2112    5.5670    2.0379 H   0  0  0  0  0  0  0  0  0  0  0  0
    1.1132    4.8025    2.9440 H   0  0  0  0  0  0  0  0  0  0  0  0
   -0.4752    4.0039    2.8802 H   0  0  0  0  0  0  0  0  0  0  0  0
   -2.0651    4.4544    1.1207 H   0  0  0  0  0  0  0  0  0  0  0  0
   -3.9746    3.7732   -0.2449 H   0  0  0  0  0  0  0  0  0  0  0  0
   -3.4849    4.6404   -3.0873 H   0  0  0  0  0  0  0  0  0  0  0  0
   -5.1457    6.1219   -4.1531 H   0  0  0  0  0  0  0  0  0  0  0  0
   -9.2294    5.0654   -6.7296 H   0  0  0  0  0  0  0  0  0  0  0  0
   -9.5772    4.0925   -5.2868 H   0  0  0  0  0  0  0  0  0  0  0  0
   -8.1193    3.7485   -6.2746 H   0  0  0  0  0  0  0  0  0  0  0  0
   -8.1258    3.0891   -3.7301 H   0  0  0  0  0  0  0  0  0  0  0  0
   -6.4861    1.6281   -2.6460 H   0  0  0  0  0  0  0  0  0  0  0  0
   -5.4033    1.6534   -4.8611 H   0  0  0  0  0  0  0  0  0  0  0  0
   -6.8415    0.9995   -9.8672 H   0  0  0  0  0  0  0  0  0  0  0  0
   -3.0851   -2.3260   -9.1646 H   0  0  0  0  0  0  0  0  0  0  0  0
   -3.7968   -1.9947  -12.5106 H   0  0  0  0  0  0  0  0  0  0  0  0
   -4.7267   -4.2852  -12.2167 H   0  0  0  0  0  0  0  0  0  0  0  0
   -6.2142   -4.2137  -10.0658 H   0  0  0  0  0  0  0  0  0  0  0  0
   -8.1800   -2.4761  -10.4719 H   0  0  0  0  0  0  0  0  0  0  0  0
   -7.9052   -1.4748  -12.8735 H   0  0  0  0  0  0  0  0  0  0  0  0
   -5.8713   -2.7406  -14.1008 H   0  0  0  0  0  0  0  0  0  0  0  0
   -7.0429   -3.9119  -13.4457 H   0  0  0  0  0  0  0  0  0  0  0  0
   -5.7062   -0.3047  -12.9040 H   0  0  0  0  0  0  0  0  0  0  0  0
  1  2  2  0  0  0  0
  2  3  1  0  0  0  0
  3  4  2  0  0  0  0
  3  5  1  0  0  0  0
  5  6  2  0  0  0  0
  6  7  1  0  0  0  0
  7  8  2  0  0  0  0
  8  9  1  0  0  0  0
  9 10  2  0  0  0  0
 10 11  1  0  0  0  0
 11 12  2  0  0  0  0
 12 13  1  0  0  0  0
 13 14  3  0  0  0  0
 12 15  1  0  0  0  0
 15 16  3  0  0  0  0
  8 17  1  0  0  0  0
 17 18  1  0  0  0  0
 18 19  1  0  0  0  0
 19 20  2  0  0  0  0
 20 21  1  0  0  0  0
 21 22  1  0  0  0  0
 21 23  1  0  0  0  0
  1 24  1  0  0  0  0
 24 25  2  0  0  0  0
 25 26  1  0  0  0  0
 26 27  2  0  0  0  0
 27 28  1  0  0  0  0
 28 29  2  0  0  0  0
 29 30  1  0  0  0  0
 30 31  2  0  0  0  0
 31 32  1  0  0  0  0
 32 33  1  0  0  0  0
 33 34  1  0  0  0  0
 31 35  1  0  0  0  0
 27 36  1  0  0  0  0
 36 37  2  0  0  0  0
 37 38  1  0  0  0  0
 38 39  1  0  0  0  0
 39 40  2  0  0  0  0
 40 41  1  0  0  0  0
 41 42  2  0  0  0  0
 42 43  1  0  0  0  0
 43 44  1  0  0  0  0
 44 45  1  0  0  0  0
 42 46  1  0  0  0  0
 38 47  2  0  0  0  0
 47 48  1  0  0  0  0
 37 49  1  0  0  0  0
 49 50  2  0  0  0  0
 50 51  1  0  0  0  0
 50 52  1  0  0  0  0
 52 53  2  0  0  0  0
 53 54  1  0  0  0  0
 54 55  1  0  0  0  0
 55 56  2  0  0  0  0
 56 57  1  0  0  0  0
 57 58  2  0  0  0  0
 58 59  1  0  0  0  0
 59 60  1  0  0  0  0
 58 61  1  0  0  0  0
 61 62  2  0  0  0  0
 54 63  1  0  0  0  0
 63 64  2  0  0  0  0
 64 65  1  0  0  0  0
 65 66  2  0  0  0  0
 66 67  1  0  0  0  0
 67 68  1  0  0  0  0
 66 69  1  0  0  0  0
 69 70  2  0  0  0  0
 53 71  1  0  0  0  0
 71 72  1  0  0  0  0
 72 73  1  0  0  0  0
 73 74  2  0  0  0  0
 74 75  1  0  0  0  0
 75 76  1  0  0  0  0
 76 77  2  0  0  0  0
 77 78  1  0  0  0  0
 78 79  2  0  0  0  0
 79 80  1  0  0  0  0
 80 81  1  0  0  0  0
 79 82  1  0  0  0  0
 82 83  2  0  0  0  0
 75 84  1  0  0  0  0
 84 85  2  0  0  0  0
 85 86  1  0  0  0  0
 86 87  2  0  0  0  0
 87 88  1  0  0  0  0
 88 89  1  0  0  0  0
 87 90  1  0  0  0  0
 90 91  2  0  0  0  0
 74 92  1  0  0  0  0
 92 93  1  0  0  0  0
 73 94  1  0  0  0  0
 94 95  2  0  0  0  0
 95 96  1  0  0  0  0
 96 97  1  0  0  0  0
 97 98  2  0  0  0  0
 98 99  1  0  0  0  0
 99100  2  0  0  0  0
100101  1  0  0  0  0
101102  1  0  0  0  0
100103  1  0  0  0  0
103104  2  0  0  0  0
 96105  1  0  0  0  0
105106  2  0  0  0  0
106107  1  0  0  0  0
107108  2  0  0  0  0
108109  1  0  0  0  0
109110  1  0  0  0  0
108111  1  0  0  0  0
111112  2  0  0  0  0
 95113  1  0  0  0  0
113114  1  0  0  0  0
114115  1  0  0  0  0
115116  2  0  0  0  0
116117  1  0  0  0  0
117118  1  0  0  0  0
118119  2  0  0  0  0
119120  1  0  0  0  0
120121  2  0  0  0  0
121122  1  0  0  0  0
122123  1  0  0  0  0
121124  1  0  0  0  0
124125  2  0  0  0  0
117126  1  0  0  0  0
126127  2  0  0  0  0
127128  1  0  0  0  0
128129  2  0  0  0  0
129130  1  0  0  0  0
130131  1  0  0  0  0
129132  1  0  0  0  0
132133  2  0  0  0  0
116134  1  0  0  0  0
134135  1  0  0  0  0
115136  1  0  0  0  0
136137  2  0  0  0  0
137138  1  0  0  0  0
138139  2  0  0  0  0
138140  1  0  0  0  0
140141  2  0  0  0  0
141142  1  0  0  0  0
142143  2  0  0  0  0
143144  1  0  0  0  0
144145  2  0  0  0  0
145146  1  0  0  0  0
146147  2  0  0  0  0
147148  1  0  0  0  0
148149  3  0  0  0  0
147150  1  0  0  0  0
150151  3  0  0  0  0
143152  1  0  0  0  0
152153  1  0  0  0  0
153154  1  0  0  0  0
154155  2  0  0  0  0
155156  1  0  0  0  0
156157  1  0  0  0  0
156158  1  0  0  0  0
 11  2  1  0  0  0  0
 23 17  1  0  0  0  0
 48 24  1  0  0  0  0
 93 52  1  0  0  0  0
135 94  1  0  0  0  0
146137  1  0  0  0  0
158152  1  0  0  0  0
 10  5  1  0  0  0  0
 22 18  1  0  0  0  0
 47 26  1  0  0  0  0
 62 55  1  0  0  0  0
 70 63  1  0  0  0  0
 92 71  2  0  0  0  0
104 97  1  0  0  0  0
112105  1  0  0  0  0
134113  2  0  0  0  0
145140  1  0  0  0  0
157153  1  0  0  0  0
 23  7  1  0  0  0  0
 35 28  1  0  0  0  0
 51 36  1  0  0  0  0
 83 76  1  0  0  0  0
 91 84  1  0  0  0  0
125118  1  0  0  0  0
133126  1  0  0  0  0
158142  1  0  0  0  0
 46 39  1  0  0  0  0
  1159  1  0  0  0  0
  6160  1  0  0  0  0
  9161  1  0  0  0  0
 17162  1  0  0  0  0
 18163  1  0  0  0  0
 19164  1  0  0  0  0
 20165  1  0  0  0  0
 21166  1  0  0  0  0
 22167  1  0  0  0  0
 22168  1  0  0  0  0
 23169  1  0  0  0  0
 25170  1  0  0  0  0
 29171  1  0  0  0  0
 30172  1  0  0  0  0
 33173  1  0  0  0  0
 33174  1  0  0  0  0
 34175  1  0  0  0  0
 34176  1  0  0  0  0
 34177  1  0  0  0  0
 40178  1  0  0  0  0
 41179  1  0  0  0  0
 44180  1  0  0  0  0
 44181  1  0  0  0  0
 45182  1  0  0  0  0
 45183  1  0  0  0  0
 45184  1  0  0  0  0
 49185  1  0  0  0  0
 56186  1  0  0  0  0
 57187  1  0  0  0  0
 60188  1  0  0  0  0
 60189  1  0  0  0  0
 60190  1  0  0  0  0
 61191  1  0  0  0  0
 62192  1  0  0  0  0
 64193  1  0  0  0  0
 65194  1  0  0  0  0
 68195  1  0  0  0  0
 68196  1  0  0  0  0
 68197  1  0  0  0  0
 69198  1  0  0  0  0
 70199  1  0  0  0  0
 77200  1  0  0  0  0
 78201  1  0  0  0  0
 81202  1  0  0  0  0
 81203  1  0  0  0  0
 81204  1  0  0  0  0
 82205  1  0  0  0  0
 83206  1  0  0  0  0
 85207  1  0  0  0  0
 86208  1  0  0  0  0
 89209  1  0  0  0  0
 89210  1  0  0  0  0
 89211  1  0  0  0  0
 90212  1  0  0  0  0
 91213  1  0  0  0  0
 98214  1  0  0  0  0
 99215  1  0  0  0  0
102216  1  0  0  0  0
102217  1  0  0  0  0
102218  1  0  0  0  0
103219  1  0  0  0  0
104220  1  0  0  0  0
106221  1  0  0  0  0
107222  1  0  0  0  0
110223  1  0  0  0  0
110224  1  0  0  0  0
110225  1  0  0  0  0
111226  1  0  0  0  0
112227  1  0  0  0  0
119228  1  0  0  0  0
120229  1  0  0  0  0
123230  1  0  0  0  0
123231  1  0  0  0  0
123232  1  0  0  0  0
124233  1  0  0  0  0
125234  1  0  0  0  0
127235  1  0  0  0  0
128236  1  0  0  0  0
131237  1  0  0  0  0
131238  1  0  0  0  0
131239  1  0  0  0  0
132240  1  0  0  0  0
133241  1  0  0  0  0
136242  1  0  0  0  0
141243  1  0  0  0  0
144244  1  0  0  0  0
152245  1  0  0  0  0
153246  1  0  0  0  0
154247  1  0  0  0  0
155248  1  0  0  0  0
156249  1  0  0  0  0
157250  1  0  0  0  0
157251  1  0  0  0  0
158252  1  0  0  0  0
M  END
