174

C         -3.24270        3.43000       -5.26410
C         -2.79170        4.28360       -6.20740
C         -3.42960        4.26730       -7.55850
O         -4.44960        3.69450       -7.86380
C         -2.53400        5.05550       -8.42150
C         -2.64070        5.23900       -9.79960
C         -1.65980        6.03670      -10.33680
C         -0.63640        6.60370       -9.56400
C         -0.51710        6.43090       -8.20610
C         -1.51290        5.63150       -7.63520
C         -1.72990        5.26830       -6.23740
C         -1.20960        5.92690       -5.15620
C         -1.56180        5.66650       -3.81690
N         -1.81140        5.52140       -2.70580
C         -0.30580        7.00630       -5.24390
N          0.42790        7.88990       -5.25190
C         -0.01150        7.29200      -10.75150
C         -0.27740        8.80710      -10.88280
C          0.02550        9.10340      -12.33380
C         -0.94420        8.56940      -13.06570
C         -1.91950        7.90380      -12.12150
C         -1.81070        8.85140      -10.91960
C         -1.15410        6.66340      -11.61250
C         -2.61910        2.98590       -4.04910
C         -3.39750        2.60210       -2.96960
F         -4.73210        2.73570       -3.04510
C         -2.85600        2.04770       -1.80990
F         -3.70330        1.66510       -0.83920
C         -1.50290        1.78370       -1.69040
C         -0.66180        2.22460       -2.75360
N          0.67070        2.14020       -2.61580
C          1.45010        2.51210       -3.60070
C          2.92630        2.46140       -3.33780
C          3.56060        1.14250       -3.78670
C          0.88760        2.92000       -4.84460
N         -0.40790        3.07470       -4.96580
C         -1.21250        2.79290       -3.92940
C          1.70020        3.20530       -6.07190
C          2.23020        4.64060       -6.09130
C         -0.96290        1.04420       -0.57620
C         -0.10360       -0.04570       -0.64430
N          0.29260       -0.69020       -1.80000
C          1.47880       -1.43320       -1.78490
C          2.60630       -0.94650       -1.12580
C          3.73940       -1.72590       -1.00140
C          3.75990       -3.00620       -1.53580
S          5.12120       -4.11500       -1.32420
C          5.88500       -3.50420        0.20810
C          2.66670       -3.46390       -2.26840
C          1.53730       -2.68610       -2.39540
C         -0.49060       -0.64520       -2.96350
C          0.11280       -0.45750       -4.20720
C         -0.65720       -0.25650       -5.32970
C         -2.04890       -0.25650       -5.24580
S         -2.92030        0.16150       -6.71950
C         -4.67040        0.08450       -6.24450
C         -2.65200       -0.55530       -4.03080
C         -1.87780       -0.74860       -2.90300
C          0.23460       -0.49820        0.65530
S          1.19210       -1.81950        1.25990
C          0.85620       -1.30770        2.89910
C         -0.11130       -0.29720        2.96870
N         -0.80170        0.03210        4.10870
C         -1.29530        1.33020        4.27820
C         -0.54300        2.42730        3.85550
C         -1.03420        3.70250        4.01060
C         -2.28310        3.91440        4.59470
S         -2.80040        5.59130        4.74170
C         -4.45430        5.48040        5.48240
C         -3.02800        2.82410        5.02760
C         -2.53720        1.54380        4.86880
C         -1.04630       -0.95750        5.07980
C         -0.95530       -0.66080        6.43980
C         -1.09040       -1.66070        7.37800
C         -1.32140       -2.97760        6.98380
S         -1.39630       -4.19000        8.25960
C         -2.01250       -5.67240        7.41210
C         -1.46420       -3.26830        5.63220
C         -1.33640       -2.26490        4.69470
C         -0.40080        0.19770        1.67350
S         -1.43900        1.43650        1.06300
C          1.54590       -1.93350        3.96780
C          1.78120       -1.34490        5.21110
F          1.57640       -0.02210        5.37500
C          2.25840       -2.08200        6.28560
F          2.37130       -1.47100        7.47580
C          2.54780       -3.44280        6.19210
C          2.55230       -4.00450        4.87930
N          3.09230       -5.20890        4.65280
C          3.09490       -5.70180        3.43670
C          3.78800       -7.01930        3.26170
C          5.24280       -6.80460        2.83620
C          2.53530       -4.97400        2.35190
N          2.06170       -3.76760        2.55760
C          2.06320       -3.24980        3.78900
C          2.42980       -5.49360        0.95200
C          1.13880       -6.29920        0.78850
C          2.90670       -4.19890        7.34580
C          2.58800       -5.50990        7.53820
C          1.51140       -6.23190        6.80900
O          0.79930       -5.82270        5.91330
C          1.38260       -7.52000        7.50620
C          0.61140       -8.63210        7.40820
S          1.01160       -9.76660        8.64690
C          2.22480       -8.73090        9.30510
C          2.30910       -7.57250        8.59690
C          3.08130       -6.34710        8.61740
C          4.12850       -6.09580        9.46390
C          4.95010       -4.95190        9.43160
N          5.67430       -4.06090        9.44590
C          4.50450       -7.02530       10.45500
N          4.81490       -7.77650       11.26570
H         -4.19520        2.96340       -5.49930
H         -3.44180        4.78150      -10.35870
H          0.27860        6.87090       -7.62780
H          1.01870        7.01990      -10.97310
H          0.22420        9.42270      -10.14110
H          0.91260        9.60670      -12.67100
H         -1.02890        8.53760      -14.13620
H         -2.91330        7.69800      -12.50980
H         -2.28780        8.47920      -10.01490
H         -2.18750        9.84730      -11.14600
H         -0.88700        5.97180      -12.40940
H          3.07200        2.57060       -2.26220
H          3.42130        3.29000       -3.84340
H          4.63200        1.17170       -3.60340
H          3.40090        0.96390       -4.84760
H          3.14260        0.31050       -3.22630
H          2.53700        2.51010       -6.13700
H          1.05110        3.05830       -6.93740
H          2.79440        4.81240       -7.00460
H          2.87980        4.84010       -5.24300
H          1.40780        5.34750       -6.05540
H          2.58360        0.04570       -0.70120
H          4.59480       -1.32830       -0.47980
H          5.10940       -3.32350        0.94700
H          6.55090       -4.29220        0.54620
H          6.46050       -2.60390        0.01380
H          2.70500       -4.44790       -2.70980
H          0.67990       -3.05580       -2.93750
H          1.18890       -0.43890       -4.27950
H         -0.19110       -0.07000       -6.28510
H         -5.21580        0.48210       -7.09490
H         -4.85320        0.70330       -5.37150
H         -4.96140       -0.94610       -6.06190
H         -3.72370       -0.63410       -3.94520
H         -2.35640       -0.96640       -1.95960
H          0.43460        2.26980        3.42670
H         -0.45500        4.55370        3.68850
H         -4.39320        5.02210        6.46490
H         -5.11790        4.92600        4.82560
H         -4.80000        6.50480        5.57610
H         -3.99570        2.95550        5.48360
H         -3.12430        0.69930        5.19840
H         -0.74270        0.35050        6.75140
H         -0.99270       -1.43550        8.42860
H         -1.28640       -5.99980        6.67330
H         -2.12580       -6.42570        8.18570
H         -2.97520       -5.45810        6.95760
H         -1.65680       -4.27290        5.29580
H         -1.44520       -2.50400        3.64720
H          3.76970       -7.53790        4.22100
H          3.27080       -7.62840        2.52050
H          5.76420       -6.20840        3.58120
H          5.29650       -6.28830        1.88030
H          5.74870       -7.76200        2.74070
H          2.39610       -4.63700        0.27730
H          3.28880       -6.11340        0.69750
H          1.06310       -6.67650       -0.22810
H          0.27930       -5.66500        0.99000
H          1.11330       -7.14150        1.47670
H          3.43670       -3.66420        8.12460
H         -0.15390       -8.86720        6.69580
H          2.77780       -9.04880       10.16620
