216

C         -2.89740        0.14250      -10.00260
C         -2.91010        0.99250      -11.08540
C         -1.82670        1.93390      -11.40620
O         -0.80730        2.13360      -10.77060
C         -2.16010        2.48940      -12.73630
C         -1.42970        3.42450      -13.46390
C         -1.99690        3.76470      -14.66970
C         -3.19730        3.20670      -15.12510
C         -3.92530        2.27660      -14.41950
C         -3.36880        1.92520      -13.18700
C         -3.86550        1.01230      -12.15950
C         -5.10200        0.41510      -12.14220
C         -5.60090       -0.32140      -11.04970
N         -6.08030       -0.90260      -10.18240
C         -6.04980        0.51640      -13.17790
N         -6.85720        0.56040      -13.99400
C         -3.16920        3.99180      -16.41370
C         -2.73220        3.22390      -17.67850
C         -2.33770        4.31580      -18.64670
C         -1.19970        4.84490      -18.21590
C         -0.80590        4.11930      -16.94950
C         -1.34250        2.71830      -17.27040
C         -1.82910        4.61490      -15.90590
C         -2.20670        0.34220       -8.80230
C         -1.77150        1.51580       -8.15610
N         -2.05150        2.80530       -8.51530
C         -1.17580        3.83260       -8.10980
C          0.20250        3.68750       -8.26200
C          1.04850        4.69040       -7.84740
C          0.53850        5.85590       -7.27550
S          1.72240        7.06130       -6.77140
C          0.72640        8.35460       -5.97620
C         -0.83550        6.01040       -7.14510
C         -1.68550        5.00330       -7.56030
C         -3.18510        3.15290       -9.25780
C         -4.41470        2.52800       -9.03760
C         -5.49810        2.83120       -9.82790
C         -5.38460        3.76260      -10.86240
S         -6.80830        3.99550      -11.87040
C         -6.18570        4.95970      -13.27670
C         -4.18410        4.43750      -11.03930
C         -3.09660        4.13510      -10.24260
C         -1.08370        1.19540       -6.96080
S         -0.38250        2.14610       -5.69250
C          0.00880        0.69220       -4.79380
C         -0.43300       -0.46410       -5.41760
N         -0.37600       -1.74370       -4.89300
C         -0.20930       -2.82820       -5.76770
C          0.64710       -2.73110       -6.86440
C          0.78770       -3.79280       -7.72940
C          0.08690       -4.97790       -7.51510
S          0.35240       -6.26940       -8.68850
C         -0.78790       -7.58080       -8.16350
C         -0.75420       -5.08350       -6.41530
C         -0.90300       -4.01510       -5.55360
C         -0.49050       -1.96940       -3.51450
C         -1.34990       -1.20400       -2.73140
C         -1.36660       -1.34160       -1.35600
C         -0.52880       -2.25880       -0.73940
S         -0.38100       -2.45320        1.00890
C         -1.55670       -1.25110        1.68850
C          0.27680       -3.08170       -1.52530
C          0.29710       -2.94160       -2.89340
C         -1.04050       -0.15780       -6.66120
S         -1.85140       -1.10680       -7.84880
C          0.61920        0.78410       -3.49840
C          0.19710        1.53100       -2.44350
C          0.83710        1.19760       -1.22050
C          0.51590        1.63870        0.06880
C         -0.49130        2.72340        0.30990
C          0.13070        4.10050        0.07250
C          1.17760        1.01560        1.11050
C          2.15350        0.00220        0.92960
C          2.50020       -0.41370       -0.36290
C          3.53660       -1.46580       -0.60990
C          4.94280       -0.86420       -0.57560
C          1.81960        0.19140       -1.40060
S          1.96710       -0.25490       -3.08050
C          2.60540       -0.52090        2.16710
C          1.99710        0.03730        3.25290
S          0.86460        1.29460        2.80550
C          2.14710       -0.33410        4.62310
C          3.09900       -1.14560        5.17230
C          2.91850       -1.37680        6.55710
C          3.71050       -2.16600        7.41130
C          4.95490       -2.78970        6.94680
C          5.22220       -4.13350        7.18860
C          6.40390       -4.71640        6.77330
C          7.36600       -3.97420        6.09810
S          8.92280       -4.56760        5.53190
C          8.89460       -6.35500        5.90170
C          8.05120       -7.13880        4.91340
C          7.08440       -2.62600        5.86320
F          7.99590       -1.87140        5.21540
C          5.91200       -2.03320        6.27110
C          3.26150       -2.31380        8.71550
C          2.09380       -1.66830        9.20390
C          1.33130       -0.83240        8.36230
C          0.14550       -0.15710        8.89570
C          0.22110        0.55260       10.09290
C         -0.90610        1.09740       10.67010
C         -2.15460        0.94050       10.07790
S         -3.66360        1.52280       10.77410
C         -3.29750        1.59050       12.56390
C         -2.98860        0.22580       13.14970
C         -2.20600        0.28600        8.84680
C         -1.08680       -0.25580        8.25440
F         -3.39320        0.14850        8.22360
C          1.75420       -0.72860        7.05070
S          0.96980        0.20090        5.80210
C          1.81400       -2.00130       10.54200
C          2.73310       -2.84750       11.10880
S          4.01510       -3.26150        9.96500
C          2.80760       -3.43500       12.39160
C          1.96060       -3.37790       13.46250
C          0.65440       -2.68810       13.59890
O          0.13850       -1.86480       12.86700
C          0.06650       -3.17880       14.85650
C         -1.19710       -2.86760       15.35510
C         -1.49380       -3.48120       16.54730
C         -0.59670       -4.33950       17.19860
C          0.65430       -4.64830       16.72110
C          0.97590       -4.03500       15.50610
C          2.18850       -4.11940       14.69780
C          3.34240       -4.75030       15.08170
C          4.55770       -4.79460       14.36370
N          5.59390       -4.87640       13.87460
C          3.50580       -5.43890       16.30340
N          3.71940       -6.01890       17.27090
C         -1.55520       -4.61190       18.33020
C         -2.30990       -5.96440       18.32490
C         -2.40160       -6.39990       16.88340
C         -3.25050       -5.58770       16.26800
C         -3.74820       -4.58780       17.28240
C         -3.74520       -5.46120       18.54720
C         -2.55410       -3.65550       17.60540
H         -3.43890       -0.79320      -10.07580
H         -0.50730        3.83030      -13.07830
H         -4.84450        1.84810      -14.78360
H         -4.01740        4.65190      -16.58910
H         -3.44890        2.48890      -18.03480
H         -2.93560        4.61780      -19.48660
H         -0.65700        5.67750      -18.62400
H          0.23350        4.19960      -16.64240
H         -0.81280        2.25510      -18.10110
H         -1.34910        2.04000      -16.41930
H         -1.78400        5.69070      -15.74380
H          0.58860        2.79670       -8.73140
H          2.11630        4.58820       -7.96430
H          0.06710        8.82050       -6.70270
H          0.16750        7.93220       -5.14640
H          1.43960        9.08490       -5.60660
H         -1.25920        6.90490       -6.71810
H         -2.75380        5.12250       -7.45240
H         -4.51390        1.79380       -8.25270
H         -6.44390        2.33710       -9.66670
H         -6.99680        4.97370      -13.99800
H         -5.95130        5.97380      -12.96590
H         -5.31850        4.46350      -13.70340
H         -4.07480        5.18710      -11.80620
H         -2.15960        4.64880      -10.39620
H          1.20510       -1.82140       -7.02960
H          1.44750       -3.71960       -8.58010
H         -0.68090       -8.37150       -8.89970
H         -0.50570       -7.95180       -7.18240
H         -1.80770       -7.20770       -8.16860
H         -1.30770       -5.98760       -6.22030
H         -1.56700       -4.09830       -4.70590
H         -2.00130       -0.48250       -3.20200
H         -2.03150       -0.71830       -0.78040
H         -1.44740       -1.31120        2.76700
H         -1.30190       -0.25210        1.34790
H         -2.56970       -1.52100        1.40460
H          0.90700       -3.81260       -1.04260
H          0.95020       -3.55770       -3.49260
H         -0.61160        2.23470       -2.52830
H         -1.34830        2.59160       -0.35390
H         -0.84550        2.66300        1.34200
H          0.96640        4.25640        0.75060
H          0.49620        4.18230       -0.94870
H         -0.60560        4.88170        0.24480
H          3.45220       -2.25090        0.14320
H          3.35880       -1.91330       -1.59050
H          5.68750       -1.63650       -0.75070
H          5.04450       -0.10390       -1.34640
H          5.13880       -0.40360        0.39000
H          3.32400       -1.31490        2.24880
H          3.89890       -1.57980        4.60180
H          4.48840       -4.74250        7.69340
H          6.56730       -5.75910        6.98910
H          9.94240       -6.64710        5.82960
H          8.56860       -6.48900        6.93210
H          8.43500       -7.00410        3.90490
H          7.01480       -6.80890        4.93060
H          8.08330       -8.19860        5.15910
H          5.76280       -0.98090        6.08590
H          1.17810        0.68860       10.57270
H         -0.80770        1.64100       11.59530
H         -4.21560        1.99700       12.98900
H         -2.49320        2.30530       12.73330
H         -2.85770        0.31620       14.22710
H         -3.81020       -0.46010       12.95360
H         -2.07850       -0.19330       12.72440
H         -1.19260       -0.78850        7.32260
H          0.95050       -1.64890       11.07370
H          3.68350       -4.06150       12.51200
H         -1.85580       -2.20390       14.81680
H          1.32800       -5.31260       17.23510
H         -1.21110       -4.33310       19.32400
H         -1.92220       -6.69980       19.02460
H         -1.81510       -7.19380       16.45940
H         -3.51480       -5.56710       15.22690
H         -4.67100       -4.07030       17.03360
H         -4.48270       -6.26130       18.50800
H         -3.86780       -4.89240       19.46790
H         -2.86250       -2.75110       18.12630
