
  xtb     02152206323D
 energy: -406.268901107177 gnorm: 0.000535160337 xtb: 6.4.1 (unknown)
245268  0     0  0            999 V2000
   -3.1943    7.7028   -3.5625 C   0  0  0  0  0  0  0  0  0  0  0  0
   -3.3392    7.7979   -4.9126 C   0  0  0  0  0  0  0  0  0  0  0  0
   -2.7575    8.9896   -5.5813 C   0  0  0  0  0  0  0  0  0  0  0  0
   -2.5854   10.0902   -5.1004 O   0  0  0  0  0  0  0  0  0  0  0  0
   -2.3226    8.5039   -6.9035 C   0  0  0  0  0  0  0  0  0  0  0  0
   -1.5581    9.1879   -7.8453 C   0  0  0  0  0  0  0  0  0  0  0  0
   -1.2119    8.4326   -8.9391 C   0  0  0  0  0  0  0  0  0  0  0  0
   -1.5806    7.0886   -9.0874 C   0  0  0  0  0  0  0  0  0  0  0  0
   -2.3758    6.4120   -8.1906 C   0  0  0  0  0  0  0  0  0  0  0  0
   -2.7472    7.1682   -7.0787 C   0  0  0  0  0  0  0  0  0  0  0  0
   -3.5932    6.8129   -5.9411 C   0  0  0  0  0  0  0  0  0  0  0  0
   -4.6279    5.9180   -5.9644 C   0  0  0  0  0  0  0  0  0  0  0  0
   -4.8699    5.0188   -7.0217 C   0  0  0  0  0  0  0  0  0  0  0  0
   -5.1041    4.2607   -7.8510 N   0  0  0  0  0  0  0  0  0  0  0  0
   -5.6615    5.9403   -5.0023 C   0  0  0  0  0  0  0  0  0  0  0  0
   -6.5617    6.0018   -4.2931 N   0  0  0  0  0  0  0  0  0  0  0  0
   -0.8172    6.9419  -10.3793 C   0  0  0  0  0  0  0  0  0  0  0  0
    0.5699    6.2505  -10.3245 C   0  0  0  0  0  0  0  0  0  0  0  0
    1.1264    6.4831   -8.9413 C   0  0  0  0  0  0  0  0  0  0  0  0
    1.4407    7.7676   -8.8378 C   0  0  0  0  0  0  0  0  0  0  0  0
    1.1019    8.4264  -10.1521 C   0  0  0  0  0  0  0  0  0  0  0  0
    1.3980    7.2712  -11.1214 C   0  0  0  0  0  0  0  0  0  0  0  0
   -0.4429    8.4511  -10.2364 C   0  0  0  0  0  0  0  0  0  0  0  0
   -3.0937    6.5666   -2.7327 C   0  0  0  0  0  0  0  0  0  0  0  0
   -2.3612    6.5265   -1.5345 C   0  0  0  0  0  0  0  0  0  0  0  0
   -1.5281    7.5452   -1.1262 N   0  0  0  0  0  0  0  0  0  0  0  0
   -1.2322    7.7156    0.2280 C   0  0  0  0  0  0  0  0  0  0  0  0
   -2.2166    7.5031    1.1941 C   0  0  0  0  0  0  0  0  0  0  0  0
   -1.9236    7.6679    2.5285 C   0  0  0  0  0  0  0  0  0  0  0  0
   -0.6434    8.0427    2.9294 C   0  0  0  0  0  0  0  0  0  0  0  0
   -0.3619    8.1896    4.6682 S   0  0  0  0  0  0  0  0  0  0  0  0
    1.2529    9.0059    4.7885 C   0  0  0  0  0  0  0  0  0  0  0  0
    0.3365    8.2646    1.9716 C   0  0  0  0  0  0  0  0  0  0  0  0
    0.0420    8.1054    0.6325 C   0  0  0  0  0  0  0  0  0  0  0  0
   -0.7919    8.2374   -2.1154 C   0  0  0  0  0  0  0  0  0  0  0  0
   -0.2263    7.5336   -3.1786 C   0  0  0  0  0  0  0  0  0  0  0  0
    0.3623    8.2094   -4.2236 C   0  0  0  0  0  0  0  0  0  0  0  0
    0.4089    9.6002   -4.2178 C   0  0  0  0  0  0  0  0  0  0  0  0
    1.0888   10.4002   -5.6348 S   0  0  0  0  0  0  0  0  0  0  0  0
    0.1665   11.9666   -5.6517 C   0  0  0  0  0  0  0  0  0  0  0  0
   -0.0725   10.2991   -3.1183 C   0  0  0  0  0  0  0  0  0  0  0  0
   -0.6716    9.6221   -2.0745 C   0  0  0  0  0  0  0  0  0  0  0  0
   -2.4118    5.2418   -0.9454 C   0  0  0  0  0  0  0  0  0  0  0  0
   -1.7240    4.4968    0.4623 S   0  0  0  0  0  0  0  0  0  0  0  0
   -2.2770    2.9149   -0.0774 C   0  0  0  0  0  0  0  0  0  0  0  0
   -2.9891    2.9837   -1.2504 C   0  0  0  0  0  0  0  0  0  0  0  0
   -3.4849    1.8837   -1.9607 N   0  0  0  0  0  0  0  0  0  0  0  0
   -4.5728    1.1663   -1.4594 C   0  0  0  0  0  0  0  0  0  0  0  0
   -5.4128    1.7263   -0.4961 C   0  0  0  0  0  0  0  0  0  0  0  0
   -6.4895    1.0164   -0.0167 C   0  0  0  0  0  0  0  0  0  0  0  0
   -6.7564   -0.2697   -0.4771 C   0  0  0  0  0  0  0  0  0  0  0  0
   -8.1681   -1.0625    0.2246 S   0  0  0  0  0  0  0  0  0  0  0  0
   -8.2116   -2.6919   -0.5702 C   0  0  0  0  0  0  0  0  0  0  0  0
   -5.9218   -0.8350   -1.4307 C   0  0  0  0  0  0  0  0  0  0  0  0
   -4.8389   -0.1234   -1.9125 C   0  0  0  0  0  0  0  0  0  0  0  0
   -3.1546    1.9071   -3.3273 C   0  0  0  0  0  0  0  0  0  0  0  0
   -4.0963    1.7183   -4.3381 C   0  0  0  0  0  0  0  0  0  0  0  0
   -3.7335    1.8794   -5.6581 C   0  0  0  0  0  0  0  0  0  0  0  0
   -2.4317    2.2440   -5.9979 C   0  0  0  0  0  0  0  0  0  0  0  0
   -2.0859    2.4619   -7.7151 S   0  0  0  0  0  0  0  0  0  0  0  0
   -0.4234    3.1960   -7.7219 C   0  0  0  0  0  0  0  0  0  0  0  0
   -1.4832    2.4036   -4.9962 C   0  0  0  0  0  0  0  0  0  0  0  0
   -1.8427    2.2236   -3.6765 C   0  0  0  0  0  0  0  0  0  0  0  0
   -3.0758    4.3117   -1.7283 C   0  0  0  0  0  0  0  0  0  0  0  0
   -3.6991    4.9794   -3.1824 S   0  0  0  0  0  0  0  0  0  0  0  0
   -1.7595    1.6796    0.4667 C   0  0  0  0  0  0  0  0  0  0  0  0
   -2.2300    0.8319    1.4404 C   0  0  0  0  0  0  0  0  0  0  0  0
   -3.3814    1.0364    2.1872 N   0  0  0  0  0  0  0  0  0  0  0  0
   -4.2516   -0.0434    2.3671 C   0  0  0  0  0  0  0  0  0  0  0  0
   -4.2843   -1.0781    1.4311 C   0  0  0  0  0  0  0  0  0  0  0  0
   -5.1124   -2.1623    1.6131 C   0  0  0  0  0  0  0  0  0  0  0  0
   -5.9589   -2.2255    2.7122 C   0  0  0  0  0  0  0  0  0  0  0  0
   -7.0196   -3.6350    2.8575 S   0  0  0  0  0  0  0  0  0  0  0  0
   -8.4842   -2.9213    3.6625 C   0  0  0  0  0  0  0  0  0  0  0  0
   -5.9313   -1.2025    3.6497 C   0  0  0  0  0  0  0  0  0  0  0  0
   -5.0782   -0.1301    3.4855 C   0  0  0  0  0  0  0  0  0  0  0  0
   -3.6346    2.3028    2.7316 C   0  0  0  0  0  0  0  0  0  0  0  0
   -2.5875    3.0646    3.2472 C   0  0  0  0  0  0  0  0  0  0  0  0
   -2.8291    4.2904    3.8355 C   0  0  0  0  0  0  0  0  0  0  0  0
   -4.1283    4.7703    3.9269 C   0  0  0  0  0  0  0  0  0  0  0  0
   -4.5316    6.2992    4.7240 S   0  0  0  0  0  0  0  0  0  0  0  0
   -3.3093    6.3589    6.0693 C   0  0  0  0  0  0  0  0  0  0  0  0
   -5.1731    4.0347    3.3765 C   0  0  0  0  0  0  0  0  0  0  0  0
   -4.9306    2.8147    2.7847 C   0  0  0  0  0  0  0  0  0  0  0  0
   -1.4146   -0.3300    1.5380 C   0  0  0  0  0  0  0  0  0  0  0  0
   -1.4064   -1.7253    2.5579 S   0  0  0  0  0  0  0  0  0  0  0  0
   -0.0097   -2.3743    1.7008 C   0  0  0  0  0  0  0  0  0  0  0  0
    0.4473   -1.5189    0.7092 C   0  0  0  0  0  0  0  0  0  0  0  0
    1.5464   -1.6875   -0.1202 N   0  0  0  0  0  0  0  0  0  0  0  0
    2.7436   -2.2328    0.3495 C   0  0  0  0  0  0  0  0  0  0  0  0
    3.1097   -2.0934    1.6879 C   0  0  0  0  0  0  0  0  0  0  0  0
    4.2152   -2.7516    2.1852 C   0  0  0  0  0  0  0  0  0  0  0  0
    4.9875   -3.5482    1.3496 C   0  0  0  0  0  0  0  0  0  0  0  0
    6.3790   -4.4651    1.9352 S   0  0  0  0  0  0  0  0  0  0  0  0
    5.8382   -4.9484    3.6049 C   0  0  0  0  0  0  0  0  0  0  0  0
    4.6740   -3.6262   -0.0035 C   0  0  0  0  0  0  0  0  0  0  0  0
    3.5639   -2.9797   -0.4991 C   0  0  0  0  0  0  0  0  0  0  0  0
    1.4090   -1.2733   -1.4549 C   0  0  0  0  0  0  0  0  0  0  0  0
    2.4445   -0.6118   -2.1148 C   0  0  0  0  0  0  0  0  0  0  0  0
    2.2845   -0.2044   -3.4204 C   0  0  0  0  0  0  0  0  0  0  0  0
    1.0859   -0.4339   -4.0939 C   0  0  0  0  0  0  0  0  0  0  0  0
    0.9869    0.1314   -5.7632 S   0  0  0  0  0  0  0  0  0  0  0  0
   -0.4972   -0.6839   -6.4156 C   0  0  0  0  0  0  0  0  0  0  0  0
    0.0462   -1.0765   -3.4373 C   0  0  0  0  0  0  0  0  0  0  0  0
    0.2139   -1.5009   -2.1341 C   0  0  0  0  0  0  0  0  0  0  0  0
   -0.3710   -0.3633    0.6338 C   0  0  0  0  0  0  0  0  0  0  0  0
   -0.3181    1.0609   -0.3353 S   0  0  0  0  0  0  0  0  0  0  0  0
    0.5183   -3.6296    2.1261 C   0  0  0  0  0  0  0  0  0  0  0  0
    0.4769   -4.1481    3.3888 C   0  0  0  0  0  0  0  0  0  0  0  0
    1.1984   -5.3573    3.5309 C   0  0  0  0  0  0  0  0  0  0  0  0
    1.4566   -6.0676    4.7177 C   0  0  0  0  0  0  0  0  0  0  0  0
    0.7776   -5.7176    5.9703 C   0  0  0  0  0  0  0  0  0  0  0  0
    1.4865   -5.5467    7.1583 C   0  0  0  0  0  0  0  0  0  0  0  0
    0.8280   -5.2392    8.3288 C   0  0  0  0  0  0  0  0  0  0  0  0
   -0.5575   -5.0960    8.3430 C   0  0  0  0  0  0  0  0  0  0  0  0
   -1.2909   -4.6754    9.8936 S   0  0  0  0  0  0  0  0  0  0  0  0
   -3.0333   -5.2028    9.7335 C   0  0  0  0  0  0  0  0  0  0  0  0
   -3.1657   -6.7076    9.6020 C   0  0  0  0  0  0  0  0  0  0  0  0
   -1.2705   -5.2499    7.1610 C   0  0  0  0  0  0  0  0  0  0  0  0
   -0.6062   -5.5593    5.9908 C   0  0  0  0  0  0  0  0  0  0  0  0
    2.3727   -7.1032    4.6281 C   0  0  0  0  0  0  0  0  0  0  0  0
    3.0256   -7.4653    3.4168 C   0  0  0  0  0  0  0  0  0  0  0  0
    2.7282   -6.7857    2.2160 C   0  0  0  0  0  0  0  0  0  0  0  0
    3.4270   -7.0493    0.9579 C   0  0  0  0  0  0  0  0  0  0  0  0
    2.7259   -7.0597   -0.2472 C   0  0  0  0  0  0  0  0  0  0  0  0
    3.3814   -7.1864   -1.4544 C   0  0  0  0  0  0  0  0  0  0  0  0
    4.7669   -7.2833   -1.4836 C   0  0  0  0  0  0  0  0  0  0  0  0
    5.7099   -7.3994   -2.9717 S   0  0  0  0  0  0  0  0  0  0  0  0
    4.6542   -6.5941   -4.2285 C   0  0  0  0  0  0  0  0  0  0  0  0
    4.4027   -5.1322   -3.9138 C   0  0  0  0  0  0  0  0  0  0  0  0
    5.4731   -7.3172   -0.2839 C   0  0  0  0  0  0  0  0  0  0  0  0
    4.8140   -7.2101    0.9206 C   0  0  0  0  0  0  0  0  0  0  0  0
    1.7992   -5.7611    2.3118 C   0  0  0  0  0  0  0  0  0  0  0  0
    1.3415   -4.6982    1.0079 S   0  0  0  0  0  0  0  0  0  0  0  0
    3.9384   -8.5201    3.6052 C   0  0  0  0  0  0  0  0  0  0  0  0
    4.0216   -8.9577    4.9037 C   0  0  0  0  0  0  0  0  0  0  0  0
    2.8819   -8.1199    5.9485 S   0  0  0  0  0  0  0  0  0  0  0  0
    4.8664   -9.9506    5.4499 C   0  0  0  0  0  0  0  0  0  0  0  0
    6.1293  -10.2400    5.0114 C   0  0  0  0  0  0  0  0  0  0  0  0
    6.9686   -9.3369    4.1896 C   0  0  0  0  0  0  0  0  0  0  0  0
    6.6496   -8.3139    3.6198 O   0  0  0  0  0  0  0  0  0  0  0  0
    8.3400   -9.8804    4.2902 C   0  0  0  0  0  0  0  0  0  0  0  0
    9.4977   -9.3691    3.7410 C   0  0  0  0  0  0  0  0  0  0  0  0
   10.6799  -10.0613    3.9781 C   0  0  0  0  0  0  0  0  0  0  0  0
   12.1556   -9.4715    3.3139 Cl  0  0  0  0  0  0  0  0  0  0  0  0
   10.6932  -11.2221    4.7441 C   0  0  0  0  0  0  0  0  0  0  0  0
    9.5243  -11.7274    5.2926 C   0  0  0  0  0  0  0  0  0  0  0  0
    8.3333  -11.0532    5.0651 C   0  0  0  0  0  0  0  0  0  0  0  0
    6.9655  -11.3219    5.4945 C   0  0  0  0  0  0  0  0  0  0  0  0
    6.5360  -12.4388    6.1616 C   0  0  0  0  0  0  0  0  0  0  0  0
    5.1877  -12.7175    6.4713 C   0  0  0  0  0  0  0  0  0  0  0  0
    4.1125  -13.0196    6.7374 N   0  0  0  0  0  0  0  0  0  0  0  0
    7.3881  -13.4769    6.5916 C   0  0  0  0  0  0  0  0  0  0  0  0
    8.0342  -14.3457    6.9727 N   0  0  0  0  0  0  0  0  0  0  0  0
   -2.9534    8.6443   -3.0807 H   0  0  0  0  0  0  0  0  0  0  0  0
   -1.2731   10.2164   -7.6948 H   0  0  0  0  0  0  0  0  0  0  0  0
   -2.6790    5.3842   -8.3153 H   0  0  0  0  0  0  0  0  0  0  0  0
   -1.3951    6.6338  -11.2484 H   0  0  0  0  0  0  0  0  0  0  0  0
    0.5732    5.2223  -10.6781 H   0  0  0  0  0  0  0  0  0  0  0  0
    1.1877    5.7224   -8.1851 H   0  0  0  0  0  0  0  0  0  0  0  0
    1.8042    8.3012   -7.9787 H   0  0  0  0  0  0  0  0  0  0  0  0
    1.5828    9.3809  -10.3477 H   0  0  0  0  0  0  0  0  0  0  0  0
    2.4558    7.0156  -11.1619 H   0  0  0  0  0  0  0  0  0  0  0  0
    1.0220    7.4429  -12.1291 H   0  0  0  0  0  0  0  0  0  0  0  0
   -0.8119    9.1362  -10.9969 H   0  0  0  0  0  0  0  0  0  0  0  0
   -3.2163    7.2276    0.8940 H   0  0  0  0  0  0  0  0  0  0  0  0
   -2.6946    7.5228    3.2678 H   0  0  0  0  0  0  0  0  0  0  0  0
    1.3899    9.2291    5.8421 H   0  0  0  0  0  0  0  0  0  0  0  0
    1.2399    9.9268    4.2131 H   0  0  0  0  0  0  0  0  0  0  0  0
    2.0392    8.3373    4.4497 H   0  0  0  0  0  0  0  0  0  0  0  0
    1.3371    8.5523    2.2516 H   0  0  0  0  0  0  0  0  0  0  0  0
    0.8111    8.2705   -0.1073 H   0  0  0  0  0  0  0  0  0  0  0  0
   -0.2821    6.4547   -3.1952 H   0  0  0  0  0  0  0  0  0  0  0  0
    0.7733    7.6702   -5.0638 H   0  0  0  0  0  0  0  0  0  0  0  0
    0.2758   12.3715   -6.6532 H   0  0  0  0  0  0  0  0  0  0  0  0
   -0.8765   11.7510   -5.4360 H   0  0  0  0  0  0  0  0  0  0  0  0
    0.5864   12.6628   -4.9313 H   0  0  0  0  0  0  0  0  0  0  0  0
   -0.0093   11.3742   -3.0789 H   0  0  0  0  0  0  0  0  0  0  0  0
   -1.0783   10.1682   -1.2363 H   0  0  0  0  0  0  0  0  0  0  0  0
   -5.2274    2.7291   -0.1406 H   0  0  0  0  0  0  0  0  0  0  0  0
   -7.1574    1.4564    0.7086 H   0  0  0  0  0  0  0  0  0  0  0  0
   -8.3145   -2.5777   -1.6453 H   0  0  0  0  0  0  0  0  0  0  0  0
   -9.0874   -3.1903   -0.1666 H   0  0  0  0  0  0  0  0  0  0  0  0
   -7.3204   -3.2542   -0.3090 H   0  0  0  0  0  0  0  0  0  0  0  0
   -6.0992   -1.8302   -1.8061 H   0  0  0  0  0  0  0  0  0  0  0  0
   -4.1919   -0.5693   -2.6540 H   0  0  0  0  0  0  0  0  0  0  0  0
   -5.1177    1.4791   -4.0843 H   0  0  0  0  0  0  0  0  0  0  0  0
   -4.4646    1.7593   -6.4427 H   0  0  0  0  0  0  0  0  0  0  0  0
   -0.4229    4.0970   -7.1147 H   0  0  0  0  0  0  0  0  0  0  0  0
   -0.2229    3.4483   -8.7584 H   0  0  0  0  0  0  0  0  0  0  0  0
    0.3112    2.4781   -7.3673 H   0  0  0  0  0  0  0  0  0  0  0  0
   -0.4620    2.6583   -5.2262 H   0  0  0  0  0  0  0  0  0  0  0  0
   -1.0990    2.3444   -2.9015 H   0  0  0  0  0  0  0  0  0  0  0  0
   -3.6763   -1.0214    0.5414 H   0  0  0  0  0  0  0  0  0  0  0  0
   -5.1185   -2.9644    0.8910 H   0  0  0  0  0  0  0  0  0  0  0  0
   -8.3075   -2.7860    4.7256 H   0  0  0  0  0  0  0  0  0  0  0  0
   -8.7247   -1.9799    3.1780 H   0  0  0  0  0  0  0  0  0  0  0  0
   -9.2874   -3.6361    3.5141 H   0  0  0  0  0  0  0  0  0  0  0  0
   -6.5637   -1.2400    4.5227 H   0  0  0  0  0  0  0  0  0  0  0  0
   -5.0490    0.6451    4.2362 H   0  0  0  0  0  0  0  0  0  0  0  0
   -1.5765    2.6875    3.1969 H   0  0  0  0  0  0  0  0  0  0  0  0
   -2.0022    4.8617    4.2270 H   0  0  0  0  0  0  0  0  0  0  0  0
   -2.3401    6.6788    5.6975 H   0  0  0  0  0  0  0  0  0  0  0  0
   -3.2483    5.3801    6.5343 H   0  0  0  0  0  0  0  0  0  0  0  0
   -3.6850    7.0888    6.7791 H   0  0  0  0  0  0  0  0  0  0  0  0
   -6.1773    4.4265    3.4267 H   0  0  0  0  0  0  0  0  0  0  0  0
   -5.7454    2.2398    2.3750 H   0  0  0  0  0  0  0  0  0  0  0  0
    2.5118   -1.4814    2.3470 H   0  0  0  0  0  0  0  0  0  0  0  0
    4.4715   -2.6406    3.2275 H   0  0  0  0  0  0  0  0  0  0  0  0
    6.1246   -4.1922    4.3305 H   0  0  0  0  0  0  0  0  0  0  0  0
    4.7623   -5.0944    3.5985 H   0  0  0  0  0  0  0  0  0  0  0  0
    6.3380   -5.8869    3.8274 H   0  0  0  0  0  0  0  0  0  0  0  0
    5.2925   -4.2273   -0.6515 H   0  0  0  0  0  0  0  0  0  0  0  0
    3.2981   -3.0814   -1.5403 H   0  0  0  0  0  0  0  0  0  0  0  0
    3.3717   -0.4202   -1.5961 H   0  0  0  0  0  0  0  0  0  0  0  0
    3.0858    0.3046   -3.9337 H   0  0  0  0  0  0  0  0  0  0  0  0
   -0.5202   -0.4519   -7.4761 H   0  0  0  0  0  0  0  0  0  0  0  0
   -1.3876   -0.2847   -5.9380 H   0  0  0  0  0  0  0  0  0  0  0  0
   -0.4137   -1.7569   -6.2716 H   0  0  0  0  0  0  0  0  0  0  0  0
   -0.8965   -1.2550   -3.9289 H   0  0  0  0  0  0  0  0  0  0  0  0
   -0.5928   -2.0179   -1.6346 H   0  0  0  0  0  0  0  0  0  0  0  0
    0.0099   -3.6350    4.2108 H   0  0  0  0  0  0  0  0  0  0  0  0
    2.5620   -5.6405    7.1606 H   0  0  0  0  0  0  0  0  0  0  0  0
    1.3779   -5.1053    9.2477 H   0  0  0  0  0  0  0  0  0  0  0  0
   -3.4932   -4.8494   10.6564 H   0  0  0  0  0  0  0  0  0  0  0  0
   -3.4839   -4.6713    8.8960 H   0  0  0  0  0  0  0  0  0  0  0  0
   -2.6634   -7.0658    8.7056 H   0  0  0  0  0  0  0  0  0  0  0  0
   -2.7221   -7.2004   10.4639 H   0  0  0  0  0  0  0  0  0  0  0  0
   -4.2172   -6.9828    9.5451 H   0  0  0  0  0  0  0  0  0  0  0  0
   -2.3419   -5.1272    7.1356 H   0  0  0  0  0  0  0  0  0  0  0  0
   -1.1726   -5.6981    5.0813 H   0  0  0  0  0  0  0  0  0  0  0  0
    1.6475   -6.9997   -0.2404 H   0  0  0  0  0  0  0  0  0  0  0  0
    2.8027   -7.2124   -2.3644 H   0  0  0  0  0  0  0  0  0  0  0  0
    3.7284   -7.1607   -4.3238 H   0  0  0  0  0  0  0  0  0  0  0  0
    5.2250   -6.7039   -5.1504 H   0  0  0  0  0  0  0  0  0  0  0  0
    3.8134   -4.6774   -4.7080 H   0  0  0  0  0  0  0  0  0  0  0  0
    3.8618   -5.0274   -2.9752 H   0  0  0  0  0  0  0  0  0  0  0  0
    5.3460   -4.5971   -3.8302 H   0  0  0  0  0  0  0  0  0  0  0  0
    6.5480   -7.4062   -0.3069 H   0  0  0  0  0  0  0  0  0  0  0  0
    5.3888   -7.2063    1.8321 H   0  0  0  0  0  0  0  0  0  0  0  0
    4.4773   -8.9872    2.8032 H   0  0  0  0  0  0  0  0  0  0  0  0
    4.4888  -10.4643    6.3257 H   0  0  0  0  0  0  0  0  0  0  0  0
    9.4766   -8.4676    3.1492 H   0  0  0  0  0  0  0  0  0  0  0  0
   11.6282  -11.7327    4.9133 H   0  0  0  0  0  0  0  0  0  0  0  0
    9.5604  -12.6249    5.8882 H   0  0  0  0  0  0  0  0  0  0  0  0
  1  2  2  0  0  0  0
  2  3  1  0  0  0  0
  3  4  2  0  0  0  0
  3  5  1  0  0  0  0
  5  6  2  0  0  0  0
  6  7  1  0  0  0  0
  7  8  2  0  0  0  0
  8  9  1  0  0  0  0
  9 10  2  0  0  0  0
 10 11  1  0  0  0  0
 11 12  2  0  0  0  0
 12 13  1  0  0  0  0
 13 14  3  0  0  0  0
 12 15  1  0  0  0  0
 15 16  3  0  0  0  0
  8 17  1  0  0  0  0
 17 18  1  0  0  0  0
 18 19  1  0  0  0  0
 19 20  2  0  0  0  0
 20 21  1  0  0  0  0
 21 22  1  0  0  0  0
 21 23  1  0  0  0  0
  1 24  1  0  0  0  0
 24 25  2  0  0  0  0
 25 26  1  0  0  0  0
 26 27  1  0  0  0  0
 27 28  2  0  0  0  0
 28 29  1  0  0  0  0
 29 30  2  0  0  0  0
 30 31  1  0  0  0  0
 31 32  1  0  0  0  0
 30 33  1  0  0  0  0
 33 34  2  0  0  0  0
 26 35  1  0  0  0  0
 35 36  2  0  0  0  0
 36 37  1  0  0  0  0
 37 38  2  0  0  0  0
 38 39  1  0  0  0  0
 39 40  1  0  0  0  0
 38 41  1  0  0  0  0
 41 42  2  0  0  0  0
 25 43  1  0  0  0  0
 43 44  1  0  0  0  0
 44 45  1  0  0  0  0
 45 46  2  0  0  0  0
 46 47  1  0  0  0  0
 47 48  1  0  0  0  0
 48 49  2  0  0  0  0
 49 50  1  0  0  0  0
 50 51  2  0  0  0  0
 51 52  1  0  0  0  0
 52 53  1  0  0  0  0
 51 54  1  0  0  0  0
 54 55  2  0  0  0  0
 47 56  1  0  0  0  0
 56 57  2  0  0  0  0
 57 58  1  0  0  0  0
 58 59  2  0  0  0  0
 59 60  1  0  0  0  0
 60 61  1  0  0  0  0
 59 62  1  0  0  0  0
 62 63  2  0  0  0  0
 46 64  1  0  0  0  0
 64 65  1  0  0  0  0
 45 66  1  0  0  0  0
 66 67  2  0  0  0  0
 67 68  1  0  0  0  0
 68 69  1  0  0  0  0
 69 70  2  0  0  0  0
 70 71  1  0  0  0  0
 71 72  2  0  0  0  0
 72 73  1  0  0  0  0
 73 74  1  0  0  0  0
 72 75  1  0  0  0  0
 75 76  2  0  0  0  0
 68 77  1  0  0  0  0
 77 78  2  0  0  0  0
 78 79  1  0  0  0  0
 79 80  2  0  0  0  0
 80 81  1  0  0  0  0
 81 82  1  0  0  0  0
 80 83  1  0  0  0  0
 83 84  2  0  0  0  0
 67 85  1  0  0  0  0
 85 86  1  0  0  0  0
 86 87  1  0  0  0  0
 87 88  2  0  0  0  0
 88 89  1  0  0  0  0
 89 90  1  0  0  0  0
 90 91  2  0  0  0  0
 91 92  1  0  0  0  0
 92 93  2  0  0  0  0
 93 94  1  0  0  0  0
 94 95  1  0  0  0  0
 93 96  1  0  0  0  0
 96 97  2  0  0  0  0
 89 98  1  0  0  0  0
 98 99  2  0  0  0  0
 99100  1  0  0  0  0
100101  2  0  0  0  0
101102  1  0  0  0  0
102103  1  0  0  0  0
101104  1  0  0  0  0
104105  2  0  0  0  0
 88106  1  0  0  0  0
106107  1  0  0  0  0
 87108  1  0  0  0  0
108109  2  0  0  0  0
109110  1  0  0  0  0
110111  2  0  0  0  0
111112  1  0  0  0  0
112113  2  0  0  0  0
113114  1  0  0  0  0
114115  2  0  0  0  0
115116  1  0  0  0  0
116117  1  0  0  0  0
117118  1  0  0  0  0
115119  1  0  0  0  0
119120  2  0  0  0  0
111121  1  0  0  0  0
121122  2  0  0  0  0
122123  1  0  0  0  0
123124  1  0  0  0  0
124125  2  0  0  0  0
125126  1  0  0  0  0
126127  2  0  0  0  0
127128  1  0  0  0  0
128129  1  0  0  0  0
129130  1  0  0  0  0
127131  1  0  0  0  0
131132  2  0  0  0  0
123133  2  0  0  0  0
133134  1  0  0  0  0
122135  1  0  0  0  0
135136  2  0  0  0  0
136137  1  0  0  0  0
136138  1  0  0  0  0
138139  2  0  0  0  0
139140  1  0  0  0  0
140141  2  0  0  0  0
140142  1  0  0  0  0
142143  2  0  0  0  0
143144  1  0  0  0  0
144145  1  0  0  0  0
144146  2  0  0  0  0
146147  1  0  0  0  0
147148  2  0  0  0  0
148149  1  0  0  0  0
149150  2  0  0  0  0
150151  1  0  0  0  0
151152  3  0  0  0  0
150153  1  0  0  0  0
153154  3  0  0  0  0
 11  2  1  0  0  0  0
 23 17  1  0  0  0  0
 65 24  1  0  0  0  0
107 66  1  0  0  0  0
134108  1  0  0  0  0
149139  1  0  0  0  0
 10  5  1  0  0  0  0
 22 18  1  0  0  0  0
 34 27  1  0  0  0  0
 42 35  1  0  0  0  0
 64 43  2  0  0  0  0
 76 69  1  0  0  0  0
 84 77  1  0  0  0  0
106 85  2  0  0  0  0
133110  1  0  0  0  0
148142  1  0  0  0  0
 23  7  1  0  0  0  0
 55 48  1  0  0  0  0
 63 56  1  0  0  0  0
 97 90  1  0  0  0  0
105 98  1  0  0  0  0
120112  1  0  0  0  0
137121  1  0  0  0  0
132124  1  0  0  0  0
  1155  1  0  0  0  0
  6156  1  0  0  0  0
  9157  1  0  0  0  0
 17158  1  0  0  0  0
 18159  1  0  0  0  0
 19160  1  0  0  0  0
 20161  1  0  0  0  0
 21162  1  0  0  0  0
 22163  1  0  0  0  0
 22164  1  0  0  0  0
 23165  1  0  0  0  0
 28166  1  0  0  0  0
 29167  1  0  0  0  0
 32168  1  0  0  0  0
 32169  1  0  0  0  0
 32170  1  0  0  0  0
 33171  1  0  0  0  0
 34172  1  0  0  0  0
 36173  1  0  0  0  0
 37174  1  0  0  0  0
 40175  1  0  0  0  0
 40176  1  0  0  0  0
 40177  1  0  0  0  0
 41178  1  0  0  0  0
 42179  1  0  0  0  0
 49180  1  0  0  0  0
 50181  1  0  0  0  0
 53182  1  0  0  0  0
 53183  1  0  0  0  0
 53184  1  0  0  0  0
 54185  1  0  0  0  0
 55186  1  0  0  0  0
 57187  1  0  0  0  0
 58188  1  0  0  0  0
 61189  1  0  0  0  0
 61190  1  0  0  0  0
 61191  1  0  0  0  0
 62192  1  0  0  0  0
 63193  1  0  0  0  0
 70194  1  0  0  0  0
 71195  1  0  0  0  0
 74196  1  0  0  0  0
 74197  1  0  0  0  0
 74198  1  0  0  0  0
 75199  1  0  0  0  0
 76200  1  0  0  0  0
 78201  1  0  0  0  0
 79202  1  0  0  0  0
 82203  1  0  0  0  0
 82204  1  0  0  0  0
 82205  1  0  0  0  0
 83206  1  0  0  0  0
 84207  1  0  0  0  0
 91208  1  0  0  0  0
 92209  1  0  0  0  0
 95210  1  0  0  0  0
 95211  1  0  0  0  0
 95212  1  0  0  0  0
 96213  1  0  0  0  0
 97214  1  0  0  0  0
 99215  1  0  0  0  0
100216  1  0  0  0  0
103217  1  0  0  0  0
103218  1  0  0  0  0
103219  1  0  0  0  0
104220  1  0  0  0  0
105221  1  0  0  0  0
109222  1  0  0  0  0
113223  1  0  0  0  0
114224  1  0  0  0  0
117225  1  0  0  0  0
117226  1  0  0  0  0
118227  1  0  0  0  0
118228  1  0  0  0  0
118229  1  0  0  0  0
119230  1  0  0  0  0
120231  1  0  0  0  0
125232  1  0  0  0  0
126233  1  0  0  0  0
129234  1  0  0  0  0
129235  1  0  0  0  0
130236  1  0  0  0  0
130237  1  0  0  0  0
130238  1  0  0  0  0
131239  1  0  0  0  0
132240  1  0  0  0  0
135241  1  0  0  0  0
138242  1  0  0  0  0
143243  1  0  0  0  0
146244  1  0  0  0  0
147245  1  0  0  0  0
M  END
