168

C          1.24330       -5.96660        2.06320
C          1.11720       -5.48200        3.34720
C          0.35170       -4.27050        3.71710
O         -0.26350       -3.51990        2.98390
C          0.34500       -4.23010        5.19010
C         -0.21780       -3.24060        5.99110
C         -0.06870       -3.46550        7.33860
C          0.57490       -4.59910        7.85090
C          1.13010       -5.58510        7.06840
C          1.00100       -5.36990        5.69400
C          1.49500       -6.15440        4.56250
C          2.28840       -7.27410        4.65450
C          2.93630       -7.89060        3.57120
N          3.56030       -8.41970        2.76260
C          2.62120       -7.92210        5.85990
N          2.92350       -8.51000        6.79960
C          0.33980       -4.18330        9.28200
C         -0.79650       -4.88920       10.06260
C         -1.80310       -5.34690        9.03650
C         -2.40620       -4.26960        8.55210
C         -1.81800       -3.06370        9.24180
C         -1.52630       -3.66000       10.62800
C         -0.37130       -2.91620        8.71020
C          1.12860       -5.16540        0.91420
C          0.65610       -5.49310       -0.37360
N          0.21900       -6.72690       -0.77370
C          0.85850       -7.90130       -0.34620
C          2.24830       -7.96240       -0.27840
C          2.88150       -9.11760        0.13100
C          2.13040      -10.23110        0.49170
S          2.83450      -11.74430        1.04360
C          4.53470      -11.27960        1.47590
C          0.73910      -10.17770        0.40580
C          0.10740       -9.02790       -0.01040
C         -0.86260       -6.82670       -1.66510
C         -0.85020       -7.77700       -2.68590
C         -1.91540       -7.87380       -3.55110
C         -3.01400       -7.02380       -3.42250
S         -4.31320       -7.24490       -4.59210
C         -5.49090       -5.92090       -4.19720
C         -3.03160       -6.08190       -2.40220
C         -1.96550       -5.98880       -1.52940
C          0.59040       -4.33790       -1.18920
S          0.08820       -4.00870       -2.82060
C          0.44920       -2.31320       -2.60830
C          0.99230       -2.02880       -1.37080
N          1.42050       -0.78190       -0.93280
C          2.12480        0.08490       -1.75970
C          2.04100        1.46830       -1.57620
C          2.77910        2.32600       -2.36090
C          3.62060        1.82830       -3.35280
S          4.62130        3.00700       -4.22070
C          5.86020        1.97040       -5.05030
C          3.67030        0.46050       -3.57920
C          2.93620       -0.39910       -2.78730
C          1.12230       -0.45590        0.40330
C          2.08470        0.10710        1.23550
C          1.80620        0.33080        2.56990
C          0.56640       -0.01540        3.08970
S          0.14980        0.21150        4.79500
C          1.75130       -0.02330        5.62190
C         -0.41080       -0.54400        2.25350
C         -0.13550       -0.76190        0.92200
C          1.06550       -3.18980       -0.57110
S          1.60210       -3.47480        1.02980
C          0.15320       -1.27320       -3.57390
C         -0.50920       -0.11490       -3.11540
N         -1.05910        0.15810       -1.92400
N         -1.44470        1.39830       -2.02970
C         -2.12160        2.06880       -0.95750
C         -3.62450        1.82360       -1.04840
N         -1.21890        1.99100       -3.16420
C         -0.62780        1.05340       -3.91620
C         -0.09320        1.11210       -5.21960
C          0.46810       -0.06190       -5.68120
C          0.57890       -1.22150       -4.88500
F          1.21330       -2.28290       -5.41520
F          0.95030       -0.13350       -6.93090
C         -0.03030        2.40660       -5.87280
C         -1.09930        3.31530       -5.81790
C         -0.92340        4.72640       -6.09530
N         -2.07260        5.39480       -6.00120
S         -3.22980        4.37160       -5.57760
N         -2.36750        3.02590       -5.51510
C          0.33410        5.27220       -6.42180
C          1.35110        4.33160       -6.64300
N          2.61920        4.61070       -6.97450
S          3.47030        3.26200       -6.92680
N          2.32420        2.24180       -6.49830
C          1.17370        2.91890       -6.36100
C          0.59370        6.67690       -6.47110
C          0.08930        7.57450       -5.58340
C         -0.48120        7.21720       -4.25650
O         -0.66070        6.11350       -3.78620
C         -0.65400        8.49500       -3.54200
C         -1.13660        8.65950       -2.24550
C         -1.14700        9.96250       -1.81240
C         -0.69910       11.02710       -2.60660
C         -0.22470       10.87980       -3.88820
C         -0.21230        9.56020       -4.35160
C          0.21880        9.01930       -5.63710
C          0.60080        9.75040       -6.73010
C          0.92360        9.20490       -7.99160
N          1.18060        8.84910       -9.05250
C          0.69600       11.15730       -6.75620
N          0.79960       12.29760       -6.84280
C         -0.96040       12.04620       -1.52570
C          0.25510       12.57270       -0.72240
C          1.30050       11.48580       -0.76050
C          0.86800       10.48100       -0.01060
C         -0.47880       10.87010        0.54750
C         -0.27770       12.38530        0.70730
C         -1.46750       10.86130       -0.64460
H          1.41930       -7.02700        1.92430
H         -0.70510       -2.38200        5.55630
H          1.62080       -6.45260        7.47750
H          1.23090       -4.03820        9.89000
H         -0.45770       -5.64060       10.77080
H         -1.92750       -6.37070        8.73570
H         -3.13530       -4.21290        7.76510
H         -2.40840       -2.15190        9.20210
H         -0.89320       -3.02680       11.24840
H         -2.43180       -3.92160       11.17340
H          0.05760       -1.94300        8.94230
H          2.83300       -7.09710       -0.55380
H          3.95700       -9.13990        0.16240
H          4.93090      -12.11010        2.05170
H          4.50740      -10.37870        2.08150
H          5.12640      -11.14080        0.57540
H          0.16300      -11.04770        0.68080
H         -0.97020       -8.98660       -0.06600
H          0.00100       -8.43130       -2.79660
H         -1.90850       -8.60440       -4.34500
H         -5.90530       -6.07230       -3.20460
H         -6.27880       -6.00150       -4.93970
H         -5.00250       -4.95470       -4.28110
H         -3.87160       -5.42030       -2.26710
H         -1.99330       -5.26660       -0.72660
H          1.39950        1.86390       -0.80280
H          2.71590        3.39240       -2.20720
H          6.35570        1.34390       -4.31500
H          6.57360        2.65950       -5.49180
H          5.39310        1.37340       -5.82850
H          4.28590        0.04560       -4.36000
H          3.01360       -1.46290       -2.95320
H          3.05800        0.35530        0.83830
H          2.56810        0.76200        3.20040
H          1.52610       -0.20440        6.66810
H          2.36440        0.86860        5.52860
H          2.24780       -0.88830        5.19300
H         -1.37510       -0.80120        2.66080
H         -0.88540       -1.18090        0.27000
H         -1.72410        1.67700       -0.01830
H         -1.90060        3.13320       -1.05340
H         -4.13230        2.34130       -0.23990
H         -4.00560        2.19150       -1.99790
H         -3.83560        0.76000       -0.97110
H          1.29650        6.99680       -7.23010
H         -1.46330        7.81040       -1.66550
H          0.12000       11.70770       -4.48500
H         -1.66560       12.83660       -1.77420
H          0.58690       13.56740       -1.00700
H          2.19320       11.53420       -1.35610
H          1.32680        9.52200        0.14470
H         -0.81620       10.31500        1.41900
H          0.46080       12.63410        1.46800
H         -1.20220       12.92770        0.90070
H         -2.50710       10.87510       -0.32280
