160

C         -2.49960       -3.74410        4.24640
C         -3.44960       -2.91910        4.80650
C         -3.38100       -1.44710        4.76790
O         -2.57660       -0.75730        4.16870
C         -4.41980       -0.98060        5.71160
C         -4.69240        0.33170        6.08330
C         -5.70540        0.45550        7.00550
C         -6.40880       -0.64400        7.51130
C         -6.14810       -1.94610        7.15610
C         -5.10980       -2.09170        6.23550
C         -4.53700       -3.30320        5.65860
C         -5.04210       -4.57540        5.78330
C         -6.17560       -4.91850        6.54020
N         -7.10790       -5.27900        7.10830
C         -4.54240       -5.68550        5.07500
N         -4.22100       -6.62230        4.49160
C         -7.25650        0.21150        8.41870
C         -6.89940        0.21830        9.92570
C         -5.43160       -0.11830       10.01670
C         -4.74980        0.91720        9.54550
C         -5.74430        1.97340        9.13040
C         -6.84450        1.73360       10.17610
C         -6.46210        1.43680        7.86550
C         -1.65650       -3.39700        3.18870
C         -1.83390       -2.50360        2.11050
N         -2.98070       -1.90210        1.71260
C         -4.27770       -2.18210        2.19230
C         -5.11980       -1.11610        2.51280
C         -6.38190       -1.35440        3.00520
C         -6.84600       -2.66080        3.16320
S         -8.45310       -2.84070        3.85390
C         -8.74640       -4.63200        3.85760
C         -6.03300       -3.72270        2.78550
C         -4.75740       -3.48170        2.30990
C         -2.97450       -1.21080        0.46280
C         -2.77950        0.16340        0.37530
C         -2.75150        0.76910       -0.86570
C         -2.90600        0.01080       -2.02720
S         -2.83250        0.85540       -3.57470
C         -2.47220       -0.48720       -4.74870
C         -3.13510       -1.35600       -1.93160
C         -3.17570       -1.95820       -0.69140
C         -0.62540       -2.38010        1.38100
S         -0.13270       -1.40440        0.03970
C          1.47710       -2.11040        0.06280
C          1.60420       -3.10030        1.04470
N          2.68240       -3.92490        1.28330
C          2.88950       -4.36580        2.60590
C          2.89020       -3.44750        3.65620
C          3.06890       -3.87880        4.95060
C          3.25090       -5.23360        5.22610
S          3.45740       -5.66360        6.92160
C          3.47220       -7.47860        6.91780
C          3.26680       -6.14810        4.17990
C          3.08690       -5.71470        2.88180
C          3.50470       -4.42160        0.26770
C          4.84520       -4.70690        0.54380
C          5.69010       -5.11480       -0.46210
C          5.22640       -5.24450       -1.77150
S          6.40780       -5.72960       -2.98340
C          5.60370       -5.33110       -4.55680
C          3.88510       -5.00530       -2.04160
C          3.03360       -4.60380       -1.03100
C          0.40890       -3.20010        1.80440
S         -0.07130       -4.18790        3.13700
C          2.37390       -1.60490       -0.91210
C          3.73820       -1.77740       -1.07300
C          4.23870       -1.18810       -2.23690
C          5.56340       -1.58580       -2.76710
O          5.69570       -2.16340       -3.81890
O          6.55520       -1.41870       -1.89620
C          3.28020       -0.46870       -2.94670
S          1.72020       -0.62100       -2.20090
C          3.45530        0.38910       -4.05750
C          2.34820        0.92590       -4.74810
C          2.47440        1.85130       -5.85090
N          1.28240        2.15860       -6.36390
S          0.13850        1.43820       -5.51450
N          1.07250        0.63820       -4.48090
C          3.72570        2.31320       -6.30760
C          4.83650        1.75060       -5.64280
N          6.11280        2.05230       -5.88750
S          7.04610        1.29620       -4.82900
N          5.89880        0.54940       -3.99080
C          4.71030        0.83970       -4.52220
C          3.88720        3.24300       -7.37070
C          3.01950        4.25550       -7.65800
C          2.03560        4.81940       -6.69710
O          1.90870        4.55160       -5.52080
C          1.34690        5.90390       -7.41980
C          0.28580        6.67520       -6.95240
C         -0.14780        7.62920       -7.84060
C          0.45000        7.82140       -9.09360
C          1.49740        7.06780       -9.56750
C          1.93880        6.07520       -8.68720
C          2.98170        5.06560       -8.85720
C          3.72140        4.86590       -9.99480
C          4.64590        3.81780      -10.18850
N          5.39450        2.98350      -10.43910
C          3.64200        5.66710      -11.15140
N          3.63780        6.27390      -12.12730
C         -0.47550        8.95720       -9.45020
C          0.06910       10.40280       -9.33450
C          1.15420       10.37360       -8.28720
C          0.57510       10.18510       -7.10890
C         -0.91230       10.08250       -7.33850
C         -1.07030       11.04480       -8.52650
C         -1.15160        8.73360       -8.06030
H         -2.32920       -4.72010        4.68870
H         -4.13140        1.15470        5.66850
H         -6.68310       -2.78660        7.56590
H         -8.32960        0.17910        8.24260
H         -7.56610       -0.36970       10.55070
H         -5.05390       -1.06790       10.34840
H         -3.68840        1.00440        9.40400
H         -5.35660        2.98450        9.03470
H         -6.52520        1.98150       11.18750
H         -7.77880        2.24520        9.94900
H         -7.01720        2.21400        7.34370
H         -4.76400       -0.10420        2.39960
H         -7.02440       -0.53470        3.28790
H         -9.75320       -4.75800        4.24550
H         -8.68970       -5.02180        2.84470
H         -8.03940       -5.12930        4.51860
H         -6.37280       -4.74310        2.86500
H         -4.13220       -4.31980        2.03860
H         -2.62440        0.73920        1.27530
H         -2.59260        1.83410       -0.94770
H         -1.57220       -1.00480       -4.42580
H         -2.30880       -0.00480       -5.70770
H         -3.32130       -1.16130       -4.82510
H         -3.28210       -1.96050       -2.81170
H         -3.34740       -3.02220       -0.61420
H          2.74540       -2.39790        3.44690
H          3.06860       -3.17350        5.76690
H          4.34260       -7.84700        6.38320
H          2.55070       -7.85490        6.48340
H          3.53300       -7.77240        7.96130
H          3.40860       -7.20060        4.36200
H          3.08950       -6.42750        2.07060
H          5.22410       -4.57800        1.54650
H          6.72860       -5.31870       -0.25120
H          4.76220       -5.99580       -4.73100
H          6.35960       -5.49330       -5.31890
H          5.30410       -4.28670       -4.54940
H          3.49160       -5.12420       -3.03800
H          1.99230       -4.42710       -1.25280
H          4.37260       -2.29890       -0.38260
H          7.38370       -1.76280       -2.26540
H          4.78880        3.11900       -7.95630
H         -0.13780        6.49870       -5.97600
H          1.94290        7.22880      -10.53520
H         -1.08150        8.81520      -10.34310
H          0.33080       10.86350      -10.28350
H          2.20330       10.43380       -8.51040
H          1.04390       10.05590       -6.15090
H         -1.54520       10.24930       -6.47070
H         -2.04130       10.97490       -9.01510
H         -0.86630       12.08060       -8.25970
H         -2.19830        8.43480       -8.04730
