271

C          5.09860        7.31000       -2.01860
C          6.12060        7.45370       -2.93170
C          7.10590        6.43790       -3.29660
O          7.20080        5.29670       -2.86730
C          8.02110        7.07170       -4.26100
C          9.08940        6.47300       -4.92490
C          9.74810        7.31140       -5.79240
C          9.37420        8.64760       -5.98130
C          8.32350        9.25070       -5.32990
C          7.63730        8.41500       -4.44490
C          6.45910        8.67870       -3.61630
C          5.80920        9.88710       -3.52900
C          4.61350       10.13320       -2.82660
N          3.62650       10.42050       -2.31070
C          6.24950       11.07340       -4.14910
N          6.56110       12.08140       -4.60370
C         10.45230        8.88850       -7.00870
C         10.00180        8.91300       -8.48460
C         11.28030        8.68090       -9.25720
C         11.63500        7.41480       -9.07900
C         10.60210        6.76980       -8.18310
C          9.34960        7.53240       -8.63390
C         10.86930        7.39740       -6.79850
C          4.64070        6.17610       -1.35370
C          3.59170        6.19520       -0.39780
N          3.12130        7.29780        0.24810
C          3.88010        8.46360        0.48110
C          5.24530        8.41290        0.74840
C          5.95930        9.57400        0.96620
C          5.31380       10.80490        0.94070
S          6.12570       12.34920        1.19130
C          7.89130       11.93340        1.09850
C          3.93890       10.85230        0.72300
C          3.22850        9.69560        0.49280
C          1.92690        7.18050        1.00560
C          1.98310        7.32100        2.38710
C          0.85630        7.12410        3.15820
C         -0.34650        6.79370        2.54700
S         -1.81530        6.42530        3.45150
C         -1.41480        6.89410        5.15870
C         -0.42030        6.70970        1.15830
C          0.70980        6.89980        0.39010
C          3.11710        4.88840       -0.16390
S          1.77860        4.23750        0.71700
C          2.23510        2.61300        0.24030
C          3.37450        2.57520       -0.54550
N          3.98450        1.43970       -1.04140
C          5.35430        1.46430       -1.35630
C          5.80610        0.82940       -2.51200
C          7.12650        0.93410       -2.88960
C          8.01740        1.67610       -2.12150
S          9.67060        1.87780       -2.71170
C         10.02380        3.57950       -2.17110
C          7.59180        2.23970       -0.92790
C          6.26960        2.13180       -0.54760
C          3.28130        0.23610       -1.20270
C          3.82620       -0.95210       -0.72520
C          3.10250       -2.12570       -0.77400
C          1.82750       -2.13180       -1.32150
S          0.78700       -3.56090       -1.31610
C          1.96560       -4.93200       -1.16350
C          1.31430       -0.96680       -1.88270
C          2.03930        0.20530       -1.83390
C          3.85200        3.89240       -0.79280
S          5.15090        4.52790       -1.73870
C          1.31280        1.54850        0.55270
C          1.44100        0.55040        1.48990
N          2.43460        0.61240        2.48360
C          3.52660       -0.28230        2.42950
C          4.82750        0.18730        2.25410
C          5.88840       -0.69140        2.22760
C          5.67120       -2.06240        2.36200
S          7.09570       -3.10260        2.34690
C          6.44240       -4.72940        2.82050
C          4.37380       -2.53640        2.49170
C          3.31450       -1.65040        2.53240
C          2.38650        1.68570        3.36870
C          1.28720        2.55430        3.38380
C          1.22990        3.61710        4.25390
C          2.25820        3.85110        5.15890
S          2.10040        5.28230        6.19290
C          3.39730        5.06550        7.44080
C          3.32390        2.96650        5.19960
C          3.37980        1.89500        4.32690
C          0.34520       -0.34430        1.43160
S         -0.07240       -1.84240        2.18700
C         -1.62410       -1.87010        1.36740
C         -1.77030       -0.79520        0.50240
N         -2.86090       -0.51900       -0.31510
C         -3.32110        0.81030       -0.29640
C         -3.73140        1.44790       -1.46570
C         -4.14820        2.75970       -1.42570
C         -4.14970        3.46890       -0.22540
S         -4.67170        5.15170       -0.29320
C         -4.97590        5.57620        1.44530
C         -3.73190        2.84090        0.93980
C         -3.33570        1.51950        0.90190
C         -3.54390       -1.51890       -1.00610
C         -4.91320       -1.40230       -1.26180
C         -5.60520       -2.43780       -1.84760
C         -4.95260       -3.61870       -2.19380
S         -5.93840       -4.92850       -2.86500
C         -4.82610       -6.35770       -2.90840
C         -3.58290       -3.71370       -2.00530
C         -2.88600       -2.67690       -1.41630
C         -0.64100        0.05310        0.54470
S         -0.24290        1.51920       -0.26570
C         -2.66190       -2.82800        1.59340
C         -2.68810       -4.21280        1.54220
N         -1.58780       -5.05340        1.53860
C         -1.71710       -6.26780        0.81000
C         -1.94770       -7.46610        1.47420
C         -2.18060       -8.62440        0.75990
C         -2.18350       -8.59220       -0.62820
S         -2.55890       -9.99580       -1.62380
C         -3.43420      -11.08550       -0.46440
C         -1.86840       -7.40900       -1.29150
C         -1.63710       -6.25260       -0.57690
C         -0.53920       -4.94100        2.44310
C          0.66980       -5.58300        2.16030
C          1.74780       -5.44580        3.00360
C          1.64560       -4.67830        4.16090
S          3.10110       -4.51260        5.15700
C          2.81520       -2.94770        6.03060
C          0.42700       -4.10560        4.49080
C         -0.65480       -4.23340        3.63920
C         -4.02420       -4.68240        1.42330
S         -4.69300       -6.20930        0.98770
C         -6.32450       -5.52410        1.00290
C         -6.31380       -4.12790        1.27070
N         -7.38270       -3.28240        1.23250
C         -7.22990       -1.95900        1.70960
C         -6.79690       -1.70560        3.00680
C         -6.59850       -0.40630        3.43740
C         -6.82480        0.65370        2.57030
S         -6.54480        2.34090        2.98900
C         -5.47550        2.24360        4.45460
C         -7.32010        0.40370        1.29130
C         -7.53200       -0.88820        0.86900
C         -8.62030       -3.53240        0.59160
C         -9.79350       -3.15750        1.24510
C        -11.01650       -3.36330        0.64760
C        -11.09880       -3.95490       -0.61220
S        -12.71670       -4.19600       -1.25900
C        -12.45470       -5.15120       -2.77960
C         -9.92790       -4.30640       -1.27500
C         -8.70010       -4.08310       -0.68350
C         -4.99450       -3.69140        1.50010
S         -4.27580       -2.14020        1.76110
C         -7.46650       -6.28090        0.77450
C         -7.61090       -7.49990        0.13980
C         -6.54460       -8.31580       -0.42880
O         -5.34980       -8.29050       -0.17190
C         -7.19760       -9.23620       -1.37900
C         -6.62380      -10.12040       -2.24420
C         -7.45780      -10.90650       -3.07150
C         -6.91960      -11.83360       -3.98370
C         -7.74840      -12.58980       -4.76480
F         -7.23420      -13.47510       -5.63150
C         -9.14610      -12.44960       -4.66840
F         -9.93560      -13.20490       -5.44570
C         -9.69740      -11.55400       -3.79480
C         -8.87130      -10.76010       -2.97520
C         -9.43390       -9.82520       -2.07350
C         -8.60760       -9.06510       -1.29070
C         -8.88040       -8.02430       -0.30010
C        -10.13070       -7.62150        0.10840
C        -11.32590       -8.06520       -0.48580
N        -12.32590       -8.35780       -0.97080
C        -10.38550       -6.74000        1.17650
N        -10.66860       -6.06510        2.06310
H          4.53770        8.20760       -1.79440
H          9.33900        5.43700       -4.75670
H          8.04810       10.27930       -5.49140
H         11.17150        9.66980       -6.77020
H          9.41030        9.78020       -8.76540
H         11.80690        9.45030       -9.79060
H         12.51740        6.91520       -9.43380
H         10.55760        5.68400       -8.19030
H          8.48240        7.37930       -7.99420
H          9.08340        7.31260       -9.66650
H         11.86740        7.18410       -6.42000
H          5.75460        7.46090        0.77790
H          7.01650        9.50370        1.16610
H          8.18730       11.34130        1.95980
H          8.41520       12.88400        1.11060
H          8.09640       11.41110        0.16870
H          3.44050       11.80830        0.71310
H          2.16830        9.73970        0.29990
H          2.92350        7.55790        2.86210
H          0.94140        7.20090        4.22950
H         -2.33090        6.75070        5.72350
H         -0.63090        6.25480        5.55620
H         -1.12220        7.93930        5.18830
H         -1.36360        6.47740        0.68860
H          0.65840        6.81990       -0.68510
H          5.10530        0.28440       -3.12710
H          7.47320        0.47130       -3.80050
H          9.12820        4.17830       -2.31340
H         10.34450        3.58990       -1.13310
H         10.83030        3.93860       -2.80310
H          8.28240        2.77390       -0.29510
H          5.94120        2.58270        0.37720
H          4.81370       -0.94890       -0.29060
H          3.53640       -3.02120       -0.36010
H          2.75010       -4.81310       -1.90490
H          2.37290       -4.96270       -0.15710
H          1.39900       -5.83720       -1.36140
H          0.34250       -0.98710       -2.35290
H          1.64940        1.10500       -2.28530
H          4.99830        1.24670        2.13780
H          6.89640       -0.32830        2.09560
H          5.83740       -5.13890        2.01640
H          5.87120       -4.64800        3.74090
H          7.31340       -5.35780        2.97790
H          4.17020       -3.59040        2.58060
H          2.31310       -2.03440        2.64980
H          0.45430        2.40270        2.71670
H          0.37650        4.27590        4.22990
H          3.27740        4.10210        7.92790
H          3.25340        5.86590        8.15990
H          4.37730        5.15620        6.98080
H          4.12760        3.09210        5.90830
H          4.21030        1.21060        4.40510
H         -3.71790        0.90830       -2.40070
H         -4.46770        3.25750       -2.32830
H         -5.46670        6.54410        1.42660
H         -5.63420        4.83320        1.88600
H         -4.03750        5.65350        1.98730
H         -3.71000        3.37130        1.87760
H         -3.02720        1.02610        1.81290
H         -5.43590       -0.50720       -0.96220
H         -6.66470       -2.34590       -2.03160
H         -5.43830       -7.19040       -3.24300
H         -4.43930       -6.56220       -1.91360
H         -4.02500       -6.18490       -3.62110
H         -3.04840       -4.59530       -2.31530
H         -1.81990       -2.76770       -1.27000
H         -1.96710       -7.48220        2.55400
H         -2.37750       -9.53790        1.29560
H         -2.73650      -11.52680        0.24160
H         -4.20070      -10.50360        0.03940
H         -3.88460      -11.86990       -1.06520
H         -1.82140       -7.40900       -2.37040
H         -1.39360       -5.32770       -1.07600
H          0.75210       -6.18190        1.26650
H          2.68500       -5.93210        2.77510
H          2.10720       -3.09160        6.84190
H          2.46200       -2.20240        5.32410
H          3.77840       -2.65110        6.43420
H          0.30670       -3.55150        5.40810
H         -1.59900       -3.78390        3.90830
H         -6.61310       -2.52970        3.68020
H         -6.26480       -0.23700        4.44830
H         -4.64580        1.57420        4.24980
H         -5.10870        3.25170        4.62260
H         -6.04610        1.91470        5.31810
H         -7.51930        1.23560        0.63320
H         -7.91020       -1.08180       -0.12290
H         -9.73960       -2.71930        2.22970
H        -11.92540       -3.08820        1.15800
H        -13.44830       -5.34470       -3.17150
H        -11.96730       -6.09260       -2.54440
H        -11.88240       -4.57020       -3.49670
H         -9.95200       -4.74550       -2.25940
H         -7.80180       -4.35950       -1.21270
H         -8.38960       -5.79200        1.05270
H         -5.55020      -10.21420       -2.30850
H         -5.85040      -11.95010       -4.07010
H        -10.77040      -11.45850       -3.73550
H        -10.50720       -9.73390       -2.03120
