208

C          5.68380       -3.53270       -0.62640
C          5.78830       -4.82710       -0.17280
C          4.69490       -5.79200       -0.05770
O          3.51050       -5.60050       -0.27850
C          5.31600       -7.06850        0.33910
C          4.67280       -8.28190        0.56460
C          5.51930       -9.30660        0.91600
C          6.90480       -9.13780        1.03130
C          7.55170       -7.94270        0.81790
C          6.70930       -6.88690        0.46230
C          7.01960       -5.48370        0.18810
C          8.25420       -4.89180        0.32830
C          8.50290       -3.51020        0.22430
N          8.76640       -2.39010        0.20230
C          9.43770       -5.58320        0.65310
N         10.44070       -6.08340        0.90450
C          7.13040      -10.58200        1.40260
C          7.67920      -11.53320        0.31040
C          7.24900      -10.95800       -1.01600
C          5.93650      -11.11810       -1.12050
C          5.45540      -11.80430        0.13390
C          6.67390      -12.68840        0.44340
C          5.58540      -10.76920        1.27850
C          4.55820       -2.75150       -0.86740
C          4.65120       -1.37360       -1.19810
N          5.78020       -0.74540       -1.63590
C          6.74520       -1.35040       -2.45800
C          8.07490       -0.93540       -2.38560
C          9.02540       -1.51680       -3.19410
C          8.67430       -2.51990       -4.09510
S          9.98090       -3.19540       -5.06680
C          9.18600       -4.52730       -6.01070
C          7.34530       -2.91570       -4.18840
C          6.39070       -2.33110       -3.38170
C          5.91040        0.65680       -1.40910
C          5.52230        1.57040       -2.38380
C          5.62140        2.92190       -2.13330
C          6.12220        3.38010       -0.91530
S          6.16730        5.12530       -0.69290
C          6.88570        5.34730        0.95770
C          6.55650        2.46540        0.03560
C          6.44890        1.10980       -0.21520
C          3.42050       -0.73630       -0.97410
S          2.89480        0.91310       -1.01240
C          1.28300        0.42240       -0.53320
C          1.13810       -0.95280       -0.46680
N         -0.08280       -1.59780       -0.21260
C         -0.32520       -2.03610        1.11890
C          0.27300       -3.19200        1.60660
C          0.03770       -3.59400        2.90480
C         -0.80590       -2.85640        3.73380
S         -1.02390       -3.47170        5.37210
C         -2.21960       -2.32740        6.11890
C         -1.41560       -1.70870        3.24240
C         -1.17130       -1.30310        1.94380
C         -1.12140       -1.51930       -1.12500
C         -2.38950       -2.02110       -0.81320
C         -3.41460       -1.95710       -1.72790
C         -3.21300       -1.39240       -2.98250
S         -4.60820       -1.30630       -4.07190
C         -3.85230       -1.15770       -5.71460
C         -1.95370       -0.92330       -3.31760
C         -0.91860       -0.99930       -2.40610
C          2.37890       -1.60260       -0.65070
S          2.89960       -3.24430       -0.53420
C          0.35380        1.45210       -0.17930
C          0.64430        2.50870        0.67680
N          1.82990        2.65890        1.38270
C          2.42580        3.92580        1.42580
C          3.09670        4.35910        2.56930
C          3.69500        5.59860        2.59060
C          3.62990        6.43750        1.47860
S          4.45950        7.98970        1.61130
C          4.42850        8.63900       -0.08320
C          2.94210        6.01940        0.34870
C          2.35180        4.77150        0.32330
C          2.45290        1.53910        1.94730
C          3.84010        1.42230        1.96780
C          4.44380        0.25750        2.39870
C          3.67150       -0.82110        2.80610
S          4.32140       -2.40550        3.23270
C          6.07940       -2.28560        2.79600
C          2.28800       -0.67510        2.87530
C          1.68700        0.48980        2.45640
C         -0.46670        3.37080        0.81300
S         -0.79060        4.80480        1.73050
C         -2.46350        4.79060        1.18030
C         -2.69830        3.78470        0.23310
N         -3.89030        3.63130       -0.45020
C         -4.38490        4.71220       -1.19270
C         -3.50090        5.63830       -1.74870
C         -3.97860        6.71010       -2.46720
C         -5.34970        6.88480       -2.65230
S         -5.83660        8.29010       -3.59760
C         -7.64980        8.21360       -3.60210
C         -6.23260        5.96570       -2.09890
C         -5.75520        4.89360       -1.37220
C         -4.51830        2.37970       -0.45970
C         -4.47850        1.58360        0.68520
C         -5.17250        0.39730        0.72960
C         -5.92610       -0.01890       -0.36620
S         -6.87160       -1.49380       -0.15410
C         -7.63740       -1.77000       -1.77620
C         -5.92460        0.74200       -1.52670
C         -5.21690        1.92610       -1.57330
C         -1.57210        2.96020        0.07950
S         -1.29440        1.48830       -0.77920
C         -3.50470        5.45800        1.85470
C         -3.44920        6.33230        2.93970
F         -2.31350        6.91510        3.34890
C         -4.67370        6.50770        3.56330
F         -4.84430        7.26650        4.64990
C         -5.72230        5.75090        3.01870
S         -5.13710        4.90860        1.60710
C         -6.98400        5.61630        3.60700
C         -7.94820        4.67170        3.32420
C         -7.83430        3.63730        2.29910
O         -7.08360        3.61420        1.33340
C         -8.83910        2.61670        2.62270
C         -9.01580        1.38910        2.05460
C        -10.04400        0.55530        2.54670
C        -10.25790       -0.73010        2.01320
C        -11.26950       -1.51180        2.49630
F        -11.47860       -2.73470        1.98770
C        -12.10370       -1.04370        3.53080
F        -13.09060       -1.83060        3.98200
C        -11.91100        0.19520        4.07620
C        -10.87700        1.02680        3.60260
C        -10.66030        2.30470        4.17350
C         -9.64440        3.08900        3.69630
C         -9.14610        4.40650        4.09650
C         -9.74230        5.23550        5.01060
C        -10.91640        4.90600        5.71810
N        -11.86700        4.68950        6.32460
C         -9.30070        6.53670        5.33020
N         -9.01620        7.60980        5.62250
H          6.61950       -3.01230       -0.78460
H          3.60200       -8.36890        0.46640
H          8.61860       -7.82770        0.91380
H          7.58950      -10.75820        2.37340
H          8.73440      -11.77310        0.40980
H          7.91420      -10.45740       -1.69510
H          5.28520      -10.77760       -1.90420
H          4.48570      -12.29150        0.07320
H          6.64860      -13.12880        1.43920
H          6.82800      -13.46890       -0.30020
H          5.03550      -11.06470        2.17000
H          8.36260       -0.16890       -1.68460
H         10.05640       -1.20710       -3.12830
H          8.73820       -5.24650       -5.33120
H          8.44930       -4.11510       -6.69400
H          9.98430       -5.00040       -6.57380
H          7.03580       -3.67130       -4.89210
H          5.36010       -2.64230       -3.46760
H          5.13480        1.21570       -3.32670
H          5.30970        3.64050       -2.87510
H          6.24640        4.88240        1.70300
H          7.89370        4.94380        0.98080
H          6.91310        6.41960        1.12490
H          6.98240        2.79190        0.97060
H          6.79940        0.39320        0.51160
H          0.91500       -3.77880        0.96990
H          0.50430       -4.48700        3.29080
H         -3.14840       -2.34090        5.55600
H         -2.39250       -2.70320        7.12260
H         -1.79910       -1.32720        6.16900
H         -2.07790       -1.12080        3.85750
H         -1.65580       -0.41650        1.55780
H         -2.56970       -2.47700        0.14710
H         -4.38340       -2.35600       -1.47270
H         -4.65100       -1.33290       -6.42870
H         -3.08090       -1.91390       -5.82470
H         -3.44780       -0.15900       -5.85360
H         -1.75810       -0.49430       -4.28780
H          0.05990       -0.64850       -2.69790
H          3.14540        3.71600        3.43520
H          4.21650        5.93780        3.47300
H          3.41330        8.90320       -0.36450
H          4.85250        7.90420       -0.76180
H          5.04750        9.53080       -0.06620
H          2.86990        6.64690       -0.52400
H          1.84060        4.44090       -0.56900
H          4.44750        2.23690        1.60480
H          5.51900        0.19800        2.39870
H          6.48910       -3.27810        2.95880
H          6.18660       -2.01380        1.74970
H          6.58350       -1.57480        3.44440
H          1.69200       -1.49200        3.24840
H          0.61290        0.58370        2.50350
H         -2.43630        5.50860       -1.62300
H         -3.29570        7.42390       -2.90150
H         -7.98290        7.30240       -4.09030
H         -7.97600        9.07750       -4.17280
H         -8.02660        8.27980       -2.58570
H         -7.29820        6.07850       -2.21370
H         -6.44480        4.20140       -0.91680
H         -3.92840        1.92350        1.55040
H         -5.16370       -0.20950        1.62250
H         -6.86740       -1.86280       -2.53690
H         -8.18500       -2.70320       -1.68470
H         -8.32360       -0.96010       -2.00650
H         -6.46490        0.42380       -2.40250
H         -5.21910        2.51170       -2.47990
H         -7.15210        6.27310        4.45310
H         -8.37330        1.05490        1.25410
H         -9.61640       -1.10220        1.22930
H        -12.55630        0.53340        4.87190
H        -11.29840        2.62180        4.98250
