
  xtb     02152223533D
 energy: -289.491585990076 gnorm: 0.000575011059 xtb: 6.4.1 (unknown)
173190  0     0  0            999 V2000
   -1.9518   -3.5813   -3.9009 C   0  0  0  0  0  0  0  0  0  0  0  0
   -3.1366   -4.1951   -3.5838 C   0  0  0  0  0  0  0  0  0  0  0  0
   -3.6031   -5.3551   -4.3750 C   0  0  0  0  0  0  0  0  0  0  0  0
   -3.0733   -5.8287   -5.3610 O   0  0  0  0  0  0  0  0  0  0  0  0
   -4.7735   -5.8880   -3.6520 C   0  0  0  0  0  0  0  0  0  0  0  0
   -5.5450   -6.9963   -3.9951 C   0  0  0  0  0  0  0  0  0  0  0  0
   -6.5760   -7.2544   -3.1242 C   0  0  0  0  0  0  0  0  0  0  0  0
   -6.8279   -6.4652   -1.9947 C   0  0  0  0  0  0  0  0  0  0  0  0
   -6.0835   -5.3615   -1.6508 C   0  0  0  0  0  0  0  0  0  0  0  0
   -5.0237   -5.0892   -2.5184 C   0  0  0  0  0  0  0  0  0  0  0  0
   -4.0577   -3.9928   -2.5018 C   0  0  0  0  0  0  0  0  0  0  0  0
   -4.1501   -2.8480   -1.7394 C   0  0  0  0  0  0  0  0  0  0  0  0
   -4.9599   -2.7146   -0.5995 C   0  0  0  0  0  0  0  0  0  0  0  0
   -5.5460   -2.5773    0.3799 N   0  0  0  0  0  0  0  0  0  0  0  0
   -3.4743   -1.6633   -2.0714 C   0  0  0  0  0  0  0  0  0  0  0  0
   -2.9864   -0.6576   -2.3405 N   0  0  0  0  0  0  0  0  0  0  0  0
   -8.0182   -7.2946   -1.5812 C   0  0  0  0  0  0  0  0  0  0  0  0
   -7.8038   -8.2923   -0.4235 C   0  0  0  0  0  0  0  0  0  0  0  0
   -8.9569   -9.2597   -0.5654 C   0  0  0  0  0  0  0  0  0  0  0  0
   -8.7294  -10.0033   -1.6407 C   0  0  0  0  0  0  0  0  0  0  0  0
   -7.4179   -9.5527   -2.2418 C   0  0  0  0  0  0  0  0  0  0  0  0
   -6.6627   -9.1615   -0.9663 C   0  0  0  0  0  0  0  0  0  0  0  0
   -7.7429   -8.1703   -2.8457 C   0  0  0  0  0  0  0  0  0  0  0  0
   -1.0667   -2.8208   -3.1170 C   0  0  0  0  0  0  0  0  0  0  0  0
   -0.8148   -2.7727   -1.7326 C   0  0  0  0  0  0  0  0  0  0  0  0
   -1.3882   -3.5911   -0.7808 N   0  0  0  0  0  0  0  0  0  0  0  0
   -1.7162   -4.9203   -1.0804 C   0  0  0  0  0  0  0  0  0  0  0  0
   -2.8007   -5.5434   -0.4579 C   0  0  0  0  0  0  0  0  0  0  0  0
   -3.1774   -6.8169   -0.8229 C   0  0  0  0  0  0  0  0  0  0  0  0
   -2.5068   -7.4873   -1.8419 C   0  0  0  0  0  0  0  0  0  0  0  0
   -3.1443   -9.0424   -2.3697 S   0  0  0  0  0  0  0  0  0  0  0  0
   -2.5090   -9.1721   -4.0671 C   0  0  0  0  0  0  0  0  0  0  0  0
   -1.3754   -6.9070   -2.4037 C   0  0  0  0  0  0  0  0  0  0  0  0
   -0.9793   -5.6454   -2.0151 C   0  0  0  0  0  0  0  0  0  0  0  0
   -1.5395   -3.1360    0.5442 C   0  0  0  0  0  0  0  0  0  0  0  0
   -1.9767   -1.8382    0.8102 C   0  0  0  0  0  0  0  0  0  0  0  0
   -2.2343   -1.4466    2.1043 C   0  0  0  0  0  0  0  0  0  0  0  0
   -2.0496   -2.3317    3.1644 C   0  0  0  0  0  0  0  0  0  0  0  0
   -2.4392   -1.7323    4.7777 S   0  0  0  0  0  0  0  0  0  0  0  0
   -2.5296   -3.2435    5.7811 C   0  0  0  0  0  0  0  0  0  0  0  0
   -1.5564   -3.6036    2.9095 C   0  0  0  0  0  0  0  0  0  0  0  0
   -1.3049   -3.9991    1.6107 C   0  0  0  0  0  0  0  0  0  0  0  0
    0.2057   -1.8411   -1.4357 C   0  0  0  0  0  0  0  0  0  0  0  0
    0.9448   -1.2720    0.0326 S   0  0  0  0  0  0  0  0  0  0  0  0
    2.0169   -0.2469   -0.8962 C   0  0  0  0  0  0  0  0  0  0  0  0
    1.7201   -0.2381   -2.2578 C   0  0  0  0  0  0  0  0  0  0  0  0
    2.2088    0.6647   -3.1817 N   0  0  0  0  0  0  0  0  0  0  0  0
    2.4202    2.0027   -2.8139 C   0  0  0  0  0  0  0  0  0  0  0  0
    1.5689    2.6373   -1.9076 C   0  0  0  0  0  0  0  0  0  0  0  0
    1.8362    3.9187   -1.4825 C   0  0  0  0  0  0  0  0  0  0  0  0
    2.9576    4.5988   -1.9515 C   0  0  0  0  0  0  0  0  0  0  0  0
    3.2505    6.2152   -1.3020 S   0  0  0  0  0  0  0  0  0  0  0  0
    5.0118    6.4881   -1.6580 C   0  0  0  0  0  0  0  0  0  0  0  0
    3.7729    3.9977   -2.9006 C   0  0  0  0  0  0  0  0  0  0  0  0
    3.5056    2.7113   -3.3254 C   0  0  0  0  0  0  0  0  0  0  0  0
    2.4260    0.2451   -4.4993 C   0  0  0  0  0  0  0  0  0  0  0  0
    2.9263   -1.0285   -4.7540 C   0  0  0  0  0  0  0  0  0  0  0  0
    3.1261   -1.4626   -6.0500 C   0  0  0  0  0  0  0  0  0  0  0  0
    2.8346   -0.6226   -7.1153 C   0  0  0  0  0  0  0  0  0  0  0  0
    3.0525   -1.0570   -8.8118 S   0  0  0  0  0  0  0  0  0  0  0  0
    3.5225   -2.8098   -8.7580 C   0  0  0  0  0  0  0  0  0  0  0  0
    2.3465    0.6591   -6.8633 C   0  0  0  0  0  0  0  0  0  0  0  0
    2.1399    1.0891   -5.5730 C   0  0  0  0  0  0  0  0  0  0  0  0
    0.7253   -1.1987   -2.5524 C   0  0  0  0  0  0  0  0  0  0  0  0
    0.0185   -1.7586   -4.0167 S   0  0  0  0  0  0  0  0  0  0  0  0
    2.9908    0.5573   -0.2261 C   0  0  0  0  0  0  0  0  0  0  0  0
    4.1523    1.0284   -0.8251 C   0  0  0  0  0  0  0  0  0  0  0  0
    4.5972    0.4691   -1.9679 F   0  0  0  0  0  0  0  0  0  0  0  0
    4.8752    2.0950   -0.2825 C   0  0  0  0  0  0  0  0  0  0  0  0
    5.8839    2.6079   -1.0162 F   0  0  0  0  0  0  0  0  0  0  0  0
    4.5242    2.6829    0.9153 C   0  0  0  0  0  0  0  0  0  0  0  0
    3.5354    2.0142    1.6877 C   0  0  0  0  0  0  0  0  0  0  0  0
    3.3461    2.3531    2.9724 N   0  0  0  0  0  0  0  0  0  0  0  0
    2.4242    1.7352    3.6696 C   0  0  0  0  0  0  0  0  0  0  0  0
    2.2583    2.1934    5.0875 C   0  0  0  0  0  0  0  0  0  0  0  0
    1.2512    3.3447    5.1469 C   0  0  0  0  0  0  0  0  0  0  0  0
    1.6205    0.7183    3.0819 C   0  0  0  0  0  0  0  0  0  0  0  0
    1.8185    0.3607    1.8349 N   0  0  0  0  0  0  0  0  0  0  0  0
    2.7704    0.9695    1.1177 C   0  0  0  0  0  0  0  0  0  0  0  0
    0.5873   -0.0580    3.8330 C   0  0  0  0  0  0  0  0  0  0  0  0
    1.2275   -1.2948    4.4673 C   0  0  0  0  0  0  0  0  0  0  0  0
    4.9957    3.9979    1.3301 C   0  0  0  0  0  0  0  0  0  0  0  0
    6.3051    4.4207    1.2741 C   0  0  0  0  0  0  0  0  0  0  0  0
    6.6541    5.7249    1.6186 C   0  0  0  0  0  0  0  0  0  0  0  0
    5.7248    6.6569    2.0512 C   0  0  0  0  0  0  0  0  0  0  0  0
    4.3606    6.2487    2.1218 C   0  0  0  0  0  0  0  0  0  0  0  0
    3.4056    7.0722    2.5817 N   0  0  0  0  0  0  0  0  0  0  0  0
    2.1485    6.7013    2.5614 C   0  0  0  0  0  0  0  0  0  0  0  0
    1.1863    7.5980    3.2093 C   0  0  0  0  0  0  0  0  0  0  0  0
    1.3453    8.9767    3.0863 C   0  0  0  0  0  0  0  0  0  0  0  0
    0.4572    9.8387    3.7006 C   0  0  0  0  0  0  0  0  0  0  0  0
   -0.5907    9.3354    4.4542 C   0  0  0  0  0  0  0  0  0  0  0  0
   -0.7447    7.9655    4.5942 C   0  0  0  0  0  0  0  0  0  0  0  0
    0.1351    7.0980    3.9756 C   0  0  0  0  0  0  0  0  0  0  0  0
    1.7767    5.4670    1.9379 C   0  0  0  0  0  0  0  0  0  0  0  0
    2.7050    4.6120    1.5902 N   0  0  0  0  0  0  0  0  0  0  0  0
    3.9996    4.9353    1.7193 C   0  0  0  0  0  0  0  0  0  0  0  0
    0.3972    5.1038    1.5985 C   0  0  0  0  0  0  0  0  0  0  0  0
    0.0203    3.7623    1.6451 C   0  0  0  0  0  0  0  0  0  0  0  0
   -1.2582    3.3790    1.2911 C   0  0  0  0  0  0  0  0  0  0  0  0
   -2.1748    4.3309    0.8743 C   0  0  0  0  0  0  0  0  0  0  0  0
   -1.8011    5.6634    0.8029 C   0  0  0  0  0  0  0  0  0  0  0  0
   -0.5237    6.0533    1.1602 C   0  0  0  0  0  0  0  0  0  0  0  0
    6.1360    7.9942    2.4041 C   0  0  0  0  0  0  0  0  0  0  0  0
    5.4453    8.9631    3.0944 C   0  0  0  0  0  0  0  0  0  0  0  0
    6.1600   10.1531    3.2557 C   0  0  0  0  0  0  0  0  0  0  0  0
    7.4103   10.1072    2.6843 C   0  0  0  0  0  0  0  0  0  0  0  0
    8.3693   11.1191    2.6641 C   0  0  0  0  0  0  0  0  0  0  0  0
    9.1516   11.9598    2.6493 N   0  0  0  0  0  0  0  0  0  0  0  0
    7.7143    8.5693    1.9399 S   0  0  0  0  0  0  0  0  0  0  0  0
   -1.6202   -3.7526   -4.9216 H   0  0  0  0  0  0  0  0  0  0  0  0
   -5.3316   -7.5698   -4.8837 H   0  0  0  0  0  0  0  0  0  0  0  0
   -6.2910   -4.7543   -0.7847 H   0  0  0  0  0  0  0  0  0  0  0  0
   -8.9647   -6.7614   -1.5124 H   0  0  0  0  0  0  0  0  0  0  0  0
   -7.6672   -7.8343    0.5527 H   0  0  0  0  0  0  0  0  0  0  0  0
   -9.8186   -9.2645    0.0761 H   0  0  0  0  0  0  0  0  0  0  0  0
   -9.3634  -10.7538   -2.0753 H   0  0  0  0  0  0  0  0  0  0  0  0
   -6.9252  -10.2434   -2.9203 H   0  0  0  0  0  0  0  0  0  0  0  0
   -6.4571  -10.0202   -0.3295 H   0  0  0  0  0  0  0  0  0  0  0  0
   -5.7375   -8.6236   -1.1581 H   0  0  0  0  0  0  0  0  0  0  0  0
   -8.5049   -8.2129   -3.6220 H   0  0  0  0  0  0  0  0  0  0  0  0
   -3.3651   -5.0150    0.2961 H   0  0  0  0  0  0  0  0  0  0  0  0
   -4.0243   -7.2852   -0.3462 H   0  0  0  0  0  0  0  0  0  0  0  0
   -2.6372   -8.2211   -4.5762 H   0  0  0  0  0  0  0  0  0  0  0  0
   -1.4665   -9.4774   -4.0588 H   0  0  0  0  0  0  0  0  0  0  0  0
   -3.1084   -9.9389   -4.5480 H   0  0  0  0  0  0  0  0  0  0  0  0
   -0.7964   -7.4306   -3.1466 H   0  0  0  0  0  0  0  0  0  0  0  0
   -0.0946   -5.2107   -2.4547 H   0  0  0  0  0  0  0  0  0  0  0  0
   -2.1440   -1.1460    0.0012 H   0  0  0  0  0  0  0  0  0  0  0  0
   -2.6112   -0.4556    2.3054 H   0  0  0  0  0  0  0  0  0  0  0  0
   -3.1915   -3.9575    5.3009 H   0  0  0  0  0  0  0  0  0  0  0  0
   -2.9448   -2.9377    6.7365 H   0  0  0  0  0  0  0  0  0  0  0  0
   -1.5389   -3.6639    5.9309 H   0  0  0  0  0  0  0  0  0  0  0  0
   -1.3647   -4.2989    3.7108 H   0  0  0  0  0  0  0  0  0  0  0  0
   -0.9291   -4.9938    1.4217 H   0  0  0  0  0  0  0  0  0  0  0  0
    0.7001    2.1207   -1.5284 H   0  0  0  0  0  0  0  0  0  0  0  0
    1.1808    4.4017   -0.7768 H   0  0  0  0  0  0  0  0  0  0  0  0
    5.1537    6.7176   -2.7101 H   0  0  0  0  0  0  0  0  0  0  0  0
    5.3081    7.3402   -1.0539 H   0  0  0  0  0  0  0  0  0  0  0  0
    5.5789    5.6098   -1.3645 H   0  0  0  0  0  0  0  0  0  0  0  0
    4.6303    4.5110   -3.3043 H   0  0  0  0  0  0  0  0  0  0  0  0
    4.1625    2.2365   -4.0384 H   0  0  0  0  0  0  0  0  0  0  0  0
    3.1772   -1.6768   -3.9278 H   0  0  0  0  0  0  0  0  0  0  0  0
    3.5186   -2.4534   -6.2110 H   0  0  0  0  0  0  0  0  0  0  0  0
    3.5959   -3.1238   -9.7946 H   0  0  0  0  0  0  0  0  0  0  0  0
    2.7509   -3.3825   -8.2520 H   0  0  0  0  0  0  0  0  0  0  0  0
    4.4864   -2.9247   -8.2706 H   0  0  0  0  0  0  0  0  0  0  0  0
    2.1226    1.3073   -7.6965 H   0  0  0  0  0  0  0  0  0  0  0  0
    1.7470    2.0771   -5.3863 H   0  0  0  0  0  0  0  0  0  0  0  0
    1.9284    1.3745    5.7257 H   0  0  0  0  0  0  0  0  0  0  0  0
    3.2258    2.5527    5.4408 H   0  0  0  0  0  0  0  0  0  0  0  0
    1.6098    4.1743    4.5419 H   0  0  0  0  0  0  0  0  0  0  0  0
    1.1311    3.6871    6.1718 H   0  0  0  0  0  0  0  0  0  0  0  0
    0.2800    3.0340    4.7660 H   0  0  0  0  0  0  0  0  0  0  0  0
    0.1141    0.5534    4.6000 H   0  0  0  0  0  0  0  0  0  0  0  0
   -0.1701   -0.3849    3.1213 H   0  0  0  0  0  0  0  0  0  0  0  0
    0.4826   -1.8433    5.0363 H   0  0  0  0  0  0  0  0  0  0  0  0
    1.6239   -1.9435    3.6901 H   0  0  0  0  0  0  0  0  0  0  0  0
    2.0398   -1.0167    5.1360 H   0  0  0  0  0  0  0  0  0  0  0  0
    7.0790    3.7345    0.9655 H   0  0  0  0  0  0  0  0  0  0  0  0
    7.6940    6.0140    1.5576 H   0  0  0  0  0  0  0  0  0  0  0  0
    2.1607    9.3566    2.4894 H   0  0  0  0  0  0  0  0  0  0  0  0
    0.5816   10.9061    3.5923 H   0  0  0  0  0  0  0  0  0  0  0  0
   -1.2848   10.0091    4.9342 H   0  0  0  0  0  0  0  0  0  0  0  0
   -1.5550    7.5704    5.1888 H   0  0  0  0  0  0  0  0  0  0  0  0
    0.0154    6.0316    4.0974 H   0  0  0  0  0  0  0  0  0  0  0  0
    0.7470    3.0307    1.9586 H   0  0  0  0  0  0  0  0  0  0  0  0
   -1.5362    2.3360    1.3331 H   0  0  0  0  0  0  0  0  0  0  0  0
   -3.1743    4.0335    0.5947 H   0  0  0  0  0  0  0  0  0  0  0  0
   -2.5078    6.4044    0.4599 H   0  0  0  0  0  0  0  0  0  0  0  0
   -0.2308    7.0889    1.0739 H   0  0  0  0  0  0  0  0  0  0  0  0
    4.4540    8.7965    3.4715 H   0  0  0  0  0  0  0  0  0  0  0  0
    5.7870   11.0211    3.7701 H   0  0  0  0  0  0  0  0  0  0  0  0
  1  2  2  0  0  0  0
  2  3  1  0  0  0  0
  3  4  2  0  0  0  0
  3  5  1  0  0  0  0
  5  6  2  0  0  0  0
  6  7  1  0  0  0  0
  7  8  2  0  0  0  0
  8  9  1  0  0  0  0
  9 10  2  0  0  0  0
 10 11  1  0  0  0  0
 11 12  2  0  0  0  0
 12 13  1  0  0  0  0
 13 14  3  0  0  0  0
 12 15  1  0  0  0  0
 15 16  3  0  0  0  0
  8 17  1  0  0  0  0
 17 18  1  0  0  0  0
 18 19  1  0  0  0  0
 19 20  2  0  0  0  0
 20 21  1  0  0  0  0
 21 22  1  0  0  0  0
 21 23  1  0  0  0  0
  1 24  1  0  0  0  0
 24 25  2  0  0  0  0
 25 26  1  0  0  0  0
 26 27  1  0  0  0  0
 27 28  2  0  0  0  0
 28 29  1  0  0  0  0
 29 30  2  0  0  0  0
 30 31  1  0  0  0  0
 31 32  1  0  0  0  0
 30 33  1  0  0  0  0
 33 34  2  0  0  0  0
 26 35  1  0  0  0  0
 35 36  2  0  0  0  0
 36 37  1  0  0  0  0
 37 38  2  0  0  0  0
 38 39  1  0  0  0  0
 39 40  1  0  0  0  0
 38 41  1  0  0  0  0
 41 42  2  0  0  0  0
 25 43  1  0  0  0  0
 43 44  1  0  0  0  0
 44 45  1  0  0  0  0
 45 46  2  0  0  0  0
 46 47  1  0  0  0  0
 47 48  1  0  0  0  0
 48 49  2  0  0  0  0
 49 50  1  0  0  0  0
 50 51  2  0  0  0  0
 51 52  1  0  0  0  0
 52 53  1  0  0  0  0
 51 54  1  0  0  0  0
 54 55  2  0  0  0  0
 47 56  1  0  0  0  0
 56 57  2  0  0  0  0
 57 58  1  0  0  0  0
 58 59  2  0  0  0  0
 59 60  1  0  0  0  0
 60 61  1  0  0  0  0
 59 62  1  0  0  0  0
 62 63  2  0  0  0  0
 46 64  1  0  0  0  0
 64 65  1  0  0  0  0
 45 66  1  0  0  0  0
 66 67  2  0  0  0  0
 67 68  1  0  0  0  0
 67 69  1  0  0  0  0
 69 70  1  0  0  0  0
 69 71  2  0  0  0  0
 71 72  1  0  0  0  0
 72 73  2  0  0  0  0
 73 74  1  0  0  0  0
 74 75  1  0  0  0  0
 75 76  1  0  0  0  0
 74 77  2  0  0  0  0
 77 78  1  0  0  0  0
 78 79  2  0  0  0  0
 77 80  1  0  0  0  0
 80 81  1  0  0  0  0
 71 82  1  0  0  0  0
 82 83  2  0  0  0  0
 83 84  1  0  0  0  0
 84 85  2  0  0  0  0
 85 86  1  0  0  0  0
 86 87  2  0  0  0  0
 87 88  1  0  0  0  0
 88 89  1  0  0  0  0
 89 90  2  0  0  0  0
 90 91  1  0  0  0  0
 91 92  2  0  0  0  0
 92 93  1  0  0  0  0
 93 94  2  0  0  0  0
 88 95  2  0  0  0  0
 95 96  1  0  0  0  0
 96 97  2  0  0  0  0
 95 98  1  0  0  0  0
 98 99  2  0  0  0  0
 99100  1  0  0  0  0
100101  2  0  0  0  0
101102  1  0  0  0  0
102103  2  0  0  0  0
 85104  1  0  0  0  0
104105  2  0  0  0  0
105106  1  0  0  0  0
106107  2  0  0  0  0
107108  1  0  0  0  0
108109  3  0  0  0  0
107110  1  0  0  0  0
 11  2  1  0  0  0  0
 23 17  1  0  0  0  0
 65 24  1  0  0  0  0
 79 66  1  0  0  0  0
 97 82  1  0  0  0  0
103 98  1  0  0  0  0
110104  1  0  0  0  0
 10  5  1  0  0  0  0
 22 18  1  0  0  0  0
 34 27  1  0  0  0  0
 42 35  1  0  0  0  0
 64 43  2  0  0  0  0
 79 72  1  0  0  0  0
 97 86  1  0  0  0  0
 23  7  1  0  0  0  0
 55 48  1  0  0  0  0
 63 56  1  0  0  0  0
 94 89  1  0  0  0  0
  1111  1  0  0  0  0
  6112  1  0  0  0  0
  9113  1  0  0  0  0
 17114  1  0  0  0  0
 18115  1  0  0  0  0
 19116  1  0  0  0  0
 20117  1  0  0  0  0
 21118  1  0  0  0  0
 22119  1  0  0  0  0
 22120  1  0  0  0  0
 23121  1  0  0  0  0
 28122  1  0  0  0  0
 29123  1  0  0  0  0
 32124  1  0  0  0  0
 32125  1  0  0  0  0
 32126  1  0  0  0  0
 33127  1  0  0  0  0
 34128  1  0  0  0  0
 36129  1  0  0  0  0
 37130  1  0  0  0  0
 40131  1  0  0  0  0
 40132  1  0  0  0  0
 40133  1  0  0  0  0
 41134  1  0  0  0  0
 42135  1  0  0  0  0
 49136  1  0  0  0  0
 50137  1  0  0  0  0
 53138  1  0  0  0  0
 53139  1  0  0  0  0
 53140  1  0  0  0  0
 54141  1  0  0  0  0
 55142  1  0  0  0  0
 57143  1  0  0  0  0
 58144  1  0  0  0  0
 61145  1  0  0  0  0
 61146  1  0  0  0  0
 61147  1  0  0  0  0
 62148  1  0  0  0  0
 63149  1  0  0  0  0
 75150  1  0  0  0  0
 75151  1  0  0  0  0
 76152  1  0  0  0  0
 76153  1  0  0  0  0
 76154  1  0  0  0  0
 80155  1  0  0  0  0
 80156  1  0  0  0  0
 81157  1  0  0  0  0
 81158  1  0  0  0  0
 81159  1  0  0  0  0
 83160  1  0  0  0  0
 84161  1  0  0  0  0
 90162  1  0  0  0  0
 91163  1  0  0  0  0
 92164  1  0  0  0  0
 93165  1  0  0  0  0
 94166  1  0  0  0  0
 99167  1  0  0  0  0
100168  1  0  0  0  0
101169  1  0  0  0  0
102170  1  0  0  0  0
103171  1  0  0  0  0
105172  1  0  0  0  0
106173  1  0  0  0  0
M  END
