173

C         -0.09050       -1.15340       -9.45640
C         -0.33170       -0.05840      -10.20830
C         -0.97890        1.19490       -9.71620
O         -1.60110        1.34850       -8.68980
C         -0.81710        2.17380      -10.80430
C         -1.16060        3.52390      -10.77110
C         -0.89930        4.19830      -11.93860
C         -0.33690        3.57590      -13.06290
C          0.00070        2.24560      -13.11290
C         -0.26190        1.53780      -11.93440
C         -0.03920        0.13040      -11.62480
C          0.35830       -0.83150      -12.51190
C          0.60280       -0.60280      -13.88370
N          0.81180       -0.49350      -15.00690
C          0.54640       -2.19620      -12.20300
N          0.71760       -3.31860      -12.03210
C         -0.35520        4.84670      -13.87420
C         -1.46390        5.00160      -14.94450
C         -2.62570        4.15620      -14.48440
C         -3.15880        4.74450      -13.42190
C         -2.36690        5.99860      -13.14420
C         -1.98470        6.40050      -14.57770
C         -0.98220        5.53930      -12.62320
C         -0.22020       -1.19550       -8.01740
C         -0.75130       -2.29040       -7.36660
C         -0.91190       -2.31000       -5.97600
F         -1.51570       -3.39180       -5.45350
C         -0.53260       -1.27740       -5.14260
C          0.06540       -0.16400       -5.78010
C          0.23610       -0.12620       -7.20590
N          0.88040        0.96910       -7.60390
S          1.20330        1.86780       -6.31550
N          0.57160        0.91930       -5.19100
C         -0.68400       -1.27300       -3.69070
C         -0.27810       -2.31660       -2.88380
F          0.22180       -3.44120       -3.42580
C         -0.27930       -2.20300       -1.49150
F          0.09310       -3.27240       -0.76320
C         -0.60410       -1.01820       -0.84920
C         -1.09670        0.03970       -1.65310
N         -1.40450        1.22300       -1.07820
C         -1.83300        2.18780       -1.84880
O         -2.06360        3.40050       -1.35960
C         -1.75960        3.62420        0.01390
C         -1.52270        5.11380        0.19600
C         -2.06970        1.98740       -3.25350
N         -1.72570        0.86870       -3.81150
C         -1.17780       -0.10750       -3.05600
C         -2.69920        3.05230       -4.07970
C         -0.35530       -0.83900        0.56280
C          0.79380       -1.19900        1.25450
N          1.95500       -1.70280        0.70760
C          2.77820       -2.51310        1.51610
C          4.15050       -2.27980        1.56700
C          4.94140       -3.00820        2.42800
C          4.37490       -3.97830        3.24950
S          5.43260       -4.81430        4.38850
C          4.27920       -5.20220        5.74000
C          3.02060       -4.26290        3.14750
C          2.22760       -3.53340        2.28490
C          2.32980       -1.49410       -0.62520
C          2.13060       -0.26930       -1.26430
C          2.41790       -0.12940       -2.60560
C          2.93020       -1.20250       -3.32930
S          3.23330       -0.97580       -5.05800
C          2.99750       -2.65400       -5.71870
C          3.20080       -2.40040       -2.68230
C          2.89760       -2.54460       -1.34470
C          0.64530       -0.93390        2.64210
S          1.62150       -1.27610        4.02520
C          0.37720       -0.61650        5.08280
C         -0.78240       -0.23760        4.36080
N         -1.96510        0.14690        4.93600
C         -2.76640        1.10920        4.29830
C         -2.20130        2.29870        3.85090
C         -2.99400        3.28160        3.29240
C         -4.36130        3.07940        3.15690
S         -5.45610        4.27060        2.44990
C         -4.57010        5.84060        2.68670
C         -4.92370        1.87500        3.57560
C         -4.13690        0.90190        4.14850
C         -2.45290       -0.46430        6.10440
C         -2.22880       -1.81740        6.34460
C         -2.69780       -2.41430        7.49740
C         -3.41270       -1.66790        8.42640
S         -4.05550       -2.31440        9.93560
C         -3.52720       -4.05190        9.93400
C         -3.65970       -0.31940        8.17540
C         -3.18560        0.27930        7.03010
C         -0.58380       -0.37500        2.97600
S         -1.56380       -0.07680        1.57440
C          0.54120       -0.36420        6.44350
C          1.59610       -0.65870        7.27820
C          2.73390       -1.52020        6.95990
O          2.95550       -2.11250        5.91380
C          3.55220       -1.59860        8.18130
C          4.75800       -2.27750        8.34130
C          5.29910       -2.16310        9.59950
C          4.68690       -1.42700       10.62150
C          3.50110       -0.74570       10.47290
C          2.93160       -0.84930        9.20090
C          1.71210       -0.24800        8.65790
C          0.86310        0.58390        9.34830
C         -0.25170        1.25240        8.80680
N         -1.15550        1.86120        8.43870
C          1.00280        0.91240       10.71170
N          1.04530        1.21330       11.81960
C          5.77890       -1.74340       11.61330
C          5.46280       -2.82430       12.66850
C          6.82450       -3.25410       13.16470
C          7.40580       -3.95010       12.19610
C          6.44670       -4.00260       11.02880
C          5.11200       -4.02840       11.78490
C          6.46280       -2.56320       10.47230
H          0.24080       -2.07120       -9.92480
H         -1.58780        3.96350       -9.88340
H          0.43530        1.78340      -13.98340
H          0.61170        5.20270      -14.22380
H         -1.12980        4.84280      -15.96610
H         -2.89640        3.21750      -14.93080
H         -3.96410        4.39530      -12.80260
H         -2.85520        6.74840      -12.52730
H         -2.84500        6.69900      -15.17440
H         -1.21940        7.17420      -14.62240
H         -0.42520        6.34890      -12.15560
H         -1.10710       -3.14020       -7.92930
H         -0.87380        3.04150        0.28620
H         -2.59860        3.26810        0.62230
H         -2.41030        5.67150       -0.09220
H         -0.69630        5.43890       -0.43110
H         -1.27670        5.32860        1.23210
H         -3.70150        3.26510       -3.71130
H         -2.74810        2.72450       -5.11380
H         -2.11830        3.96970       -4.00350
H          4.58290       -1.50740        0.94800
H          6.00090       -2.81470        2.49370
H          4.89120       -5.40930        6.61260
H          3.68700       -6.07970        5.49610
H          3.65040       -4.33260        5.90950
H          2.57400       -5.04570        3.73870
H          1.17280       -3.75010        2.20260
H          1.72820        0.56540       -0.71000
H          2.22970        0.80500       -3.11090
H          2.81470       -2.53430       -6.78240
H          2.13720       -3.11110       -5.24020
H          3.89220       -3.25060       -5.56640
H          3.62680       -3.23380       -3.21710
H          3.07240       -3.48970       -0.85350
H         -1.13990        2.46090        3.96590
H         -2.53890        4.20760        2.98130
H         -4.20670        5.89830        3.70780
H         -5.30350        6.62090        2.50900
H         -3.75760        5.93250        1.97280
H         -5.98450        1.72000        3.45460
H         -4.57670       -0.02230        4.49100
H         -1.68080       -2.40660        5.62440
H         -2.50620       -3.46370        7.65260
H         -3.97280       -4.57720        9.09420
H         -3.89720       -4.46830       10.86570
H         -2.44300       -4.11150        9.90940
H         -4.21460        0.25680        8.89860
H         -3.36530        1.32770        6.85510
H         -0.28440        0.17190        6.89340
H          5.20500       -2.81930        7.52270
H          3.05050       -0.17490       11.26750
H          6.30640       -0.88630       12.02730
H          4.73830       -2.52690       13.42170
H          7.23370       -2.96900       14.11610
H          8.39750       -4.36260       12.17650
H          6.61960       -4.77960       10.28880
H          4.98470       -4.94120       12.36480
H          4.24020       -3.87420       11.15160
H          7.44620       -2.25200       10.12490
