
  xtb     02052208343D
 energy: -285.018132602813 gnorm: 0.000435921267 xtb: 6.4.1 (unknown)
170188  0     0  0            999 V2000
    5.7857    3.2409    1.6833 C   0  0  0  0  0  0  0  0  0  0  0  0
    6.6540    3.1231    2.7240 C   0  0  0  0  0  0  0  0  0  0  0  0
    8.1151    3.0626    2.4372 C   0  0  0  0  0  0  0  0  0  0  0  0
    8.6392    3.1961    1.3538 O   0  0  0  0  0  0  0  0  0  0  0  0
    8.7626    2.7795    3.7291 C   0  0  0  0  0  0  0  0  0  0  0  0
   10.1174    2.5510    3.9591 C   0  0  0  0  0  0  0  0  0  0  0  0
   10.4358    2.3486    5.2803 C   0  0  0  0  0  0  0  0  0  0  0  0
    9.4781    2.3781    6.3032 C   0  0  0  0  0  0  0  0  0  0  0  0
    8.1402    2.6077    6.0899 C   0  0  0  0  0  0  0  0  0  0  0  0
    7.7912    2.8033    4.7512 C   0  0  0  0  0  0  0  0  0  0  0  0
    6.4880    3.0951    4.1565 C   0  0  0  0  0  0  0  0  0  0  0  0
    5.3787    3.5068    4.8523 C   0  0  0  0  0  0  0  0  0  0  0  0
    5.3146    3.6115    6.2545 C   0  0  0  0  0  0  0  0  0  0  0  0
    5.1822    3.7206    7.3911 N   0  0  0  0  0  0  0  0  0  0  0  0
    4.1767    3.9571    4.2734 C   0  0  0  0  0  0  0  0  0  0  0  0
    3.1732    4.3678    3.8938 N   0  0  0  0  0  0  0  0  0  0  0  0
   10.5047    2.1306    7.3804 C   0  0  0  0  0  0  0  0  0  0  0  0
   10.6026    0.7120    7.9923 C   0  0  0  0  0  0  0  0  0  0  0  0
   10.1027   -0.2459    6.9410 C   0  0  0  0  0  0  0  0  0  0  0  0
   10.9992   -0.2787    5.9644 C   0  0  0  0  0  0  0  0  0  0  0  0
   12.1266    0.6510    6.3422 C   0  0  0  0  0  0  0  0  0  0  0  0
   12.1173    0.4803    7.8701 C   0  0  0  0  0  0  0  0  0  0  0  0
   11.5704    2.0921    6.2398 C   0  0  0  0  0  0  0  0  0  0  0  0
    4.3977    2.9555    1.5959 C   0  0  0  0  0  0  0  0  0  0  0  0
    3.6971    1.8088    1.9592 C   0  0  0  0  0  0  0  0  0  0  0  0
    4.2479    0.6162    2.4157 N   0  0  0  0  0  0  0  0  0  0  0  0
    4.7697    0.4883    3.7172 C   0  0  0  0  0  0  0  0  0  0  0  0
    4.0360    0.9156    4.8172 C   0  0  0  0  0  0  0  0  0  0  0  0
    4.5317    0.7484    6.0983 C   0  0  0  0  0  0  0  0  0  0  0  0
    5.7818    0.1756    6.2876 C   0  0  0  0  0  0  0  0  0  0  0  0
    6.5228   -0.0548    7.8699 S   0  0  0  0  0  0  0  0  0  0  0  0
    5.4088    0.8081    9.0126 C   0  0  0  0  0  0  0  0  0  0  0  0
    6.5167   -0.2554    5.1819 C   0  0  0  0  0  0  0  0  0  0  0  0
    6.0116   -0.1121    3.9097 C   0  0  0  0  0  0  0  0  0  0  0  0
    3.8874   -0.5368    1.7061 C   0  0  0  0  0  0  0  0  0  0  0  0
    3.7601   -0.4754    0.3193 C   0  0  0  0  0  0  0  0  0  0  0  0
    3.3125   -1.5629   -0.4016 C   0  0  0  0  0  0  0  0  0  0  0  0
    2.9989   -2.7451    0.2535 C   0  0  0  0  0  0  0  0  0  0  0  0
    2.3494   -4.1784   -0.5505 S   0  0  0  0  0  0  0  0  0  0  0  0
    2.2783   -3.7041   -2.3029 C   0  0  0  0  0  0  0  0  0  0  0  0
    3.1833   -2.8321    1.6313 C   0  0  0  0  0  0  0  0  0  0  0  0
    3.6213   -1.7436    2.3524 C   0  0  0  0  0  0  0  0  0  0  0  0
    2.3491    1.8865    1.5370 C   0  0  0  0  0  0  0  0  0  0  0  0
    1.0170    0.7974    1.6664 S   0  0  0  0  0  0  0  0  0  0  0  0
   -0.0120    1.9532    0.8514 C   0  0  0  0  0  0  0  0  0  0  0  0
    0.6655    3.0934    0.4385 C   0  0  0  0  0  0  0  0  0  0  0  0
    0.1449    4.0870   -0.3740 N   0  0  0  0  0  0  0  0  0  0  0  0
    0.5735    5.4081   -0.1888 C   0  0  0  0  0  0  0  0  0  0  0  0
    0.8815    5.8752    1.0865 C   0  0  0  0  0  0  0  0  0  0  0  0
    1.3355    7.1659    1.2751 C   0  0  0  0  0  0  0  0  0  0  0  0
    1.4776    8.0176    0.1891 C   0  0  0  0  0  0  0  0  0  0  0  0
    2.0443    9.6855    0.3056 S   0  0  0  0  0  0  0  0  0  0  0  0
    2.5566    9.8489    2.0393 C   0  0  0  0  0  0  0  0  0  0  0  0
    1.1521    7.5597   -1.0870 C   0  0  0  0  0  0  0  0  0  0  0  0
    0.7108    6.2702   -1.2773 C   0  0  0  0  0  0  0  0  0  0  0  0
   -0.7888    3.7568   -1.3673 C   0  0  0  0  0  0  0  0  0  0  0  0
   -0.6778    2.5553   -2.0714 C   0  0  0  0  0  0  0  0  0  0  0  0
   -1.6761    2.1563   -2.9287 C   0  0  0  0  0  0  0  0  0  0  0  0
   -2.8005    2.9568   -3.1303 C   0  0  0  0  0  0  0  0  0  0  0  0
   -4.0587    2.2912   -4.1730 S   0  0  0  0  0  0  0  0  0  0  0  0
   -5.4185    3.4837   -4.0238 C   0  0  0  0  0  0  0  0  0  0  0  0
   -2.8697    4.1946   -2.5065 C   0  0  0  0  0  0  0  0  0  0  0  0
   -1.8778    4.5842   -1.6264 C   0  0  0  0  0  0  0  0  0  0  0  0
    2.0174    3.0479    0.8610 C   0  0  0  0  0  0  0  0  0  0  0  0
    3.3894    4.0834    0.6932 S   0  0  0  0  0  0  0  0  0  0  0  0
   -1.3723    1.5865    0.5654 C   0  0  0  0  0  0  0  0  0  0  0  0
   -1.6895    0.2741    0.1585 C   0  0  0  0  0  0  0  0  0  0  0  0
   -0.9447   -0.8392    0.0667 N   0  0  0  0  0  0  0  0  0  0  0  0
   -1.7559   -1.7273   -0.4348 N   0  0  0  0  0  0  0  0  0  0  0  0
   -1.3562   -3.0849   -0.6751 C   0  0  0  0  0  0  0  0  0  0  0  0
   -1.6850   -3.4837   -2.1083 C   0  0  0  0  0  0  0  0  0  0  0  0
   -2.9647   -1.3267   -0.7054 N   0  0  0  0  0  0  0  0  0  0  0  0
   -2.9803   -0.0398   -0.3488 C   0  0  0  0  0  0  0  0  0  0  0  0
   -4.0138    0.9159   -0.4746 C   0  0  0  0  0  0  0  0  0  0  0  0
   -3.6823    2.1554    0.0595 C   0  0  0  0  0  0  0  0  0  0  0  0
   -2.4268    2.4874    0.5639 C   0  0  0  0  0  0  0  0  0  0  0  0
   -4.5983    3.1522    0.0519 F   0  0  0  0  0  0  0  0  0  0  0  0
   -5.2062    0.5750   -1.1917 C   0  0  0  0  0  0  0  0  0  0  0  0
   -6.3213    1.3575   -1.4260 C   0  0  0  0  0  0  0  0  0  0  0  0
   -7.2434    0.7373   -2.2624 C   0  0  0  0  0  0  0  0  0  0  0  0
   -8.7223    1.4525   -2.8617 S   0  0  0  0  0  0  0  0  0  0  0  0
   -9.0905    2.7489   -1.6264 C   0  0  0  0  0  0  0  0  0  0  0  0
   -9.4283    2.1616   -0.2705 C   0  0  0  0  0  0  0  0  0  0  0  0
   -6.8485   -0.5544   -2.6658 C   0  0  0  0  0  0  0  0  0  0  0  0
   -5.2864   -0.9529   -1.9984 S   0  0  0  0  0  0  0  0  0  0  0  0
   -7.6619   -1.3853   -3.4409 C   0  0  0  0  0  0  0  0  0  0  0  0
   -7.4521   -2.6654   -3.8926 C   0  0  0  0  0  0  0  0  0  0  0  0
   -6.2279   -3.4561   -3.7311 C   0  0  0  0  0  0  0  0  0  0  0  0
   -5.1969   -3.1403   -3.1606 O   0  0  0  0  0  0  0  0  0  0  0  0
   -6.4737   -4.7418   -4.4086 C   0  0  0  0  0  0  0  0  0  0  0  0
   -5.5941   -5.8178   -4.5050 C   0  0  0  0  0  0  0  0  0  0  0  0
   -6.1035   -6.8966   -5.1864 C   0  0  0  0  0  0  0  0  0  0  0  0
   -7.3932   -6.9034   -5.7326 C   0  0  0  0  0  0  0  0  0  0  0  0
   -8.2710   -5.8491   -5.6428 C   0  0  0  0  0  0  0  0  0  0  0  0
   -7.7730   -4.7403   -4.9519 C   0  0  0  0  0  0  0  0  0  0  0  0
   -8.4077   -3.4596   -4.6363 C   0  0  0  0  0  0  0  0  0  0  0  0
   -9.6934   -3.1158   -4.9713 C   0  0  0  0  0  0  0  0  0  0  0  0
  -10.3543   -1.9159   -4.6335 C   0  0  0  0  0  0  0  0  0  0  0  0
  -10.9901   -0.9871   -4.4015 N   0  0  0  0  0  0  0  0  0  0  0  0
  -10.5733   -3.9369   -5.7065 C   0  0  0  0  0  0  0  0  0  0  0  0
  -11.3462   -4.5419   -6.3031 N   0  0  0  0  0  0  0  0  0  0  0  0
   -7.2424   -8.3020   -6.2779 C   0  0  0  0  0  0  0  0  0  0  0  0
   -6.9710   -8.4277   -7.7918 C   0  0  0  0  0  0  0  0  0  0  0  0
   -6.4029   -9.8203   -7.9424 C   0  0  0  0  0  0  0  0  0  0  0  0
   -5.1815   -9.8160   -7.4240 C   0  0  0  0  0  0  0  0  0  0  0  0
   -4.9035   -8.4202   -6.9146 C   0  0  0  0  0  0  0  0  0  0  0  0
   -5.6881   -7.6009   -7.9474 C   0  0  0  0  0  0  0  0  0  0  0  0
   -5.8041   -8.2952   -5.6676 C   0  0  0  0  0  0  0  0  0  0  0  0
    6.2465    3.5612    0.7507 H   0  0  0  0  0  0  0  0  0  0  0  0
   10.8252    2.5551    3.1449 H   0  0  0  0  0  0  0  0  0  0  0  0
    7.4191    2.6335    6.8883 H   0  0  0  0  0  0  0  0  0  0  0  0
   10.5940    2.9124    8.1322 H   0  0  0  0  0  0  0  0  0  0  0  0
   10.1552    0.6132    8.9773 H   0  0  0  0  0  0  0  0  0  0  0  0
    9.1529   -0.7427    7.0028 H   0  0  0  0  0  0  0  0  0  0  0  0
   10.9486   -0.8075    5.0303 H   0  0  0  0  0  0  0  0  0  0  0  0
   13.0707    0.4942    5.8267 H   0  0  0  0  0  0  0  0  0  0  0  0
   12.4162   -0.5185    8.1841 H   0  0  0  0  0  0  0  0  0  0  0  0
   12.7153    1.2251    8.3935 H   0  0  0  0  0  0  0  0  0  0  0  0
   12.3593    2.8419    6.2538 H   0  0  0  0  0  0  0  0  0  0  0  0
    3.0632    1.3621    4.6687 H   0  0  0  0  0  0  0  0  0  0  0  0
    3.9332    1.0712    6.9345 H   0  0  0  0  0  0  0  0  0  0  0  0
    4.4602    0.2826    9.0761 H   0  0  0  0  0  0  0  0  0  0  0  0
    5.2741    1.8378    8.6903 H   0  0  0  0  0  0  0  0  0  0  0  0
    5.9073    0.7826    9.9767 H   0  0  0  0  0  0  0  0  0  0  0  0
    7.4883   -0.6991    5.3332 H   0  0  0  0  0  0  0  0  0  0  0  0
    6.5732   -0.4542    3.0536 H   0  0  0  0  0  0  0  0  0  0  0  0
    4.0021    0.4403   -0.1998 H   0  0  0  0  0  0  0  0  0  0  0  0
    3.2133   -1.4704   -1.4708 H   0  0  0  0  0  0  0  0  0  0  0  0
    3.2796   -3.5078   -2.6748 H   0  0  0  0  0  0  0  0  0  0  0  0
    1.6334   -2.8399   -2.4299 H   0  0  0  0  0  0  0  0  0  0  0  0
    1.8551   -4.5596   -2.8198 H   0  0  0  0  0  0  0  0  0  0  0  0
    2.9565   -3.7599    2.1339 H   0  0  0  0  0  0  0  0  0  0  0  0
    3.7346   -1.8170    3.4232 H   0  0  0  0  0  0  0  0  0  0  0  0
    0.7669    5.2277    1.9427 H   0  0  0  0  0  0  0  0  0  0  0  0
    1.5682    7.4880    2.2765 H   0  0  0  0  0  0  0  0  0  0  0  0
    3.0012   10.8359    2.1209 H   0  0  0  0  0  0  0  0  0  0  0  0
    3.2947    9.0889    2.2777 H   0  0  0  0  0  0  0  0  0  0  0  0
    1.6924    9.7801    2.6938 H   0  0  0  0  0  0  0  0  0  0  0  0
    1.2635    8.2272   -1.9277 H   0  0  0  0  0  0  0  0  0  0  0  0
    0.4788    5.9176   -2.2710 H   0  0  0  0  0  0  0  0  0  0  0  0
    0.1843    1.9234   -1.9176 H   0  0  0  0  0  0  0  0  0  0  0  0
   -1.6069    1.2132   -3.4491 H   0  0  0  0  0  0  0  0  0  0  0  0
   -6.2713    3.0193   -4.5098 H   0  0  0  0  0  0  0  0  0  0  0  0
   -5.6367    3.6537   -2.9745 H   0  0  0  0  0  0  0  0  0  0  0  0
   -5.1626    4.4105   -4.5294 H   0  0  0  0  0  0  0  0  0  0  0  0
   -3.7035    4.8569   -2.6722 H   0  0  0  0  0  0  0  0  0  0  0  0
   -1.9631    5.5309   -1.1137 H   0  0  0  0  0  0  0  0  0  0  0  0
   -1.8998   -3.7316    0.0202 H   0  0  0  0  0  0  0  0  0  0  0  0
   -0.2882   -3.1484   -0.4583 H   0  0  0  0  0  0  0  0  0  0  0  0
   -1.1292   -2.8712   -2.8145 H   0  0  0  0  0  0  0  0  0  0  0  0
   -1.4212   -4.5255   -2.2660 H   0  0  0  0  0  0  0  0  0  0  0  0
   -2.7481   -3.3487   -2.2955 H   0  0  0  0  0  0  0  0  0  0  0  0
   -2.2836    3.4919    0.9289 H   0  0  0  0  0  0  0  0  0  0  0  0
   -6.4486    2.3376   -1.0072 H   0  0  0  0  0  0  0  0  0  0  0  0
   -8.2502    3.4401   -1.5815 H   0  0  0  0  0  0  0  0  0  0  0  0
   -9.9491    3.2674   -2.0526 H   0  0  0  0  0  0  0  0  0  0  0  0
   -9.6928    2.9593    0.4207 H   0  0  0  0  0  0  0  0  0  0  0  0
  -10.2712    1.4798   -0.3561 H   0  0  0  0  0  0  0  0  0  0  0  0
   -8.5815    1.6148    0.1390 H   0  0  0  0  0  0  0  0  0  0  0  0
   -8.6097   -0.9282   -3.7025 H   0  0  0  0  0  0  0  0  0  0  0  0
   -4.6104   -5.7696   -4.0643 H   0  0  0  0  0  0  0  0  0  0  0  0
   -9.2611   -5.8762   -6.0652 H   0  0  0  0  0  0  0  0  0  0  0  0
   -7.9601   -9.0338   -5.9122 H   0  0  0  0  0  0  0  0  0  0  0  0
   -7.8135   -8.1707   -8.4280 H   0  0  0  0  0  0  0  0  0  0  0  0
   -6.9510  -10.6515   -8.3458 H   0  0  0  0  0  0  0  0  0  0  0  0
   -4.5057  -10.6431   -7.3076 H   0  0  0  0  0  0  0  0  0  0  0  0
   -3.8615   -8.1570   -6.7528 H   0  0  0  0  0  0  0  0  0  0  0  0
   -5.2640   -7.6834   -8.9468 H   0  0  0  0  0  0  0  0  0  0  0  0
   -5.8029   -6.5507   -7.6858 H   0  0  0  0  0  0  0  0  0  0  0  0
   -5.5641   -9.0228   -4.8941 H   0  0  0  0  0  0  0  0  0  0  0  0
  1  2  2  0  0  0  0
  2  3  1  0  0  0  0
  3  4  2  0  0  0  0
  3  5  1  0  0  0  0
  5  6  2  0  0  0  0
  6  7  1  0  0  0  0
  7  8  2  0  0  0  0
  8  9  1  0  0  0  0
  9 10  2  0  0  0  0
 10 11  1  0  0  0  0
 11 12  2  0  0  0  0
 12 13  1  0  0  0  0
 13 14  3  0  0  0  0
 12 15  1  0  0  0  0
 15 16  3  0  0  0  0
  8 17  1  0  0  0  0
 17 18  1  0  0  0  0
 18 19  1  0  0  0  0
 19 20  2  0  0  0  0
 20 21  1  0  0  0  0
 21 22  1  0  0  0  0
 21 23  1  0  0  0  0
  1 24  1  0  0  0  0
 24 25  2  0  0  0  0
 25 26  1  0  0  0  0
 26 27  1  0  0  0  0
 27 28  2  0  0  0  0
 28 29  1  0  0  0  0
 29 30  2  0  0  0  0
 30 31  1  0  0  0  0
 31 32  1  0  0  0  0
 30 33  1  0  0  0  0
 33 34  2  0  0  0  0
 26 35  1  0  0  0  0
 35 36  2  0  0  0  0
 36 37  1  0  0  0  0
 37 38  2  0  0  0  0
 38 39  1  0  0  0  0
 39 40  1  0  0  0  0
 38 41  1  0  0  0  0
 41 42  2  0  0  0  0
 25 43  1  0  0  0  0
 43 44  1  0  0  0  0
 44 45  1  0  0  0  0
 45 46  2  0  0  0  0
 46 47  1  0  0  0  0
 47 48  1  0  0  0  0
 48 49  2  0  0  0  0
 49 50  1  0  0  0  0
 50 51  2  0  0  0  0
 51 52  1  0  0  0  0
 52 53  1  0  0  0  0
 51 54  1  0  0  0  0
 54 55  2  0  0  0  0
 47 56  1  0  0  0  0
 56 57  2  0  0  0  0
 57 58  1  0  0  0  0
 58 59  2  0  0  0  0
 59 60  1  0  0  0  0
 60 61  1  0  0  0  0
 59 62  1  0  0  0  0
 62 63  2  0  0  0  0
 46 64  1  0  0  0  0
 64 65  1  0  0  0  0
 45 66  1  0  0  0  0
 66 67  1  0  0  0  0
 67 68  2  0  0  0  0
 68 69  1  0  0  0  0
 69 70  1  0  0  0  0
 70 71  1  0  0  0  0
 69 72  1  0  0  0  0
 72 73  2  0  0  0  0
 73 74  1  0  0  0  0
 74 75  2  0  0  0  0
 75 76  1  0  0  0  0
 75 77  1  0  0  0  0
 74 78  1  0  0  0  0
 78 79  2  0  0  0  0
 79 80  1  0  0  0  0
 80 81  1  0  0  0  0
 81 82  1  0  0  0  0
 82 83  1  0  0  0  0
 80 84  2  0  0  0  0
 84 85  1  0  0  0  0
 84 86  1  0  0  0  0
 86 87  2  0  0  0  0
 87 88  1  0  0  0  0
 88 89  2  0  0  0  0
 88 90  1  0  0  0  0
 90 91  2  0  0  0  0
 91 92  1  0  0  0  0
 92 93  2  0  0  0  0
 93 94  1  0  0  0  0
 94 95  2  0  0  0  0
 95 96  1  0  0  0  0
 96 97  2  0  0  0  0
 97 98  1  0  0  0  0
 98 99  3  0  0  0  0
 97100  1  0  0  0  0
100101  3  0  0  0  0
 93102  1  0  0  0  0
102103  1  0  0  0  0
103104  1  0  0  0  0
104105  2  0  0  0  0
105106  1  0  0  0  0
106107  1  0  0  0  0
106108  1  0  0  0  0
 11  2  1  0  0  0  0
 23 17  1  0  0  0  0
 65 24  1  0  0  0  0
 76 66  2  0  0  0  0
 85 78  1  0  0  0  0
 96 87  1  0  0  0  0
108102  1  0  0  0  0
 10  5  1  0  0  0  0
 22 18  1  0  0  0  0
 34 27  1  0  0  0  0
 42 35  1  0  0  0  0
 64 43  2  0  0  0  0
 73 67  1  0  0  0  0
 95 90  1  0  0  0  0
107103  1  0  0  0  0
 23  7  1  0  0  0  0
 55 48  1  0  0  0  0
 63 56  1  0  0  0  0
108 92  1  0  0  0  0
  1109  1  0  0  0  0
  6110  1  0  0  0  0
  9111  1  0  0  0  0
 17112  1  0  0  0  0
 18113  1  0  0  0  0
 19114  1  0  0  0  0
 20115  1  0  0  0  0
 21116  1  0  0  0  0
 22117  1  0  0  0  0
 22118  1  0  0  0  0
 23119  1  0  0  0  0
 28120  1  0  0  0  0
 29121  1  0  0  0  0
 32122  1  0  0  0  0
 32123  1  0  0  0  0
 32124  1  0  0  0  0
 33125  1  0  0  0  0
 34126  1  0  0  0  0
 36127  1  0  0  0  0
 37128  1  0  0  0  0
 40129  1  0  0  0  0
 40130  1  0  0  0  0
 40131  1  0  0  0  0
 41132  1  0  0  0  0
 42133  1  0  0  0  0
 49134  1  0  0  0  0
 50135  1  0  0  0  0
 53136  1  0  0  0  0
 53137  1  0  0  0  0
 53138  1  0  0  0  0
 54139  1  0  0  0  0
 55140  1  0  0  0  0
 57141  1  0  0  0  0
 58142  1  0  0  0  0
 61143  1  0  0  0  0
 61144  1  0  0  0  0
 61145  1  0  0  0  0
 62146  1  0  0  0  0
 63147  1  0  0  0  0
 70148  1  0  0  0  0
 70149  1  0  0  0  0
 71150  1  0  0  0  0
 71151  1  0  0  0  0
 71152  1  0  0  0  0
 76153  1  0  0  0  0
 79154  1  0  0  0  0
 82155  1  0  0  0  0
 82156  1  0  0  0  0
 83157  1  0  0  0  0
 83158  1  0  0  0  0
 83159  1  0  0  0  0
 86160  1  0  0  0  0
 91161  1  0  0  0  0
 94162  1  0  0  0  0
102163  1  0  0  0  0
103164  1  0  0  0  0
104165  1  0  0  0  0
105166  1  0  0  0  0
106167  1  0  0  0  0
107168  1  0  0  0  0
107169  1  0  0  0  0
108170  1  0  0  0  0
M  END
