
  xtb     02082210543D
 energy: -416.943329687049 gnorm: 0.000285824637 xtb: 6.4.1 (unknown)
256281  0     0  0            999 V2000
   -7.2495    0.9862   -0.1352 C   0  0  0  0  0  0  0  0  0  0  0  0
   -7.4495    0.6035   -1.4243 C   0  0  0  0  0  0  0  0  0  0  0  0
   -8.6516    1.0977   -2.1544 C   0  0  0  0  0  0  0  0  0  0  0  0
   -9.5803    1.7099   -1.6776 O   0  0  0  0  0  0  0  0  0  0  0  0
   -8.4391    0.7203   -3.5628 C   0  0  0  0  0  0  0  0  0  0  0  0
   -9.2110    1.0904   -4.6630 C   0  0  0  0  0  0  0  0  0  0  0  0
   -8.7548    0.5931   -5.8602 C   0  0  0  0  0  0  0  0  0  0  0  0
   -7.6216   -0.2266   -5.9579 C   0  0  0  0  0  0  0  0  0  0  0  0
   -6.8588   -0.6069   -4.8816 C   0  0  0  0  0  0  0  0  0  0  0  0
   -7.2903   -0.0913   -3.6565 C   0  0  0  0  0  0  0  0  0  0  0  0
   -6.7076   -0.2471   -2.3269 C   0  0  0  0  0  0  0  0  0  0  0  0
   -5.7655   -1.1862   -1.9919 C   0  0  0  0  0  0  0  0  0  0  0  0
   -5.1721   -2.0928   -2.8915 C   0  0  0  0  0  0  0  0  0  0  0  0
   -4.6233   -2.8652   -3.5427 N   0  0  0  0  0  0  0  0  0  0  0  0
   -5.2686   -1.4328   -0.6977 C   0  0  0  0  0  0  0  0  0  0  0  0
   -4.8033   -1.7304    0.3093 N   0  0  0  0  0  0  0  0  0  0  0  0
   -7.7430   -0.3559   -7.4547 C   0  0  0  0  0  0  0  0  0  0  0  0
   -8.3209   -1.6836   -7.9877 C   0  0  0  0  0  0  0  0  0  0  0  0
   -8.7657   -1.3468   -9.3925 C   0  0  0  0  0  0  0  0  0  0  0  0
   -9.8407   -0.5744   -9.3011 C   0  0  0  0  0  0  0  0  0  0  0  0
  -10.1405   -0.3758   -7.8327 C   0  0  0  0  0  0  0  0  0  0  0  0
   -9.6836   -1.7339   -7.2845 C   0  0  0  0  0  0  0  0  0  0  0  0
   -9.0088    0.5546   -7.3471 C   0  0  0  0  0  0  0  0  0  0  0  0
   -6.0359    0.9705    0.6052 C   0  0  0  0  0  0  0  0  0  0  0  0
   -4.7898    1.4651    0.2410 C   0  0  0  0  0  0  0  0  0  0  0  0
   -4.5298    2.2527   -0.8870 N   0  0  0  0  0  0  0  0  0  0  0  0
   -4.2764    1.6801   -2.1424 C   0  0  0  0  0  0  0  0  0  0  0  0
   -4.8493    2.2341   -3.2879 C   0  0  0  0  0  0  0  0  0  0  0  0
   -4.5968    1.6824   -4.5226 C   0  0  0  0  0  0  0  0  0  0  0  0
   -3.7568    0.5749   -4.6441 C   0  0  0  0  0  0  0  0  0  0  0  0
   -3.5213   -0.0635   -6.2721 S   0  0  0  0  0  0  0  0  0  0  0  0
   -2.7197   -1.6690   -5.9912 C   0  0  0  0  0  0  0  0  0  0  0  0
   -3.1653    0.0377   -3.5101 C   0  0  0  0  0  0  0  0  0  0  0  0
   -3.4367    0.5791   -2.2662 C   0  0  0  0  0  0  0  0  0  0  0  0
   -4.2380    3.6008   -0.6600 C   0  0  0  0  0  0  0  0  0  0  0  0
   -4.8040    4.2670    0.4251 C   0  0  0  0  0  0  0  0  0  0  0  0
   -4.5289    5.5996    0.6629 C   0  0  0  0  0  0  0  0  0  0  0  0
   -3.6840    6.2989   -0.1868 C   0  0  0  0  0  0  0  0  0  0  0  0
   -3.2659    8.0039    0.0001 S   0  0  0  0  0  0  0  0  0  0  0  0
   -4.1700    8.5176    1.4879 C   0  0  0  0  0  0  0  0  0  0  0  0
   -3.1119    5.6365   -1.2715 C   0  0  0  0  0  0  0  0  0  0  0  0
   -3.3771    4.3067   -1.5033 C   0  0  0  0  0  0  0  0  0  0  0  0
   -3.8524    1.2698    1.2748 C   0  0  0  0  0  0  0  0  0  0  0  0
   -2.1638    1.5635    1.3832 S   0  0  0  0  0  0  0  0  0  0  0  0
   -2.0986    0.7300    2.9387 C   0  0  0  0  0  0  0  0  0  0  0  0
   -3.3483    0.3108    3.3709 C   0  0  0  0  0  0  0  0  0  0  0  0
   -3.6291   -0.3017    4.5784 N   0  0  0  0  0  0  0  0  0  0  0  0
   -2.8913   -0.0207    5.7343 C   0  0  0  0  0  0  0  0  0  0  0  0
   -2.3136    1.2290    5.9424 C   0  0  0  0  0  0  0  0  0  0  0  0
   -1.5980    1.4988    7.0946 C   0  0  0  0  0  0  0  0  0  0  0  0
   -1.4577    0.5246    8.0717 C   0  0  0  0  0  0  0  0  0  0  0  0
   -0.5352    0.7331    9.5646 S   0  0  0  0  0  0  0  0  0  0  0  0
    0.1422    2.4121    9.4311 C   0  0  0  0  0  0  0  0  0  0  0  0
   -2.0499   -0.7224    7.8793 C   0  0  0  0  0  0  0  0  0  0  0  0
   -2.7485   -0.9935    6.7264 C   0  0  0  0  0  0  0  0  0  0  0  0
   -4.7416   -1.1611    4.6507 C   0  0  0  0  0  0  0  0  0  0  0  0
   -5.5768   -1.1627    5.7682 C   0  0  0  0  0  0  0  0  0  0  0  0
   -6.6650   -2.0049    5.8192 C   0  0  0  0  0  0  0  0  0  0  0  0
   -6.9555   -2.8544    4.7529 C   0  0  0  0  0  0  0  0  0  0  0  0
   -8.3721   -3.8963    4.9261 S   0  0  0  0  0  0  0  0  0  0  0  0
   -8.6735   -4.4825    3.2336 C   0  0  0  0  0  0  0  0  0  0  0  0
   -6.1333   -2.8491    3.6370 C   0  0  0  0  0  0  0  0  0  0  0  0
   -5.0372   -2.0102    3.5891 C   0  0  0  0  0  0  0  0  0  0  0  0
   -4.3398    0.6258    2.4009 C   0  0  0  0  0  0  0  0  0  0  0  0
   -6.0427    0.3583    2.2526 S   0  0  0  0  0  0  0  0  0  0  0  0
   -0.7686    0.5910    3.4538 C   0  0  0  0  0  0  0  0  0  0  0  0
   -0.0597   -0.5060    3.9118 C   0  0  0  0  0  0  0  0  0  0  0  0
   -0.5455   -1.7388    4.3329 N   0  0  0  0  0  0  0  0  0  0  0  0
   -1.4134   -2.4951    3.5416 C   0  0  0  0  0  0  0  0  0  0  0  0
   -2.2158   -3.4829    4.1092 C   0  0  0  0  0  0  0  0  0  0  0  0
   -3.0222   -4.2813    3.3229 C   0  0  0  0  0  0  0  0  0  0  0  0
   -3.0641   -4.0907    1.9482 C   0  0  0  0  0  0  0  0  0  0  0  0
   -4.0892   -5.0224    0.8521 S   0  0  0  0  0  0  0  0  0  0  0  0
   -4.6490   -6.4132    1.8790 C   0  0  0  0  0  0  0  0  0  0  0  0
   -2.2879   -3.0848    1.3793 C   0  0  0  0  0  0  0  0  0  0  0  0
   -1.4687   -2.3017    2.1611 C   0  0  0  0  0  0  0  0  0  0  0  0
    0.1108   -2.2987    5.4416 C   0  0  0  0  0  0  0  0  0  0  0  0
    0.3770   -3.6642    5.5442 C   0  0  0  0  0  0  0  0  0  0  0  0
    0.9809   -4.1717    6.6730 C   0  0  0  0  0  0  0  0  0  0  0  0
    1.3537   -3.3321    7.7207 C   0  0  0  0  0  0  0  0  0  0  0  0
    2.0771   -4.0925    9.1390 S   0  0  0  0  0  0  0  0  0  0  0  0
    2.1626   -2.7413   10.3495 C   0  0  0  0  0  0  0  0  0  0  0  0
    1.1512   -1.9654    7.5967 C   0  0  0  0  0  0  0  0  0  0  0  0
    0.5343   -1.4609    6.4710 C   0  0  0  0  0  0  0  0  0  0  0  0
    1.3381   -0.2578    3.8685 C   0  0  0  0  0  0  0  0  0  0  0  0
    2.6953   -1.3291    3.9238 S   0  0  0  0  0  0  0  0  0  0  0  0
    3.7275   -0.0717    3.2939 C   0  0  0  0  0  0  0  0  0  0  0  0
    3.0744    1.1214    3.1164 C   0  0  0  0  0  0  0  0  0  0  0  0
    3.7016    2.2731    2.6022 N   0  0  0  0  0  0  0  0  0  0  0  0
    4.2249    3.2166    3.4747 C   0  0  0  0  0  0  0  0  0  0  0  0
    4.3478    2.9419    4.8358 C   0  0  0  0  0  0  0  0  0  0  0  0
    4.8317    3.8929    5.7148 C   0  0  0  0  0  0  0  0  0  0  0  0
    5.2080    5.1432    5.2503 C   0  0  0  0  0  0  0  0  0  0  0  0
    5.8472    6.4396    6.2716 S   0  0  0  0  0  0  0  0  0  0  0  0
    5.9537    5.6848    7.9195 C   0  0  0  0  0  0  0  0  0  0  0  0
    5.0728    5.4313    3.8937 C   0  0  0  0  0  0  0  0  0  0  0  0
    4.5826    4.4893    3.0195 C   0  0  0  0  0  0  0  0  0  0  0  0
    3.9465    2.2741    1.2209 C   0  0  0  0  0  0  0  0  0  0  0  0
    5.2045    2.5560    0.6938 C   0  0  0  0  0  0  0  0  0  0  0  0
    5.4104    2.5059   -0.6703 C   0  0  0  0  0  0  0  0  0  0  0  0
    4.3731    2.1371   -1.5120 C   0  0  0  0  0  0  0  0  0  0  0  0
    4.6503    2.0259   -3.2689 S   0  0  0  0  0  0  0  0  0  0  0  0
    3.6502    3.4544   -3.8037 C   0  0  0  0  0  0  0  0  0  0  0  0
    3.1188    1.8502   -0.9988 C   0  0  0  0  0  0  0  0  0  0  0  0
    2.9028    1.9419    0.3599 C   0  0  0  0  0  0  0  0  0  0  0  0
    1.7000    1.0036    3.4350 C   0  0  0  0  0  0  0  0  0  0  0  0
    0.3027    1.9595    3.0979 S   0  0  0  0  0  0  0  0  0  0  0  0
    5.0127   -0.4410    2.7002 C   0  0  0  0  0  0  0  0  0  0  0  0
    6.2549   -0.2599    3.2538 C   0  0  0  0  0  0  0  0  0  0  0  0
    7.4086   -0.6504    2.5639 C   0  0  0  0  0  0  0  0  0  0  0  0
    7.3527   -1.1913    1.2958 C   0  0  0  0  0  0  0  0  0  0  0  0
    6.0756   -1.3900    0.6983 C   0  0  0  0  0  0  0  0  0  0  0  0
    5.9621   -1.9068   -0.5369 N   0  0  0  0  0  0  0  0  0  0  0  0
    4.7802   -2.0147   -1.0888 C   0  0  0  0  0  0  0  0  0  0  0  0
    4.7482   -2.4532   -2.4888 C   0  0  0  0  0  0  0  0  0  0  0  0
    5.4490   -3.5872   -2.8770 C   0  0  0  0  0  0  0  0  0  0  0  0
    5.3728   -4.0124   -4.1917 C   0  0  0  0  0  0  0  0  0  0  0  0
    4.6400   -3.2965   -5.1148 C   0  0  0  0  0  0  0  0  0  0  0  0
    3.9835   -2.1196   -4.7445 C   0  0  0  0  0  0  0  0  0  0  0  0
    3.3521   -1.4656   -5.7532 O   0  0  0  0  0  0  0  0  0  0  0  0
    2.5658   -0.3232   -5.4694 C   0  0  0  0  0  0  0  0  0  0  0  0
    1.2177   -0.6829   -4.8515 C   0  0  0  0  0  0  0  0  0  0  0  0
    4.0295   -1.7087   -3.4195 C   0  0  0  0  0  0  0  0  0  0  0  0
    3.5954   -1.7042   -0.3433 C   0  0  0  0  0  0  0  0  0  0  0  0
    3.6950   -1.2202    0.8706 N   0  0  0  0  0  0  0  0  0  0  0  0
    4.9110   -1.0214    1.4075 C   0  0  0  0  0  0  0  0  0  0  0  0
    2.2284   -1.9311   -0.8328 C   0  0  0  0  0  0  0  0  0  0  0  0
    1.2262   -1.0551   -0.4117 C   0  0  0  0  0  0  0  0  0  0  0  0
   -0.0664   -1.2138   -0.8628 C   0  0  0  0  0  0  0  0  0  0  0  0
   -0.4033   -2.2619   -1.7043 C   0  0  0  0  0  0  0  0  0  0  0  0
    0.5760   -3.1714   -2.0961 C   0  0  0  0  0  0  0  0  0  0  0  0
    0.3795   -4.2341   -2.9168 O   0  0  0  0  0  0  0  0  0  0  0  0
   -0.9287   -4.5622   -3.3505 C   0  0  0  0  0  0  0  0  0  0  0  0
   -1.7563   -5.2594   -2.2768 C   0  0  0  0  0  0  0  0  0  0  0  0
    1.8912   -2.9941   -1.6588 C   0  0  0  0  0  0  0  0  0  0  0  0
    8.5353   -1.6173    0.5746 C   0  0  0  0  0  0  0  0  0  0  0  0
    8.6729   -1.4503   -0.7559 C   0  0  0  0  0  0  0  0  0  0  0  0
    7.7708   -0.5970   -1.5886 C   0  0  0  0  0  0  0  0  0  0  0  0
    7.1421    0.3707   -1.2191 O   0  0  0  0  0  0  0  0  0  0  0  0
    8.0377   -0.9896   -2.9838 C   0  0  0  0  0  0  0  0  0  0  0  0
    7.3646   -0.5534   -4.1230 C   0  0  0  0  0  0  0  0  0  0  0  0
    7.9386   -0.9627   -5.3019 C   0  0  0  0  0  0  0  0  0  0  0  0
    9.1149   -1.7261   -5.3499 C   0  0  0  0  0  0  0  0  0  0  0  0
    9.7791   -2.1768   -4.2362 C   0  0  0  0  0  0  0  0  0  0  0  0
    9.1997   -1.7903   -3.0202 C   0  0  0  0  0  0  0  0  0  0  0  0
    9.6526   -2.0421   -1.6574 C   0  0  0  0  0  0  0  0  0  0  0  0
   10.7936   -2.7021   -1.2907 C   0  0  0  0  0  0  0  0  0  0  0  0
   11.2224   -2.8797    0.0421 C   0  0  0  0  0  0  0  0  0  0  0  0
   11.6376   -3.0543    1.0983 N   0  0  0  0  0  0  0  0  0  0  0  0
   11.7207   -3.2704   -2.1899 C   0  0  0  0  0  0  0  0  0  0  0  0
   12.5163   -3.7583   -2.8585 N   0  0  0  0  0  0  0  0  0  0  0  0
    9.1779   -1.6815   -6.8582 C   0  0  0  0  0  0  0  0  0  0  0  0
    8.7677   -2.9583   -7.6179 C   0  0  0  0  0  0  0  0  0  0  0  0
    8.4466   -2.4717   -9.0127 C   0  0  0  0  0  0  0  0  0  0  0  0
    7.3104   -1.7889   -8.9505 C   0  0  0  0  0  0  0  0  0  0  0  0
    6.8461   -1.7967   -7.5118 C   0  0  0  0  0  0  0  0  0  0  0  0
    7.3495   -3.1805   -7.0808 C   0  0  0  0  0  0  0  0  0  0  0  0
    7.8492   -0.8606   -6.8032 C   0  0  0  0  0  0  0  0  0  0  0  0
   -8.1188    1.3990    0.3696 H   0  0  0  0  0  0  0  0  0  0  0  0
  -10.0805    1.7177   -4.5440 H   0  0  0  0  0  0  0  0  0  0  0  0
   -5.9874   -1.2316   -4.9736 H   0  0  0  0  0  0  0  0  0  0  0  0
   -6.8884   -0.0010   -8.0273 H   0  0  0  0  0  0  0  0  0  0  0  0
   -7.6655   -2.5426   -7.8737 H   0  0  0  0  0  0  0  0  0  0  0  0
   -8.2377   -1.6490  -10.2778 H   0  0  0  0  0  0  0  0  0  0  0  0
  -10.3903   -0.1028  -10.0945 H   0  0  0  0  0  0  0  0  0  0  0  0
  -11.1437   -0.0442   -7.5787 H   0  0  0  0  0  0  0  0  0  0  0  0
   -9.6214   -1.7762   -6.1986 H   0  0  0  0  0  0  0  0  0  0  0  0
  -10.3035   -2.5526   -7.6459 H   0  0  0  0  0  0  0  0  0  0  0  0
   -9.0031    1.5178   -7.8538 H   0  0  0  0  0  0  0  0  0  0  0  0
   -5.4968    3.0929   -3.1935 H   0  0  0  0  0  0  0  0  0  0  0  0
   -5.0524    2.0952   -5.4097 H   0  0  0  0  0  0  0  0  0  0  0  0
   -1.7018   -1.5205   -5.6420 H   0  0  0  0  0  0  0  0  0  0  0  0
   -3.3047   -2.2508   -5.2829 H   0  0  0  0  0  0  0  0  0  0  0  0
   -2.7078   -2.1622   -6.9581 H   0  0  0  0  0  0  0  0  0  0  0  0
   -2.4880   -0.7974   -3.5806 H   0  0  0  0  0  0  0  0  0  0  0  0
   -2.9820    0.1541   -1.3834 H   0  0  0  0  0  0  0  0  0  0  0  0
   -5.4751    3.7424    1.0889 H   0  0  0  0  0  0  0  0  0  0  0  0
   -4.9895    6.0784    1.5118 H   0  0  0  0  0  0  0  0  0  0  0  0
   -5.2388    8.4041    1.3314 H   0  0  0  0  0  0  0  0  0  0  0  0
   -3.9279    9.5664    1.6281 H   0  0  0  0  0  0  0  0  0  0  0  0
   -3.8312    7.9434    2.3453 H   0  0  0  0  0  0  0  0  0  0  0  0
   -2.4469    6.1794   -1.9255 H   0  0  0  0  0  0  0  0  0  0  0  0
   -2.9118    3.8056   -2.3383 H   0  0  0  0  0  0  0  0  0  0  0  0
   -2.4364    2.0116    5.2091 H   0  0  0  0  0  0  0  0  0  0  0  0
   -1.1645    2.4789    7.2140 H   0  0  0  0  0  0  0  0  0  0  0  0
    0.7672    2.4912    8.5461 H   0  0  0  0  0  0  0  0  0  0  0  0
   -0.6645    3.1390    9.4110 H   0  0  0  0  0  0  0  0  0  0  0  0
    0.7441    2.5566   10.3230 H   0  0  0  0  0  0  0  0  0  0  0  0
   -1.9417   -1.4800    8.6401 H   0  0  0  0  0  0  0  0  0  0  0  0
   -3.1929   -1.9662    6.5868 H   0  0  0  0  0  0  0  0  0  0  0  0
   -5.3755   -0.4949    6.5925 H   0  0  0  0  0  0  0  0  0  0  0  0
   -7.3130   -2.0048    6.6821 H   0  0  0  0  0  0  0  0  0  0  0  0
   -8.7056   -3.6352    2.5553 H   0  0  0  0  0  0  0  0  0  0  0  0
   -7.9097   -5.1949    2.9350 H   0  0  0  0  0  0  0  0  0  0  0  0
   -9.6406   -4.9748    3.2611 H   0  0  0  0  0  0  0  0  0  0  0  0
   -6.3263   -3.4855    2.7889 H   0  0  0  0  0  0  0  0  0  0  0  0
   -4.4138   -2.0147    2.7113 H   0  0  0  0  0  0  0  0  0  0  0  0
   -2.2032   -3.6352    5.1773 H   0  0  0  0  0  0  0  0  0  0  0  0
   -3.6237   -5.0365    3.8018 H   0  0  0  0  0  0  0  0  0  0  0  0
   -5.3067   -6.0625    2.6694 H   0  0  0  0  0  0  0  0  0  0  0  0
   -3.7897   -6.9339    2.2906 H   0  0  0  0  0  0  0  0  0  0  0  0
   -5.1952   -7.0712    1.2102 H   0  0  0  0  0  0  0  0  0  0  0  0
   -2.3289   -2.9256    0.3137 H   0  0  0  0  0  0  0  0  0  0  0  0
   -0.8395   -1.5590    1.6965 H   0  0  0  0  0  0  0  0  0  0  0  0
    0.1153   -4.3271    4.7339 H   0  0  0  0  0  0  0  0  0  0  0  0
    1.1757   -5.2301    6.7546 H   0  0  0  0  0  0  0  0  0  0  0  0
    1.1836   -2.2855   10.4645 H   0  0  0  0  0  0  0  0  0  0  0  0
    2.4693   -3.2039   11.2825 H   0  0  0  0  0  0  0  0  0  0  0  0
    2.9038   -2.0093   10.0419 H   0  0  0  0  0  0  0  0  0  0  0  0
    1.4521   -1.2817    8.3730 H   0  0  0  0  0  0  0  0  0  0  0  0
    0.3739   -0.3972    6.3892 H   0  0  0  0  0  0  0  0  0  0  0  0
    4.0619    1.9722    5.2165 H   0  0  0  0  0  0  0  0  0  0  0  0
    4.9116    3.6374    6.7595 H   0  0  0  0  0  0  0  0  0  0  0  0
    6.3796    6.4482    8.5630 H   0  0  0  0  0  0  0  0  0  0  0  0
    6.6096    4.8195    7.8898 H   0  0  0  0  0  0  0  0  0  0  0  0
    4.9618    5.4173    8.2728 H   0  0  0  0  0  0  0  0  0  0  0  0
    5.3503    6.4112    3.5363 H   0  0  0  0  0  0  0  0  0  0  0  0
    4.4635    4.7366    1.9760 H   0  0  0  0  0  0  0  0  0  0  0  0
    6.0204    2.8047    1.3556 H   0  0  0  0  0  0  0  0  0  0  0  0
    6.3822    2.7186   -1.0832 H   0  0  0  0  0  0  0  0  0  0  0  0
    3.7133    3.4928   -4.8860 H   0  0  0  0  0  0  0  0  0  0  0  0
    4.0655    4.3600   -3.3713 H   0  0  0  0  0  0  0  0  0  0  0  0
    2.6190    3.3211   -3.4909 H   0  0  0  0  0  0  0  0  0  0  0  0
    2.3103    1.5643   -1.6571 H   0  0  0  0  0  0  0  0  0  0  0  0
    1.9182    1.7684    0.7653 H   0  0  0  0  0  0  0  0  0  0  0  0
    6.3472    0.1888    4.2319 H   0  0  0  0  0  0  0  0  0  0  0  0
    8.3731   -0.4907    3.0232 H   0  0  0  0  0  0  0  0  0  0  0  0
    6.0175   -4.1384   -2.1439 H   0  0  0  0  0  0  0  0  0  0  0  0
    5.8832   -4.9142   -4.4962 H   0  0  0  0  0  0  0  0  0  0  0  0
    4.5641   -3.6218   -6.1397 H   0  0  0  0  0  0  0  0  0  0  0  0
    3.1187    0.3782   -4.8343 H   0  0  0  0  0  0  0  0  0  0  0  0
    2.4108    0.1430   -6.4468 H   0  0  0  0  0  0  0  0  0  0  0  0
    0.7106   -1.4032   -5.4904 H   0  0  0  0  0  0  0  0  0  0  0  0
    0.6040    0.2103   -4.7623 H   0  0  0  0  0  0  0  0  0  0  0  0
    1.3416   -1.1270   -3.8664 H   0  0  0  0  0  0  0  0  0  0  0  0
    3.5391   -0.8082   -3.0873 H   0  0  0  0  0  0  0  0  0  0  0  0
    1.4865   -0.2595    0.2642 H   0  0  0  0  0  0  0  0  0  0  0  0
   -0.8299   -0.5129   -0.5565 H   0  0  0  0  0  0  0  0  0  0  0  0
   -1.4253   -2.3658   -2.0338 H   0  0  0  0  0  0  0  0  0  0  0  0
   -0.7678   -5.2389   -4.1942 H   0  0  0  0  0  0  0  0  0  0  0  0
   -1.4498   -3.6719   -3.7227 H   0  0  0  0  0  0  0  0  0  0  0  0
   -1.2757   -6.1881   -1.9806 H   0  0  0  0  0  0  0  0  0  0  0  0
   -2.7464   -5.4775   -2.6661 H   0  0  0  0  0  0  0  0  0  0  0  0
   -1.8638   -4.6350   -1.3939 H   0  0  0  0  0  0  0  0  0  0  0  0
    2.6243   -3.7207   -1.9703 H   0  0  0  0  0  0  0  0  0  0  0  0
    9.2794   -2.1524    1.1494 H   0  0  0  0  0  0  0  0  0  0  0  0
    6.4885    0.0704   -4.0434 H   0  0  0  0  0  0  0  0  0  0  0  0
   10.6844   -2.7588   -4.2871 H   0  0  0  0  0  0  0  0  0  0  0  0
   10.0640   -1.2031   -7.2714 H   0  0  0  0  0  0  0  0  0  0  0  0
    9.4712   -3.7825   -7.5374 H   0  0  0  0  0  0  0  0  0  0  0  0
    9.0852   -2.6240   -9.8631 H   0  0  0  0  0  0  0  0  0  0  0  0
    6.8125   -1.2558   -9.7393 H   0  0  0  0  0  0  0  0  0  0  0  0
    5.8012   -1.5632   -7.3286 H   0  0  0  0  0  0  0  0  0  0  0  0
    7.3074   -3.3481   -6.0072 H   0  0  0  0  0  0  0  0  0  0  0  0
    6.8340   -3.9864   -7.6007 H   0  0  0  0  0  0  0  0  0  0  0  0
    7.8406    0.1500   -7.2078 H   0  0  0  0  0  0  0  0  0  0  0  0
  1  2  2  0  0  0  0
  2  3  1  0  0  0  0
  3  4  2  0  0  0  0
  3  5  1  0  0  0  0
  5  6  2  0  0  0  0
  6  7  1  0  0  0  0
  7  8  2  0  0  0  0
  8  9  1  0  0  0  0
  9 10  2  0  0  0  0
 10 11  1  0  0  0  0
 11 12  2  0  0  0  0
 12 13  1  0  0  0  0
 13 14  3  0  0  0  0
 12 15  1  0  0  0  0
 15 16  3  0  0  0  0
  8 17  1  0  0  0  0
 17 18  1  0  0  0  0
 18 19  1  0  0  0  0
 19 20  2  0  0  0  0
 20 21  1  0  0  0  0
 21 22  1  0  0  0  0
 21 23  1  0  0  0  0
  1 24  1  0  0  0  0
 24 25  2  0  0  0  0
 25 26  1  0  0  0  0
 26 27  1  0  0  0  0
 27 28  2  0  0  0  0
 28 29  1  0  0  0  0
 29 30  2  0  0  0  0
 30 31  1  0  0  0  0
 31 32  1  0  0  0  0
 30 33  1  0  0  0  0
 33 34  2  0  0  0  0
 26 35  1  0  0  0  0
 35 36  2  0  0  0  0
 36 37  1  0  0  0  0
 37 38  2  0  0  0  0
 38 39  1  0  0  0  0
 39 40  1  0  0  0  0
 38 41  1  0  0  0  0
 41 42  2  0  0  0  0
 25 43  1  0  0  0  0
 43 44  1  0  0  0  0
 44 45  1  0  0  0  0
 45 46  2  0  0  0  0
 46 47  1  0  0  0  0
 47 48  1  0  0  0  0
 48 49  2  0  0  0  0
 49 50  1  0  0  0  0
 50 51  2  0  0  0  0
 51 52  1  0  0  0  0
 52 53  1  0  0  0  0
 51 54  1  0  0  0  0
 54 55  2  0  0  0  0
 47 56  1  0  0  0  0
 56 57  2  0  0  0  0
 57 58  1  0  0  0  0
 58 59  2  0  0  0  0
 59 60  1  0  0  0  0
 60 61  1  0  0  0  0
 59 62  1  0  0  0  0
 62 63  2  0  0  0  0
 46 64  1  0  0  0  0
 64 65  1  0  0  0  0
 45 66  1  0  0  0  0
 66 67  2  0  0  0  0
 67 68  1  0  0  0  0
 68 69  1  0  0  0  0
 69 70  2  0  0  0  0
 70 71  1  0  0  0  0
 71 72  2  0  0  0  0
 72 73  1  0  0  0  0
 73 74  1  0  0  0  0
 72 75  1  0  0  0  0
 75 76  2  0  0  0  0
 68 77  1  0  0  0  0
 77 78  2  0  0  0  0
 78 79  1  0  0  0  0
 79 80  2  0  0  0  0
 80 81  1  0  0  0  0
 81 82  1  0  0  0  0
 80 83  1  0  0  0  0
 83 84  2  0  0  0  0
 67 85  1  0  0  0  0
 85 86  1  0  0  0  0
 86 87  1  0  0  0  0
 87 88  2  0  0  0  0
 88 89  1  0  0  0  0
 89 90  1  0  0  0  0
 90 91  2  0  0  0  0
 91 92  1  0  0  0  0
 92 93  2  0  0  0  0
 93 94  1  0  0  0  0
 94 95  1  0  0  0  0
 93 96  1  0  0  0  0
 96 97  2  0  0  0  0
 89 98  1  0  0  0  0
 98 99  2  0  0  0  0
 99100  1  0  0  0  0
100101  2  0  0  0  0
101102  1  0  0  0  0
102103  1  0  0  0  0
101104  1  0  0  0  0
104105  2  0  0  0  0
 88106  1  0  0  0  0
106107  1  0  0  0  0
 87108  1  0  0  0  0
108109  2  0  0  0  0
109110  1  0  0  0  0
110111  2  0  0  0  0
111112  1  0  0  0  0
112113  2  0  0  0  0
113114  1  0  0  0  0
114115  1  0  0  0  0
115116  2  0  0  0  0
116117  1  0  0  0  0
117118  2  0  0  0  0
118119  1  0  0  0  0
119120  1  0  0  0  0
120121  1  0  0  0  0
121122  1  0  0  0  0
119123  2  0  0  0  0
114124  2  0  0  0  0
124125  1  0  0  0  0
125126  2  0  0  0  0
124127  1  0  0  0  0
127128  2  0  0  0  0
128129  1  0  0  0  0
129130  2  0  0  0  0
130131  1  0  0  0  0
131132  1  0  0  0  0
132133  1  0  0  0  0
133134  1  0  0  0  0
131135  2  0  0  0  0
111136  1  0  0  0  0
136137  2  0  0  0  0
137138  1  0  0  0  0
138139  2  0  0  0  0
138140  1  0  0  0  0
140141  2  0  0  0  0
141142  1  0  0  0  0
142143  2  0  0  0  0
143144  1  0  0  0  0
144145  2  0  0  0  0
145146  1  0  0  0  0
146147  2  0  0  0  0
147148  1  0  0  0  0
148149  3  0  0  0  0
147150  1  0  0  0  0
150151  3  0  0  0  0
143152  1  0  0  0  0
152153  1  0  0  0  0
153154  1  0  0  0  0
154155  2  0  0  0  0
155156  1  0  0  0  0
156157  1  0  0  0  0
156158  1  0  0  0  0
 11  2  1  0  0  0  0
 23 17  1  0  0  0  0
 65 24  1  0  0  0  0
107 66  1  0  0  0  0
126108  1  0  0  0  0
135127  1  0  0  0  0
146137  1  0  0  0  0
158152  1  0  0  0  0
 10  5  1  0  0  0  0
 22 18  1  0  0  0  0
 34 27  1  0  0  0  0
 42 35  1  0  0  0  0
 64 43  2  0  0  0  0
 76 69  1  0  0  0  0
 84 77  1  0  0  0  0
106 85  2  0  0  0  0
126112  1  0  0  0  0
145140  1  0  0  0  0
157153  1  0  0  0  0
 23  7  1  0  0  0  0
 55 48  1  0  0  0  0
 63 56  1  0  0  0  0
 97 90  1  0  0  0  0
105 98  1  0  0  0  0
123115  1  0  0  0  0
158142  1  0  0  0  0
  1159  1  0  0  0  0
  6160  1  0  0  0  0
  9161  1  0  0  0  0
 17162  1  0  0  0  0
 18163  1  0  0  0  0
 19164  1  0  0  0  0
 20165  1  0  0  0  0
 21166  1  0  0  0  0
 22167  1  0  0  0  0
 22168  1  0  0  0  0
 23169  1  0  0  0  0
 28170  1  0  0  0  0
 29171  1  0  0  0  0
 32172  1  0  0  0  0
 32173  1  0  0  0  0
 32174  1  0  0  0  0
 33175  1  0  0  0  0
 34176  1  0  0  0  0
 36177  1  0  0  0  0
 37178  1  0  0  0  0
 40179  1  0  0  0  0
 40180  1  0  0  0  0
 40181  1  0  0  0  0
 41182  1  0  0  0  0
 42183  1  0  0  0  0
 49184  1  0  0  0  0
 50185  1  0  0  0  0
 53186  1  0  0  0  0
 53187  1  0  0  0  0
 53188  1  0  0  0  0
 54189  1  0  0  0  0
 55190  1  0  0  0  0
 57191  1  0  0  0  0
 58192  1  0  0  0  0
 61193  1  0  0  0  0
 61194  1  0  0  0  0
 61195  1  0  0  0  0
 62196  1  0  0  0  0
 63197  1  0  0  0  0
 70198  1  0  0  0  0
 71199  1  0  0  0  0
 74200  1  0  0  0  0
 74201  1  0  0  0  0
 74202  1  0  0  0  0
 75203  1  0  0  0  0
 76204  1  0  0  0  0
 78205  1  0  0  0  0
 79206  1  0  0  0  0
 82207  1  0  0  0  0
 82208  1  0  0  0  0
 82209  1  0  0  0  0
 83210  1  0  0  0  0
 84211  1  0  0  0  0
 91212  1  0  0  0  0
 92213  1  0  0  0  0
 95214  1  0  0  0  0
 95215  1  0  0  0  0
 95216  1  0  0  0  0
 96217  1  0  0  0  0
 97218  1  0  0  0  0
 99219  1  0  0  0  0
100220  1  0  0  0  0
103221  1  0  0  0  0
103222  1  0  0  0  0
103223  1  0  0  0  0
104224  1  0  0  0  0
105225  1  0  0  0  0
109226  1  0  0  0  0
110227  1  0  0  0  0
116228  1  0  0  0  0
117229  1  0  0  0  0
118230  1  0  0  0  0
121231  1  0  0  0  0
121232  1  0  0  0  0
122233  1  0  0  0  0
122234  1  0  0  0  0
122235  1  0  0  0  0
123236  1  0  0  0  0
128237  1  0  0  0  0
129238  1  0  0  0  0
130239  1  0  0  0  0
133240  1  0  0  0  0
133241  1  0  0  0  0
134242  1  0  0  0  0
134243  1  0  0  0  0
134244  1  0  0  0  0
135245  1  0  0  0  0
136246  1  0  0  0  0
141247  1  0  0  0  0
144248  1  0  0  0  0
152249  1  0  0  0  0
153250  1  0  0  0  0
154251  1  0  0  0  0
155252  1  0  0  0  0
156253  1  0  0  0  0
157254  1  0  0  0  0
157255  1  0  0  0  0
158256  1  0  0  0  0
M  END
