189

C          1.38650       -7.23530       -3.14570
C          2.36050       -6.55270       -3.77860
C          2.21780       -5.12960       -4.21420
O          1.21470       -4.44940       -4.16790
C          3.51060       -4.76180       -4.80190
C          3.88380       -3.50130       -5.26660
C          5.17690       -3.43450       -5.72320
C          6.03650       -4.54320       -5.73100
C          5.67980       -5.79270       -5.28650
C          4.36850       -5.88250       -4.80470
C          3.66980       -7.01980       -4.22100
C          4.16600       -8.28490       -4.07830
C          3.47770       -9.36320       -3.47940
N          2.99050      -10.28630       -3.00260
C          5.44230       -8.70110       -4.51740
N          6.46020       -9.11240       -4.85170
C          7.18570       -3.74840       -6.29890
C          8.29000       -3.33490       -5.30250
C          8.99930       -2.19690       -6.00040
C          8.18670       -1.14780       -5.98950
C          6.91430       -1.55960       -5.28470
C          7.48740       -2.54660       -4.25980
C          6.22910       -2.51320       -6.28750
C          0.22070       -6.54940       -2.61440
C          0.39790       -5.41600       -1.77130
N          1.61210       -5.10180       -1.30290
C          1.75780       -4.03710       -0.55240
C          3.09490       -3.78180        0.00150
C          3.30950       -3.34970        1.31250
C          4.57210       -3.03290        1.77540
C          5.72350       -3.13840        0.97200
O          6.87240       -2.79750        1.56180
C          8.08300       -2.64260        0.82550
C          8.07020       -1.39440       -0.04720
C          5.50750       -3.62020       -0.32290
C          4.23400       -3.92870       -0.78410
F          4.13240       -4.35430       -2.04600
F          6.52740       -3.80370       -1.18780
F          4.72000       -2.60060        3.03520
F          2.27950       -3.25370        2.16620
C          0.64820       -3.16940       -0.30350
C          0.74880       -1.88110        0.39690
C          1.73790       -0.93970        0.14150
F          2.66800       -1.17740       -0.79970
C          1.80790        0.27150        0.81990
F          2.81080        1.11190        0.48100
C          0.87930        0.60650        1.81010
O          0.83850        1.70020        2.57240
C          1.86960        2.68260        2.51870
C          1.61250        3.65150        3.65980
C         -0.13920       -0.33760        2.04190
F         -1.06000       -0.04050        2.96440
C         -0.20570       -1.53790        1.36160
F         -1.17680       -2.39340        1.67140
N         -0.55100       -3.51530       -0.69110
C         -0.72690       -4.65090       -1.37580
C         -2.04260       -5.02660       -1.75160
C         -2.18910       -6.19600       -2.45660
C         -1.07100       -6.93780       -2.89120
F         -1.28680       -8.01540       -3.65860
F         -3.40870       -6.62500       -2.81090
C         -3.13710       -4.18600       -1.22660
C         -3.90040       -3.25170       -1.90150
O         -3.87260       -3.03180       -3.24520
C         -2.71830       -3.27510       -4.03590
C         -1.54050       -2.37990       -3.66790
C         -4.80820       -2.39820       -1.16850
O         -5.69910       -1.52540       -1.68960
C         -5.76380       -1.11390       -3.04310
C         -4.70340       -0.07250       -3.38220
C         -4.86470       -2.44870        0.21610
C         -4.14030       -3.43370        0.90760
C         -3.27660       -4.30500        0.17480
N         -2.63780       -5.16600        0.96640
S         -3.08000       -4.87630        2.48720
N         -4.09950       -3.66530        2.21700
C         -5.52590       -1.39990        1.00020
C         -5.01880       -0.07580        0.92210
N         -4.10150        0.24100        0.00080
C         -3.57000        1.43770       -0.00980
C         -2.60980        1.72770       -1.08560
C         -1.62530        0.79700       -1.42480
C         -0.67100        1.07290       -2.38510
C         -0.64830        2.28080       -3.10860
O          0.34850        2.40430       -3.98800
C          0.40270        3.46780       -4.93540
C         -0.61460        3.29230       -6.05500
C         -1.65760        3.19480       -2.78530
C         -2.60230        2.91670       -1.80500
F         -3.54670        3.84590       -1.57820
F         -1.75620        4.38920       -3.40480
F          0.28050        0.16610       -2.64570
F         -1.57430       -0.37580       -0.79480
C         -3.93410        2.39820        0.97810
C         -3.30320        3.71360        1.15400
C         -4.07990        4.82130        1.49130
F         -5.40400        4.70520        1.59890
C         -3.53230        6.07850        1.70870
F         -4.38040        7.07030        2.03910
C         -2.15690        6.30790        1.59930
O         -1.48090        7.44480        1.80380
C         -2.12800        8.71680        1.78000
C         -2.62550        9.08410        0.38970
C         -1.37950        5.18150        1.28210
F         -0.04850        5.33560        1.18720
C         -1.92830        3.93010        1.07510
F         -1.09170        2.91420        0.80710
N         -4.88970        2.12230        1.82990
C         -5.45800        0.91450        1.84130
C         -6.46310        0.62530        2.80960
C         -6.98560       -0.64940        2.80390
C         -6.49750       -1.65300        1.94110
F         -7.02360       -2.87570        2.04900
F         -7.94250       -0.97550        3.67880
C         -6.90010        1.69770        3.68630
C         -6.00190        2.53660        4.23950
C         -4.52900        2.25780        4.25840
O         -3.99250        1.17610        4.22390
C         -3.89260        3.56310        4.51400
C         -2.52950        3.85170        4.46950
C         -2.22380        5.15450        4.78050
C         -3.20390        6.09840        5.12490
C         -4.54950        5.82720        5.17340
C         -4.88440        4.50530        4.85620
C         -6.19550        3.86310        4.80850
C         -7.38040        4.41010        5.20940
C         -8.62070        3.73600        5.16030
N         -9.65810        3.24630        5.14850
C         -7.51830        5.70210        5.76100
N         -7.69430        6.73730        6.22410
C         -2.18550        7.18280        5.37240
C         -1.82800        7.50570        6.84470
C         -2.07620        6.24650        7.63770
C         -1.14640        5.36390        7.29790
C         -0.25240        6.01060        6.26830
C         -0.29410        7.46890        6.75160
C         -1.09510        6.13820        4.97540
H          1.43960       -8.30500       -2.99700
H          3.19230       -2.67410       -5.23580
H          6.35320       -6.63320       -5.29830
H          7.57960       -4.09530       -7.25200
H          8.90910       -4.15280       -4.94510
H          9.96420       -2.28520       -6.46400
H          8.33780       -0.18550       -6.44250
H          6.27960       -0.76060       -4.91130
H          8.13230       -2.05650       -3.53220
H          6.73610       -3.13710       -3.74100
H          5.98520       -2.03330       -7.23350
H          8.29990       -3.53630        0.23470
H          8.83980       -2.54710        1.60760
H          7.33400       -1.47550       -0.84270
H          7.83630       -0.52120        0.55700
H          9.05040       -1.26120       -0.49520
H          1.83710        3.20400        1.55590
H          2.84910        2.20810        2.63790
H          2.36850        4.43060        3.65220
H          0.63250        4.10480        3.54930
H          1.64560        3.12520        4.60990
H         -2.42850       -4.32600       -3.99670
H         -3.06100       -3.05840       -5.05190
H         -1.43690       -2.31720       -2.58690
H         -0.62310       -2.79370       -4.07620
H         -1.68060       -1.37630       -4.06330
H         -5.70570       -1.96640       -3.72210
H         -6.75950       -0.66530       -3.12240
H         -3.71150       -0.48340       -3.22210
H         -4.82440        0.80090       -2.74630
H         -4.80400        0.22590       -4.42220
H          0.28850        4.43780       -4.44480
H          1.41690        3.39400       -5.33460
H         -0.50260        2.30970       -6.50700
H         -1.63140        3.39520       -5.68520
H         -0.44670        4.05080       -6.81340
H         -1.33690        9.40230        2.09260
H         -2.94200        8.75810        2.50820
H         -3.43440        8.42940        0.07590
H         -1.81360        9.00920       -0.32980
H         -2.99460       10.10490        0.40050
H         -7.96630        1.84730        3.78870
H         -1.81410        3.08310        4.21920
H         -5.28830        6.56640        5.43460
H         -2.27710        8.08350        4.76900
H         -2.28590        8.41270        7.22970
H         -2.91010        6.11220        8.30100
H         -1.04840        4.34420        7.62000
H          0.72480        5.55730        6.12600
H          0.11530        8.17660        6.03170
H          0.18880        7.60570        7.71770
H         -0.48310        6.35520        4.10200
