215

C         -1.91730       -3.98520       -6.12380
C         -1.09300       -4.25150       -7.19070
C         -1.28180       -5.46180       -8.01510
O         -2.16490       -6.29160       -7.90790
C         -0.11920       -5.51420       -8.92400
C          0.17050       -6.49110       -9.87280
C          1.31660       -6.25320      -10.59420
C          2.11080       -5.11600      -10.40050
C          1.84180       -4.14810       -9.46160
C          0.69220       -4.38240       -8.70540
C          0.07460       -3.56290       -7.66520
C          0.42140       -2.26430       -7.36030
C          1.60630       -1.63320       -7.77900
N          2.57710       -1.07610       -8.03990
C         -0.42210       -1.38160       -6.66640
N         -1.09950       -0.59530       -6.17000
C          3.05880       -5.48870      -11.51430
C          4.44680       -6.06470      -11.14590
C          4.29440       -6.71120       -9.79210
C          3.54840       -7.79760       -9.94310
C          3.18870       -7.90860      -11.40400
C          4.45600       -7.31450      -12.04070
C          2.18700       -6.76870      -11.71290
C         -1.64020       -3.23450       -4.97020
C         -0.42570       -2.95310       -4.31830
N          0.79910       -3.49890       -4.60970
C          1.96260       -2.86430       -4.11480
C          2.20110       -1.51950       -4.37600
C          3.31700       -0.89420       -3.85490
C          4.19890       -1.60210       -3.04980
S          5.60950       -0.89340       -2.27040
C          5.56500        0.84860       -2.78330
C          3.97600       -2.95810       -2.81070
C          2.87380       -3.58510       -3.34390
C          0.92570       -4.78650       -5.14980
C          0.01210       -5.79110       -4.83700
C          0.07470       -7.01700       -5.46130
C          1.06500       -7.26590       -6.40530
S          1.12890       -8.76370       -7.32760
C         -0.60830       -9.29880       -7.33090
C          2.04570       -6.30620       -6.63870
C          1.97640       -5.07560       -6.02110
C         -0.63520       -2.07900       -3.22970
S          0.39980       -1.42870       -2.01360
C         -0.95890       -0.59950       -1.26580
C         -2.15910       -0.85130       -1.91080
N         -3.40530       -0.39180       -1.52990
C         -4.41310       -0.26450       -2.50260
C         -5.71860       -0.65620       -2.21950
C         -6.71450       -0.53680       -3.16870
C         -6.41860       -0.03280       -4.42820
S         -7.60710        0.16890       -5.71840
C         -9.06380       -0.72770       -5.11010
C         -5.11320        0.35600       -4.71750
C         -4.12120        0.24260       -3.76930
C         -3.71170       -0.15250       -0.18430
C         -3.16140       -0.93410        0.83290
C         -3.44510       -0.65950        2.15190
C         -4.31190        0.37800        2.49010
S         -4.55710        0.66760        4.21480
C         -5.81270        1.97640        4.26580
C         -4.90390        1.12440        1.47970
C         -4.59170        0.86980        0.15840
C         -1.95470       -1.70550       -3.02570
S         -3.01160       -2.49170       -4.13970
C         -0.64480        0.12060       -0.06330
C         -0.83220        1.45090        0.26550
N         -1.39690        2.37980       -0.59590
C         -1.00400        2.32590       -1.94930
C         -1.90820        2.60020       -2.96800
C         -1.51170        2.57120       -4.29360
C         -0.20050        2.25540       -4.62320
S          0.44610        2.23220       -6.26200
C         -1.02550        2.37590       -7.30970
C          0.70480        1.97100       -3.60230
C          0.31310        2.00920       -2.28500
C         -2.06090        3.49430       -0.08220
C         -2.05670        4.71730       -0.75040
C         -2.71520        5.81400       -0.22940
C         -3.38020        5.71870        0.98480
S         -4.25330        7.04790        1.75590
C         -3.91300        8.47410        0.68740
C         -3.37940        4.50290        1.66200
C         -2.73590        3.40560        1.13740
C         -0.23000        1.75220        1.51420
S         -0.08040        3.17990        2.47830
C          0.94800        2.32870        3.63450
C          1.10740        0.98560        3.30260
N          1.79420        0.03060        4.02610
C          2.49080       -0.94850        3.30020
C          3.23220       -0.57850        2.17540
C          3.87340       -1.53130        1.41750
C          3.80240       -2.87690        1.77440
S          4.64320       -4.01020        0.71750
C          4.43360       -5.61720        1.53780
C          3.08970       -3.24730        2.90700
C          2.43630       -2.29100        3.65990
C          1.64830       -0.06790        5.41580
C          0.47140        0.34080        6.03820
C          0.34950        0.30380        7.41180
C          1.40450       -0.15340        8.19050
S          1.36810       -0.22030        9.95060
C         -0.11470        0.73290       10.38180
C          2.56970       -0.60170        7.56990
C          2.69490       -0.55670        6.20040
C          0.44170        0.68710        2.08870
S          0.32010       -0.73990        1.12980
C          1.52480        3.08320        4.68460
C          1.14120        4.35350        5.08230
C          1.90390        4.88560        6.11970
C          1.70860        6.24360        6.63010
C          2.78940        7.11020        6.78010
C          2.60180        8.37490        7.30370
C          1.33470        8.79370        7.67950
C          0.25110        7.95070        7.50420
C          0.43380        6.68380        6.97770
C          2.91230        4.01320        6.54650
S          2.90970        2.55590        5.58090
C          3.89380        4.12270        7.54760
C          3.95830        4.93670        8.64630
C          5.28380        5.23810        9.24310
O          6.33030        4.66950        9.02150
C          5.06120        6.41970       10.10220
C          5.98990        7.18240       10.76670
C          5.53130        8.29700       11.47770
C          6.27680        9.24660       12.23290
C          5.49870       10.20840       12.77410
S          3.81750       10.02680       12.40590
C          4.14830        8.59360       11.48410
C          3.20500        7.81430       10.82350
C          3.67560        6.71750       10.13200
C          2.96890        5.71200        9.34710
C          1.63190        5.41660        9.45560
C          0.72300        6.15580       10.23480
N         -0.06280        6.72200       10.85240
C          1.04390        4.28390        8.86860
N          0.52310        3.34930        8.44910
H         -2.89630       -4.45310       -6.16160
H         -0.48000       -7.33960      -10.01680
H          2.46180       -3.27830       -9.31820
H          3.10930       -4.78000      -12.33910
H          5.27090       -5.36440      -11.25460
H          4.69580       -6.29420       -8.88650
H          3.18830       -8.47100       -9.18770
H          2.87120       -8.89110      -11.74330
H          4.34590       -7.09050      -13.10090
H          5.33620       -7.93660      -11.88560
H          1.69420       -6.90550      -12.67400
H          1.50850       -0.95030       -4.97760
H          3.48240        0.14400       -4.08920
H          5.65900        0.92130       -3.86270
H          6.42230        1.31440       -2.30730
H          4.64950        1.31610       -2.43260
H          4.66630       -3.50240       -2.18550
H          2.69690       -4.63250       -3.14970
H         -0.76100       -5.60540       -4.10670
H         -0.65440       -7.77050       -5.21220
H         -0.85970       -9.77610       -6.38800
H         -0.69340      -10.02060       -8.13730
H         -1.24840       -8.44190       -7.52330
H          2.83350       -6.52090       -7.34270
H          2.71860       -4.31960       -6.23170
H         -5.95550       -1.06180       -1.24690
H         -7.71450       -0.84860       -2.91360
H         -9.49690       -0.21180       -4.25790
H         -9.77050       -0.73050       -5.93420
H         -8.78610       -1.74670       -4.85710
H         -4.88570        0.74410       -5.69820
H         -3.11270        0.53960       -4.00910
H         -2.52070       -1.76670        0.58660
H         -3.00400       -1.25340        2.93800
H         -6.71840        1.63950        3.77010
H         -6.01060        2.14950        5.31910
H         -5.42800        2.88420        3.81030
H         -5.58690        1.92730        1.70390
H         -5.03230        1.47780       -0.61740
H         -2.93070        2.84440       -2.71930
H         -2.23810        2.79460       -5.05820
H         -1.70560        1.56230       -7.07500
H         -1.49110        3.34790       -7.17420
H         -0.66750        2.27760       -8.33000
H          1.72470        1.73500       -3.86110
H          1.03110        1.80170       -1.50510
H         -1.52340        4.81860       -1.68340
H         -2.68910        6.74070       -0.77970
H         -2.84150        8.64070        0.62550
H         -4.34720        8.31690       -0.29570
H         -4.39130        9.32100        1.16950
H         -3.88730        4.43360        2.61180
H         -2.75760        2.46850        1.66860
H          3.29740        0.46450        1.90230
H          4.44000       -1.25030        0.54290
H          4.85910       -5.58200        2.53630
H          3.38230       -5.88870        1.56410
H          4.98220       -6.32930        0.92920
H          3.01960       -4.27960        3.20960
H          1.86670       -2.58890        4.52750
H         -0.35730        0.69510        5.44290
H         -0.57090        0.63800        7.85910
H         -0.06600        0.88550       11.45560
H         -1.00830        0.16860       10.13030
H         -0.08650        1.68840        9.86510
H          3.38240       -0.96550        8.17950
H          3.61170       -0.87470        5.72750
H          0.32390        4.87760        4.61790
H          3.77610        6.78770        6.48020
H          3.44800        9.03600        7.42210
H          1.19360        9.77670        8.10280
H         -0.73890        8.27470        7.78720
H         -0.40790        6.01700        6.86050
H          4.77780        3.50870        7.39640
H          7.03880        6.93110       10.73650
H          7.34390        9.19670       12.35380
H          5.80280       11.03810       13.38210
H          2.16070        8.07890       10.84570
