
  xtb     02142202043D
 energy: -318.805132979735 gnorm: 0.000440602330 xtb: 6.4.1 (unknown)
189208  0     0  0            999 V2000
   -5.9065   -4.3951    1.3803 C   0  0  0  0  0  0  0  0  0  0  0  0
   -6.6923   -4.5122    2.5056 C   0  0  0  0  0  0  0  0  0  0  0  0
   -6.9206   -3.4270    3.4746 C   0  0  0  0  0  0  0  0  0  0  0  0
   -6.4486   -2.3052    3.4478 O   0  0  0  0  0  0  0  0  0  0  0  0
   -7.9433   -3.9358    4.4131 C   0  0  0  0  0  0  0  0  0  0  0  0
   -8.4767   -3.2749    5.5149 C   0  0  0  0  0  0  0  0  0  0  0  0
   -9.3704   -4.0262    6.2418 C   0  0  0  0  0  0  0  0  0  0  0  0
   -9.7162   -5.3369    5.8917 C   0  0  0  0  0  0  0  0  0  0  0  0
   -9.2146   -5.9936    4.7929 C   0  0  0  0  0  0  0  0  0  0  0  0
   -8.3012   -5.2477    4.0462 C   0  0  0  0  0  0  0  0  0  0  0  0
   -7.5290   -5.6232    2.8653 C   0  0  0  0  0  0  0  0  0  0  0  0
   -7.4671   -6.8771    2.3073 C   0  0  0  0  0  0  0  0  0  0  0  0
   -8.2388   -7.9792    2.7181 C   0  0  0  0  0  0  0  0  0  0  0  0
   -8.8198   -8.9300    3.0007 N   0  0  0  0  0  0  0  0  0  0  0  0
   -6.5449   -7.2469    1.3085 C   0  0  0  0  0  0  0  0  0  0  0  0
   -5.7835   -7.6395    0.5425 N   0  0  0  0  0  0  0  0  0  0  0  0
  -10.6410   -5.4943    7.0715 C   0  0  0  0  0  0  0  0  0  0  0  0
  -10.1283   -6.3066    8.2861 C   0  0  0  0  0  0  0  0  0  0  0  0
   -8.6241   -6.1878    8.2881 C   0  0  0  0  0  0  0  0  0  0  0  0
   -8.3186   -4.9419    8.6260 C   0  0  0  0  0  0  0  0  0  0  0  0
   -9.6095   -4.1945    8.8494 C   0  0  0  0  0  0  0  0  0  0  0  0
  -10.4803   -5.3267    9.4171 C   0  0  0  0  0  0  0  0  0  0  0  0
  -10.2667   -4.0283    7.4569 C   0  0  0  0  0  0  0  0  0  0  0  0
   -4.7969   -3.5540    1.2350 C   0  0  0  0  0  0  0  0  0  0  0  0
   -3.9223   -3.0018    2.1894 C   0  0  0  0  0  0  0  0  0  0  0  0
   -3.9336   -3.1874    3.5489 N   0  0  0  0  0  0  0  0  0  0  0  0
   -4.3707   -4.3705    4.1451 C   0  0  0  0  0  0  0  0  0  0  0  0
   -5.0357   -4.3376    5.3741 C   0  0  0  0  0  0  0  0  0  0  0  0
   -5.5278   -5.4965    5.9297 C   0  0  0  0  0  0  0  0  0  0  0  0
   -5.3687   -6.7196    5.2794 C   0  0  0  0  0  0  0  0  0  0  0  0
   -6.1166   -8.1186    6.0411 S   0  0  0  0  0  0  0  0  0  0  0  0
   -5.6914   -9.5064    4.9545 C   0  0  0  0  0  0  0  0  0  0  0  0
   -4.6558   -6.7665    4.0864 C   0  0  0  0  0  0  0  0  0  0  0  0
   -4.1646   -5.6042    3.5288 C   0  0  0  0  0  0  0  0  0  0  0  0
   -3.4604   -2.1337    4.3559 C   0  0  0  0  0  0  0  0  0  0  0  0
   -3.8543   -0.8259    4.0879 C   0  0  0  0  0  0  0  0  0  0  0  0
   -3.3793    0.2207    4.8514 C   0  0  0  0  0  0  0  0  0  0  0  0
   -2.5057   -0.0293    5.9018 C   0  0  0  0  0  0  0  0  0  0  0  0
   -1.8184    1.2383    6.9227 S   0  0  0  0  0  0  0  0  0  0  0  0
   -2.9345    2.6490    6.6566 C   0  0  0  0  0  0  0  0  0  0  0  0
   -2.1194   -1.3388    6.1795 C   0  0  0  0  0  0  0  0  0  0  0  0
   -2.5910   -2.3839    5.4152 C   0  0  0  0  0  0  0  0  0  0  0  0
   -2.8911   -2.2699    1.5556 C   0  0  0  0  0  0  0  0  0  0  0  0
   -1.5054   -1.4230    2.1599 S   0  0  0  0  0  0  0  0  0  0  0  0
   -0.9729   -1.1346    0.5301 C   0  0  0  0  0  0  0  0  0  0  0  0
   -1.8667   -1.5700   -0.4327 C   0  0  0  0  0  0  0  0  0  0  0  0
   -1.7513   -1.1869   -1.7582 N   0  0  0  0  0  0  0  0  0  0  0  0
   -2.1065   -2.0306   -2.8062 C   0  0  0  0  0  0  0  0  0  0  0  0
   -2.0330   -3.4164   -2.6574 C   0  0  0  0  0  0  0  0  0  0  0  0
   -2.4236   -4.2447   -3.6848 C   0  0  0  0  0  0  0  0  0  0  0  0
   -2.8794   -3.7133   -4.8893 C   0  0  0  0  0  0  0  0  0  0  0  0
   -3.3506   -4.8750   -6.1345 S   0  0  0  0  0  0  0  0  0  0  0  0
   -4.0714   -3.8429   -7.4434 C   0  0  0  0  0  0  0  0  0  0  0  0
   -2.9252   -2.3356   -5.0519 C   0  0  0  0  0  0  0  0  0  0  0  0
   -2.5485   -1.5030   -4.0166 C   0  0  0  0  0  0  0  0  0  0  0  0
   -1.3110    0.1384   -1.9686 C   0  0  0  0  0  0  0  0  0  0  0  0
   -1.9018    1.1691   -1.2359 C   0  0  0  0  0  0  0  0  0  0  0  0
   -1.3985    2.4467   -1.3021 C   0  0  0  0  0  0  0  0  0  0  0  0
   -0.2870    2.7257   -2.0956 C   0  0  0  0  0  0  0  0  0  0  0  0
    0.3115    4.3850   -2.0342 S   0  0  0  0  0  0  0  0  0  0  0  0
    1.9413    4.2847   -2.8140 C   0  0  0  0  0  0  0  0  0  0  0  0
    0.2668    1.7163   -2.8724 C   0  0  0  0  0  0  0  0  0  0  0  0
   -0.2481    0.4333   -2.8145 C   0  0  0  0  0  0  0  0  0  0  0  0
   -2.9447   -2.2665    0.1674 C   0  0  0  0  0  0  0  0  0  0  0  0
   -4.2801   -3.1846   -0.4197 S   0  0  0  0  0  0  0  0  0  0  0  0
    0.2886   -0.4730    0.2629 C   0  0  0  0  0  0  0  0  0  0  0  0
    1.2228   -1.0256   -0.5890 C   0  0  0  0  0  0  0  0  0  0  0  0
    0.9846   -2.2238   -1.1500 F   0  0  0  0  0  0  0  0  0  0  0  0
    2.4464   -0.3967   -0.8674 C   0  0  0  0  0  0  0  0  0  0  0  0
    3.3448   -1.0646   -1.6077 F   0  0  0  0  0  0  0  0  0  0  0  0
    2.7465    0.8458   -0.3593 C   0  0  0  0  0  0  0  0  0  0  0  0
    1.7708    1.4744    0.4593 C   0  0  0  0  0  0  0  0  0  0  0  0
    1.9613    2.7407    0.8584 N   0  0  0  0  0  0  0  0  0  0  0  0
    1.0961    3.2956    1.6686 C   0  0  0  0  0  0  0  0  0  0  0  0
    1.3894    4.7138    2.0469 C   0  0  0  0  0  0  0  0  0  0  0  0
    2.4670    4.7388    3.1348 C   0  0  0  0  0  0  0  0  0  0  0  0
   -0.0040    2.5437    2.1742 C   0  0  0  0  0  0  0  0  0  0  0  0
   -0.2507    1.3393    1.7229 N   0  0  0  0  0  0  0  0  0  0  0  0
    0.5919    0.7874    0.8369 C   0  0  0  0  0  0  0  0  0  0  0  0
   -0.9687    3.0642    3.1951 C   0  0  0  0  0  0  0  0  0  0  0  0
   -2.1654    3.7187    2.5004 C   0  0  0  0  0  0  0  0  0  0  0  0
    3.9818    1.5709   -0.6713 C   0  0  0  0  0  0  0  0  0  0  0  0
    4.7863    2.1572    0.2835 C   0  0  0  0  0  0  0  0  0  0  0  0
    4.6665    2.0134    1.6261 O   0  0  0  0  0  0  0  0  0  0  0  0
    4.3683    0.7495    2.1964 C   0  0  0  0  0  0  0  0  0  0  0  0
    5.3125   -0.3503    1.7273 C   0  0  0  0  0  0  0  0  0  0  0  0
    5.8771    3.0355   -0.0836 C   0  0  0  0  0  0  0  0  0  0  0  0
    6.4669    3.5719    0.9950 O   0  0  0  0  0  0  0  0  0  0  0  0
    7.2714    4.7388    0.9422 C   0  0  0  0  0  0  0  0  0  0  0  0
    7.0218    5.5251    2.2215 C   0  0  0  0  0  0  0  0  0  0  0  0
    6.2009    3.2805   -1.4091 C   0  0  0  0  0  0  0  0  0  0  0  0
    5.4195    2.6232   -2.3963 C   0  0  0  0  0  0  0  0  0  0  0  0
    4.3167    1.7837   -2.0301 C   0  0  0  0  0  0  0  0  0  0  0  0
    3.6916    1.2851   -3.0931 N   0  0  0  0  0  0  0  0  0  0  0  0
    4.4526    1.7832   -4.4218 S   0  0  0  0  0  0  0  0  0  0  0  0
    5.5968    2.6696   -3.7125 N   0  0  0  0  0  0  0  0  0  0  0  0
    7.3405    4.0577   -1.8551 C   0  0  0  0  0  0  0  0  0  0  0  0
    7.3166    4.9027   -2.9080 C   0  0  0  0  0  0  0  0  0  0  0  0
    6.0972    5.3367   -3.6448 C   0  0  0  0  0  0  0  0  0  0  0  0
    4.9531    5.3269   -3.2468 O   0  0  0  0  0  0  0  0  0  0  0  0
    6.5949    5.9044   -4.9114 C   0  0  0  0  0  0  0  0  0  0  0  0
    5.8375    6.3054   -6.0094 C   0  0  0  0  0  0  0  0  0  0  0  0
    6.5815    6.7927   -7.0567 C   0  0  0  0  0  0  0  0  0  0  0  0
    7.9800    6.8905   -7.0137 C   0  0  0  0  0  0  0  0  0  0  0  0
    8.7400    6.5140   -5.9334 C   0  0  0  0  0  0  0  0  0  0  0  0
    8.0019    6.0050   -4.8600 C   0  0  0  0  0  0  0  0  0  0  0  0
    8.4622    5.5096   -3.5693 C   0  0  0  0  0  0  0  0  0  0  0  0
    9.7191    5.6484   -3.0466 C   0  0  0  0  0  0  0  0  0  0  0  0
   10.7986    6.2640   -3.7148 C   0  0  0  0  0  0  0  0  0  0  0  0
   11.7154    6.7505   -4.2047 N   0  0  0  0  0  0  0  0  0  0  0  0
   10.0777    5.2549   -1.7403 C   0  0  0  0  0  0  0  0  0  0  0  0
   10.4121    4.9806   -0.6762 N   0  0  0  0  0  0  0  0  0  0  0  0
    8.0638    7.4488   -8.4117 C   0  0  0  0  0  0  0  0  0  0  0  0
    8.5133    6.4899   -9.5419 C   0  0  0  0  0  0  0  0  0  0  0  0
    8.1384    5.0978   -9.0972 C   0  0  0  0  0  0  0  0  0  0  0  0
    6.8162    5.0020   -9.1380 C   0  0  0  0  0  0  0  0  0  0  0  0
    6.2729    6.3275   -9.6119 C   0  0  0  0  0  0  0  0  0  0  0  0
    7.3989    6.7561  -10.5664 C   0  0  0  0  0  0  0  0  0  0  0  0
    6.5073    7.3376   -8.4608 C   0  0  0  0  0  0  0  0  0  0  0  0
   -6.1535   -4.9944    0.5117 H   0  0  0  0  0  0  0  0  0  0  0  0
   -8.1794   -2.2655    5.7545 H   0  0  0  0  0  0  0  0  0  0  0  0
   -9.4991   -6.9983    4.5278 H   0  0  0  0  0  0  0  0  0  0  0  0
  -11.6820   -5.7115    6.8397 H   0  0  0  0  0  0  0  0  0  0  0  0
  -10.5269   -7.3151    8.3540 H   0  0  0  0  0  0  0  0  0  0  0  0
   -7.9621   -6.9827    7.9969 H   0  0  0  0  0  0  0  0  0  0  0  0
   -7.3486   -4.4828    8.6861 H   0  0  0  0  0  0  0  0  0  0  0  0
   -9.5404   -3.2778    9.4296 H   0  0  0  0  0  0  0  0  0  0  0  0
  -10.1405   -5.6697   10.3933 H   0  0  0  0  0  0  0  0  0  0  0  0
  -11.5399   -5.0786    9.4626 H   0  0  0  0  0  0  0  0  0  0  0  0
  -11.0629   -3.2860    7.4595 H   0  0  0  0  0  0  0  0  0  0  0  0
   -5.1815   -3.3922    5.8738 H   0  0  0  0  0  0  0  0  0  0  0  0
   -6.0687   -5.4685    6.8621 H   0  0  0  0  0  0  0  0  0  0  0  0
   -6.1315   -9.3630    3.9721 H   0  0  0  0  0  0  0  0  0  0  0  0
   -4.6124   -9.6157    4.8971 H   0  0  0  0  0  0  0  0  0  0  0  0
   -6.1278  -10.3834    5.4222 H   0  0  0  0  0  0  0  0  0  0  0  0
   -4.4855   -7.6984    3.5719 H   0  0  0  0  0  0  0  0  0  0  0  0
   -3.6208   -5.6566    2.5976 H   0  0  0  0  0  0  0  0  0  0  0  0
   -4.5561   -0.6421    3.2902 H   0  0  0  0  0  0  0  0  0  0  0  0
   -3.7007    1.2234    4.6203 H   0  0  0  0  0  0  0  0  0  0  0  0
   -2.6768    3.3744    7.4220 H   0  0  0  0  0  0  0  0  0  0  0  0
   -2.7744    3.0815    5.6737 H   0  0  0  0  0  0  0  0  0  0  0  0
   -3.9631    2.3259    6.7830 H   0  0  0  0  0  0  0  0  0  0  0  0
   -1.4414   -1.5243    6.9983 H   0  0  0  0  0  0  0  0  0  0  0  0
   -2.2870   -3.3972    5.6319 H   0  0  0  0  0  0  0  0  0  0  0  0
   -1.6512   -3.8374   -1.7406 H   0  0  0  0  0  0  0  0  0  0  0  0
   -2.3739   -5.3162   -3.5691 H   0  0  0  0  0  0  0  0  0  0  0  0
   -4.4525   -4.5371   -8.1858 H   0  0  0  0  0  0  0  0  0  0  0  0
   -4.8867   -3.2506   -7.0385 H   0  0  0  0  0  0  0  0  0  0  0  0
   -3.3073   -3.2122   -7.8889 H   0  0  0  0  0  0  0  0  0  0  0  0
   -3.2599   -1.8932   -5.9764 H   0  0  0  0  0  0  0  0  0  0  0  0
   -2.6023   -0.4318   -4.1444 H   0  0  0  0  0  0  0  0  0  0  0  0
   -2.7438    0.9515   -0.5957 H   0  0  0  0  0  0  0  0  0  0  0  0
   -1.8476    3.2443   -0.7304 H   0  0  0  0  0  0  0  0  0  0  0  0
    2.5279    3.5302   -2.3019 H   0  0  0  0  0  0  0  0  0  0  0  0
    1.8409    4.0627   -3.8726 H   0  0  0  0  0  0  0  0  0  0  0  0
    2.4101    5.2547   -2.6872 H   0  0  0  0  0  0  0  0  0  0  0  0
    1.1184    1.9029   -3.5059 H   0  0  0  0  0  0  0  0  0  0  0  0
    0.1972   -0.3513   -3.4079 H   0  0  0  0  0  0  0  0  0  0  0  0
    0.4904    5.2246    2.3890 H   0  0  0  0  0  0  0  0  0  0  0  0
    1.7692    5.2234    1.1603 H   0  0  0  0  0  0  0  0  0  0  0  0
    2.7277    5.7653    3.3808 H   0  0  0  0  0  0  0  0  0  0  0  0
    3.3556    4.2206    2.7821 H   0  0  0  0  0  0  0  0  0  0  0  0
    2.1155    4.2441    4.0384 H   0  0  0  0  0  0  0  0  0  0  0  0
   -0.4784    3.7772    3.8582 H   0  0  0  0  0  0  0  0  0  0  0  0
   -1.3147    2.2105    3.7804 H   0  0  0  0  0  0  0  0  0  0  0  0
   -2.8638    4.1158    3.2341 H   0  0  0  0  0  0  0  0  0  0  0  0
   -2.6812    2.9828    1.8886 H   0  0  0  0  0  0  0  0  0  0  0  0
   -1.8414    4.5351    1.8581 H   0  0  0  0  0  0  0  0  0  0  0  0
    4.4932    0.9226    3.2688 H   0  0  0  0  0  0  0  0  0  0  0  0
    3.3273    0.4579    2.0146 H   0  0  0  0  0  0  0  0  0  0  0  0
    6.3444   -0.0550    1.9018 H   0  0  0  0  0  0  0  0  0  0  0  0
    5.1824   -0.5498    0.6659 H   0  0  0  0  0  0  0  0  0  0  0  0
    5.1070   -1.2629    2.2795 H   0  0  0  0  0  0  0  0  0  0  0  0
    7.0083    5.3412    0.0646 H   0  0  0  0  0  0  0  0  0  0  0  0
    8.3305    4.4620    0.8774 H   0  0  0  0  0  0  0  0  0  0  0  0
    5.9785    5.8238    2.2815 H   0  0  0  0  0  0  0  0  0  0  0  0
    7.6515    6.4097    2.2346 H   0  0  0  0  0  0  0  0  0  0  0  0
    7.2556    4.9075    3.0838 H   0  0  0  0  0  0  0  0  0  0  0  0
    8.2842    3.8403   -1.3739 H   0  0  0  0  0  0  0  0  0  0  0  0
    4.7623    6.2185   -6.0024 H   0  0  0  0  0  0  0  0  0  0  0  0
    9.8144    6.5925   -5.9121 H   0  0  0  0  0  0  0  0  0  0  0  0
    8.5083    8.4375   -8.5045 H   0  0  0  0  0  0  0  0  0  0  0  0
    9.5398    6.6292   -9.8699 H   0  0  0  0  0  0  0  0  0  0  0  0
    8.8474    4.3670   -8.7549 H   0  0  0  0  0  0  0  0  0  0  0  0
    6.2004    4.1753   -8.8354 H   0  0  0  0  0  0  0  0  0  0  0  0
    5.2598    6.3185  -10.0052 H   0  0  0  0  0  0  0  0  0  0  0  0
    7.3333    7.7984  -10.8752 H   0  0  0  0  0  0  0  0  0  0  0  0
    7.4728    6.1162  -11.4443 H   0  0  0  0  0  0  0  0  0  0  0  0
    5.9338    8.2535   -8.5890 H   0  0  0  0  0  0  0  0  0  0  0  0
  1  2  2  0  0  0  0
  2  3  1  0  0  0  0
  3  4  2  0  0  0  0
  3  5  1  0  0  0  0
  5  6  2  0  0  0  0
  6  7  1  0  0  0  0
  7  8  2  0  0  0  0
  8  9  1  0  0  0  0
  9 10  2  0  0  0  0
 10 11  1  0  0  0  0
 11 12  2  0  0  0  0
 12 13  1  0  0  0  0
 13 14  3  0  0  0  0
 12 15  1  0  0  0  0
 15 16  3  0  0  0  0
  8 17  1  0  0  0  0
 17 18  1  0  0  0  0
 18 19  1  0  0  0  0
 19 20  2  0  0  0  0
 20 21  1  0  0  0  0
 21 22  1  0  0  0  0
 21 23  1  0  0  0  0
  1 24  1  0  0  0  0
 24 25  2  0  0  0  0
 25 26  1  0  0  0  0
 26 27  1  0  0  0  0
 27 28  2  0  0  0  0
 28 29  1  0  0  0  0
 29 30  2  0  0  0  0
 30 31  1  0  0  0  0
 31 32  1  0  0  0  0
 30 33  1  0  0  0  0
 33 34  2  0  0  0  0
 26 35  1  0  0  0  0
 35 36  2  0  0  0  0
 36 37  1  0  0  0  0
 37 38  2  0  0  0  0
 38 39  1  0  0  0  0
 39 40  1  0  0  0  0
 38 41  1  0  0  0  0
 41 42  2  0  0  0  0
 25 43  1  0  0  0  0
 43 44  1  0  0  0  0
 44 45  1  0  0  0  0
 45 46  2  0  0  0  0
 46 47  1  0  0  0  0
 47 48  1  0  0  0  0
 48 49  2  0  0  0  0
 49 50  1  0  0  0  0
 50 51  2  0  0  0  0
 51 52  1  0  0  0  0
 52 53  1  0  0  0  0
 51 54  1  0  0  0  0
 54 55  2  0  0  0  0
 47 56  1  0  0  0  0
 56 57  2  0  0  0  0
 57 58  1  0  0  0  0
 58 59  2  0  0  0  0
 59 60  1  0  0  0  0
 60 61  1  0  0  0  0
 59 62  1  0  0  0  0
 62 63  2  0  0  0  0
 46 64  1  0  0  0  0
 64 65  1  0  0  0  0
 45 66  1  0  0  0  0
 66 67  2  0  0  0  0
 67 68  1  0  0  0  0
 67 69  1  0  0  0  0
 69 70  1  0  0  0  0
 69 71  2  0  0  0  0
 71 72  1  0  0  0  0
 72 73  2  0  0  0  0
 73 74  1  0  0  0  0
 74 75  1  0  0  0  0
 75 76  1  0  0  0  0
 74 77  2  0  0  0  0
 77 78  1  0  0  0  0
 78 79  2  0  0  0  0
 77 80  1  0  0  0  0
 80 81  1  0  0  0  0
 71 82  1  0  0  0  0
 82 83  2  0  0  0  0
 83 84  1  0  0  0  0
 84 85  1  0  0  0  0
 85 86  1  0  0  0  0
 83 87  1  0  0  0  0
 87 88  1  0  0  0  0
 88 89  1  0  0  0  0
 89 90  1  0  0  0  0
 87 91  2  0  0  0  0
 91 92  1  0  0  0  0
 92 93  1  0  0  0  0
 93 94  2  0  0  0  0
 94 95  1  0  0  0  0
 95 96  1  0  0  0  0
 91 97  1  0  0  0  0
 97 98  2  0  0  0  0
 98 99  1  0  0  0  0
 99100  2  0  0  0  0
 99101  1  0  0  0  0
101102  2  0  0  0  0
102103  1  0  0  0  0
103104  2  0  0  0  0
104105  1  0  0  0  0
105106  2  0  0  0  0
106107  1  0  0  0  0
107108  2  0  0  0  0
108109  1  0  0  0  0
109110  3  0  0  0  0
108111  1  0  0  0  0
111112  3  0  0  0  0
104113  1  0  0  0  0
113114  1  0  0  0  0
114115  1  0  0  0  0
115116  2  0  0  0  0
116117  1  0  0  0  0
117118  1  0  0  0  0
117119  1  0  0  0  0
 11  2  1  0  0  0  0
 23 17  1  0  0  0  0
 65 24  1  0  0  0  0
 79 66  1  0  0  0  0
 93 82  1  0  0  0  0
107 98  1  0  0  0  0
119113  1  0  0  0  0
 10  5  1  0  0  0  0
 22 18  1  0  0  0  0
 34 27  1  0  0  0  0
 42 35  1  0  0  0  0
 64 43  2  0  0  0  0
 79 72  1  0  0  0  0
 96 92  2  0  0  0  0
106101  1  0  0  0  0
118114  1  0  0  0  0
 23  7  1  0  0  0  0
 55 48  1  0  0  0  0
 63 56  1  0  0  0  0
119103  1  0  0  0  0
  1120  1  0  0  0  0
  6121  1  0  0  0  0
  9122  1  0  0  0  0
 17123  1  0  0  0  0
 18124  1  0  0  0  0
 19125  1  0  0  0  0
 20126  1  0  0  0  0
 21127  1  0  0  0  0
 22128  1  0  0  0  0
 22129  1  0  0  0  0
 23130  1  0  0  0  0
 28131  1  0  0  0  0
 29132  1  0  0  0  0
 32133  1  0  0  0  0
 32134  1  0  0  0  0
 32135  1  0  0  0  0
 33136  1  0  0  0  0
 34137  1  0  0  0  0
 36138  1  0  0  0  0
 37139  1  0  0  0  0
 40140  1  0  0  0  0
 40141  1  0  0  0  0
 40142  1  0  0  0  0
 41143  1  0  0  0  0
 42144  1  0  0  0  0
 49145  1  0  0  0  0
 50146  1  0  0  0  0
 53147  1  0  0  0  0
 53148  1  0  0  0  0
 53149  1  0  0  0  0
 54150  1  0  0  0  0
 55151  1  0  0  0  0
 57152  1  0  0  0  0
 58153  1  0  0  0  0
 61154  1  0  0  0  0
 61155  1  0  0  0  0
 61156  1  0  0  0  0
 62157  1  0  0  0  0
 63158  1  0  0  0  0
 75159  1  0  0  0  0
 75160  1  0  0  0  0
 76161  1  0  0  0  0
 76162  1  0  0  0  0
 76163  1  0  0  0  0
 80164  1  0  0  0  0
 80165  1  0  0  0  0
 81166  1  0  0  0  0
 81167  1  0  0  0  0
 81168  1  0  0  0  0
 85169  1  0  0  0  0
 85170  1  0  0  0  0
 86171  1  0  0  0  0
 86172  1  0  0  0  0
 86173  1  0  0  0  0
 89174  1  0  0  0  0
 89175  1  0  0  0  0
 90176  1  0  0  0  0
 90177  1  0  0  0  0
 90178  1  0  0  0  0
 97179  1  0  0  0  0
102180  1  0  0  0  0
105181  1  0  0  0  0
113182  1  0  0  0  0
114183  1  0  0  0  0
115184  1  0  0  0  0
116185  1  0  0  0  0
117186  1  0  0  0  0
118187  1  0  0  0  0
118188  1  0  0  0  0
119189  1  0  0  0  0
M  END
