171

C          8.40850        1.91160        1.83100
C          8.03830        1.87170        3.13540
C          6.77890        1.25800        3.64270
O          5.93040        0.66170        3.01040
C          6.83660        1.37970        5.10750
C          5.86310        0.96530        6.01500
C          6.19950        1.16820        7.33090
C          7.42140        1.73620        7.71940
C          8.39000        2.14900        6.83670
C          8.06570        1.95550        5.48970
C          8.82860        2.27540        4.28760
C         10.03390        2.92290        4.25310
C         10.71490        3.31370        3.07930
N         11.32260        3.69040        2.18130
C         10.76280        3.31940        5.39480
N         11.41030        3.66770        6.27640
C          7.10050        1.61680        9.18780
C          7.77340        0.46820        9.97960
C          8.06700       -0.62600        8.98330
C          6.91010       -1.16090        8.61640
C          5.81290       -0.43790        9.35820
C          6.53830       -0.12480       10.67650
C          5.73880        0.98710        8.75530
C          7.49090        1.72690        0.74220
C          7.85420        1.09580       -0.43820
F          9.10080        0.62260       -0.56050
C          6.96580        0.86250       -1.49620
F          7.45870        0.21620       -2.55330
C          5.63240        1.25830       -1.43020
C          5.26250        1.97470       -0.25160
N          3.99290        2.36820       -0.13360
C          3.58480        3.04400        0.91100
C          2.11620        3.31780        0.98630
C          1.39870        2.09110        1.55700
C          4.53620        3.43170        1.89680
N          5.77810        3.02570        1.81750
C          6.16660        2.24770        0.79800
C          4.20600        4.34190        3.03950
C          4.24000        5.80360        2.58610
C          4.58720        0.93340       -2.35380
C          4.60890        0.24970       -3.55620
F          5.70380       -0.11310       -4.22070
C          3.33630       -0.06330       -4.05660
F          3.15360       -0.73990       -5.20090
C          2.30700        0.38610       -3.26880
S          2.93590        1.28690       -1.91230
C          0.92690        0.03520       -3.35420
C          0.42500       -1.25180       -3.51290
N          1.19600       -2.39500       -3.57480
C          0.75730       -3.48050       -4.33650
C          1.00620       -4.78630       -3.92270
C          0.55510       -5.85870       -4.66600
C         -0.16410       -5.64390       -5.83440
S         -0.80770       -6.92940       -6.85720
C         -0.40770       -8.45290       -5.95500
C         -0.40420       -4.33830       -6.25880
C          0.05450       -3.26900       -5.52440
C          2.36850       -2.47880       -2.80190
C          2.38980       -1.96670       -1.50650
C          3.56450       -1.92990       -0.78110
C          4.73840       -2.42270       -1.33660
S          6.31010       -2.34330       -0.53920
C          5.91290       -1.92080        1.17970
C          4.70830       -2.98960       -2.61040
C          3.53800       -3.01910       -3.33680
C         -0.99050       -1.24180       -3.45730
S         -2.21210       -2.45720       -3.52740
C         -3.44290       -1.28330       -3.08940
C         -2.92670        0.00070       -2.97080
N         -3.68340        1.17140       -2.86860
C         -3.66920        2.03850       -3.96390
C         -3.48620        1.53730       -5.25130
C         -3.46640        2.37960       -6.34570
C         -3.63780        3.74590       -6.17590
S         -3.64410        4.92160       -7.49250
C         -3.32260        3.92360       -8.97430
C         -3.82230        4.25250       -4.89050
C         -3.83150        3.41570       -3.79860
C         -4.22830        1.57780       -1.64180
C         -5.53830        2.05460       -1.58150
C         -6.07250        2.45400       -0.37860
C         -5.31150        2.39350        0.78990
S         -6.11240        2.91390        2.27290
C         -4.95850        2.42940        3.58790
C         -4.00230        1.93790        0.73000
C         -3.46800        1.52570       -0.47860
C         -1.53140        0.00530       -3.19260
S         -0.31940        1.22770       -3.04210
C         -4.80150       -1.71030       -3.04110
C         -5.74490       -1.46040       -2.09910
C         -7.18500       -1.64660       -2.44460
O         -7.61940       -2.13010       -3.46490
C         -7.93830       -1.08790       -1.30960
C         -9.31780       -0.90750       -1.21850
C         -9.73350       -0.35420       -0.03140
C         -8.84360       -0.00890        0.99550
C         -7.48430       -0.18730        0.92210
C         -7.03780       -0.73770       -0.28250
C         -5.67770       -1.04460       -0.71640
C         -4.59100       -1.12610        0.11530
C         -3.28880       -1.52080       -0.25000
N         -2.19810       -1.83720       -0.42320
C         -4.63390       -0.88360        1.50240
N         -4.57830       -0.71240        2.63730
C         -9.94570        0.49160        1.89370
C        -10.36720       -0.44120        3.04850
C        -11.73770        0.06230        3.43960
C        -12.58120       -0.26980        2.47070
C        -11.79480       -1.00320        1.40800
C        -10.76100       -1.71530        2.28990
C        -10.93950        0.10200        0.75220
H          9.43950        2.09720        1.55920
H          4.93850        0.52800        5.67150
H          9.32540        2.57900        7.15330
H          7.07750        2.54890        9.74860
H          8.60280        0.77980       10.60850
H          9.05080       -0.85390        8.61700
H          6.73400       -1.92470        7.88180
H          4.85720       -0.95140        9.42210
H          6.00870        0.59040       11.30440
H          6.76920       -1.01960       11.25230
H          4.82470        1.50840        9.03290
H          1.90960        4.19160        1.60190
H          1.75160        3.49620       -0.02570
H          1.76630        1.85730        2.55410
H          1.57050        1.23370        0.91200
H          0.32960        2.27750        1.61290
H          4.95530        4.18950        3.81750
H          3.22400        4.09820        3.44610
H          4.00650        6.45900        3.42120
H          5.23050        6.05450        2.21490
H          3.52000        5.98300        1.79070
H          1.55120       -4.96140       -3.00720
H          0.76540       -6.85640       -4.31610
H          0.66920       -8.58060       -5.89530
H         -0.84150       -9.25920       -6.53850
H         -0.85980       -8.42730       -4.96790
H         -0.94830       -4.17710       -7.17650
H         -0.11240       -2.26180       -5.87490
H          1.48060       -1.57960       -1.07060
H          3.55540       -1.50290        0.20900
H          6.84360       -2.03330        1.72760
H          5.57080       -0.89350        1.26560
H          5.17480       -2.61760        1.56510
H          5.62190       -3.37740       -3.03290
H          3.52740       -3.42930       -4.33510
H         -3.36660        0.47520       -5.40420
H         -3.32450        1.95110       -7.32450
H         -4.12710        3.20950       -9.12460
H         -3.29720        4.62780       -9.80000
H         -2.36160        3.42560       -8.88480
H         -3.94840        5.31640       -4.75990
H         -3.95760        3.82720       -2.80890
H         -6.12790        2.09970       -2.48490
H         -7.09000        2.80960       -0.32290
H         -4.72880        1.37010        3.50140
H         -4.06060        3.03870        3.53950
H         -5.48280        2.62190        4.51870
H         -3.38650        1.89490        1.61380
H         -2.44740        1.17440       -0.52270
H         -5.14890       -2.27730       -3.90160
H         -9.96800       -1.18890       -2.03200
H         -6.81550        0.09190        1.71740
H         -9.87260        1.53550        2.19210
H         -9.63440       -0.53750        3.84480
H        -11.93560        0.63720        4.32510
H        -13.62430       -0.02810        2.38510
H        -12.36400       -1.61240        0.71110
H        -11.21860       -2.45760        2.94180
H         -9.94350       -2.17260        1.73550
H        -11.53770        0.88530        0.29060
