
  xtb     02082209453D
 energy: -306.735162717606 gnorm: 0.003451017558 xtb: 6.4.1 (unknown)
177193  0     0  0            999 V2000
    6.9781   -2.7666    0.6965 C   0  0  0  0  0  0  0  0  0  0  0  0
    6.7166   -3.9430    1.3186 C   0  0  0  0  0  0  0  0  0  0  0  0
    5.3779   -4.4415    1.7399 C   0  0  0  0  0  0  0  0  0  0  0  0
    4.2857   -4.0940    1.3453 O   0  0  0  0  0  0  0  0  0  0  0  0
    5.6502   -5.5528    2.6708 C   0  0  0  0  0  0  0  0  0  0  0  0
    4.7226   -6.2296    3.4616 C   0  0  0  0  0  0  0  0  0  0  0  0
    5.2736   -7.1924    4.2713 C   0  0  0  0  0  0  0  0  0  0  0  0
    6.6464   -7.4784    4.2805 C   0  0  0  0  0  0  0  0  0  0  0  0
    7.5681   -6.8390    3.4871 C   0  0  0  0  0  0  0  0  0  0  0  0
    7.0288   -5.8436    2.6650 C   0  0  0  0  0  0  0  0  0  0  0  0
    7.6884   -4.9496    1.7187 C   0  0  0  0  0  0  0  0  0  0  0  0
    8.9686   -5.0850    1.2557 C   0  0  0  0  0  0  0  0  0  0  0  0
    9.5569   -4.2742    0.2625 C   0  0  0  0  0  0  0  0  0  0  0  0
   10.0857   -3.6693   -0.5573 N   0  0  0  0  0  0  0  0  0  0  0  0
    9.8544   -6.1073    1.6578 C   0  0  0  0  0  0  0  0  0  0  0  0
   10.6230   -6.9115    1.9430 N   0  0  0  0  0  0  0  0  0  0  0  0
    6.4994   -8.5359    5.3458 C   0  0  0  0  0  0  0  0  0  0  0  0
    6.9205   -8.1318    6.7755 C   0  0  0  0  0  0  0  0  0  0  0  0
    6.2367   -9.1531    7.6549 C   0  0  0  0  0  0  0  0  0  0  0  0
    4.9366   -8.8877    7.6453 C   0  0  0  0  0  0  0  0  0  0  0  0
    4.7203   -7.6821    6.7599 C   0  0  0  0  0  0  0  0  0  0  0  0
    6.0213   -6.9161    7.0346 C   0  0  0  0  0  0  0  0  0  0  0  0
    4.9695   -8.2190    5.3341 C   0  0  0  0  0  0  0  0  0  0  0  0
    5.9996   -1.7438    0.4795 C   0  0  0  0  0  0  0  0  0  0  0  0
    6.0306   -0.9377   -0.6523 C   0  0  0  0  0  0  0  0  0  0  0  0
    7.0755   -1.0210   -1.4941 F   0  0  0  0  0  0  0  0  0  0  0  0
    4.9597   -0.1237   -1.0065 C   0  0  0  0  0  0  0  0  0  0  0  0
    5.0694    0.6461   -2.1078 F   0  0  0  0  0  0  0  0  0  0  0  0
    3.7784   -0.1067   -0.2663 C   0  0  0  0  0  0  0  0  0  0  0  0
    3.8394   -0.6957    1.0278 C   0  0  0  0  0  0  0  0  0  0  0  0
    2.8031   -0.5540    1.8638 N   0  0  0  0  0  0  0  0  0  0  0  0
    2.8611   -1.0801    3.0614 C   0  0  0  0  0  0  0  0  0  0  0  0
    1.6329   -0.9757    3.9072 C   0  0  0  0  0  0  0  0  0  0  0  0
    0.8415   -2.2837    3.8376 C   0  0  0  0  0  0  0  0  0  0  0  0
    4.0549   -1.7223    3.5023 C   0  0  0  0  0  0  0  0  0  0  0  0
    5.0456   -1.9216    2.6710 N   0  0  0  0  0  0  0  0  0  0  0  0
    4.9530   -1.4780    1.4114 C   0  0  0  0  0  0  0  0  0  0  0  0
    4.2472   -2.1521    4.9267 C   0  0  0  0  0  0  0  0  0  0  0  0
    5.5977   -2.8139    5.1654 C   0  0  0  0  0  0  0  0  0  0  0  0
    2.5437    0.3908   -0.7766 C   0  0  0  0  0  0  0  0  0  0  0  0
    2.1215    0.3797   -2.1084 C   0  0  0  0  0  0  0  0  0  0  0  0
    2.7442   -0.2806   -3.1442 N   0  0  0  0  0  0  0  0  0  0  0  0
    3.4416   -1.4774   -2.9138 C   0  0  0  0  0  0  0  0  0  0  0  0
    4.6204   -1.7506   -3.6032 C   0  0  0  0  0  0  0  0  0  0  0  0
    5.3733   -2.8685   -3.2994 C   0  0  0  0  0  0  0  0  0  0  0  0
    4.9608   -3.7320   -2.2933 C   0  0  0  0  0  0  0  0  0  0  0  0
    5.8878   -5.1328   -1.7545 S   0  0  0  0  0  0  0  0  0  0  0  0
    7.4838   -4.9407   -2.6008 C   0  0  0  0  0  0  0  0  0  0  0  0
    3.7447   -3.5019   -1.6497 C   0  0  0  0  0  0  0  0  0  0  0  0
    2.9924   -2.3930   -1.9593 C   0  0  0  0  0  0  0  0  0  0  0  0
    2.6203    0.2336   -4.4421 C   0  0  0  0  0  0  0  0  0  0  0  0
    2.6593    1.6100   -4.6507 C   0  0  0  0  0  0  0  0  0  0  0  0
    2.4639    2.1368   -5.9112 C   0  0  0  0  0  0  0  0  0  0  0  0
    2.2317    1.2904   -6.9872 C   0  0  0  0  0  0  0  0  0  0  0  0
    1.9278    1.8616   -8.6271 S   0  0  0  0  0  0  0  0  0  0  0  0
    1.4455    3.5954   -8.3794 C   0  0  0  0  0  0  0  0  0  0  0  0
    2.2453   -0.0900   -6.7906 C   0  0  0  0  0  0  0  0  0  0  0  0
    2.4340   -0.6158   -5.5328 C   0  0  0  0  0  0  0  0  0  0  0  0
    0.8685    1.0295   -2.2300 C   0  0  0  0  0  0  0  0  0  0  0  0
   -0.1310    1.4540   -3.5701 S   0  0  0  0  0  0  0  0  0  0  0  0
   -1.3254    2.1447   -2.4839 C   0  0  0  0  0  0  0  0  0  0  0  0
   -0.9336    2.0833   -1.1522 C   0  0  0  0  0  0  0  0  0  0  0  0
   -1.5864    2.6659   -0.0831 N   0  0  0  0  0  0  0  0  0  0  0  0
   -1.6047    1.9754    1.1337 C   0  0  0  0  0  0  0  0  0  0  0  0
   -1.7275    0.5868    1.1468 C   0  0  0  0  0  0  0  0  0  0  0  0
   -1.8087   -0.1004    2.3412 C   0  0  0  0  0  0  0  0  0  0  0  0
   -1.7767    0.5923    3.5437 C   0  0  0  0  0  0  0  0  0  0  0  0
   -1.9367   -0.2115    5.1133 S   0  0  0  0  0  0  0  0  0  0  0  0
   -3.0262   -1.6134    4.7111 C   0  0  0  0  0  0  0  0  0  0  0  0
   -1.6078    1.9744    3.5379 C   0  0  0  0  0  0  0  0  0  0  0  0
   -1.5192    2.6602    2.3465 C   0  0  0  0  0  0  0  0  0  0  0  0
   -2.3028    3.8594   -0.2308 C   0  0  0  0  0  0  0  0  0  0  0  0
   -1.8702    4.8388   -1.1229 C   0  0  0  0  0  0  0  0  0  0  0  0
   -2.5987    5.9957   -1.3103 C   0  0  0  0  0  0  0  0  0  0  0  0
   -3.7666    6.2084   -0.5907 C   0  0  0  0  0  0  0  0  0  0  0  0
   -4.7571    7.6586   -0.7816 S   0  0  0  0  0  0  0  0  0  0  0  0
   -4.4349    8.1217   -2.5099 C   0  0  0  0  0  0  0  0  0  0  0  0
   -4.1755    5.2604    0.3404 C   0  0  0  0  0  0  0  0  0  0  0  0
   -3.4619    4.0953    0.5093 C   0  0  0  0  0  0  0  0  0  0  0  0
    0.3215    1.4359   -1.0227 C   0  0  0  0  0  0  0  0  0  0  0  0
    1.3276    1.0024    0.3247 S   0  0  0  0  0  0  0  0  0  0  0  0
   -2.5310    2.6992   -3.0398 C   0  0  0  0  0  0  0  0  0  0  0  0
   -2.5078    3.4701   -4.1949 C   0  0  0  0  0  0  0  0  0  0  0  0
   -1.3400    3.7187   -4.8183 F   0  0  0  0  0  0  0  0  0  0  0  0
   -3.6497    4.0886   -4.6948 C   0  0  0  0  0  0  0  0  0  0  0  0
   -3.5133    4.9168   -5.7454 F   0  0  0  0  0  0  0  0  0  0  0  0
   -4.8955    3.9568   -4.0941 C   0  0  0  0  0  0  0  0  0  0  0  0
   -4.9789    3.0545   -2.9936 C   0  0  0  0  0  0  0  0  0  0  0  0
   -6.1831    2.7005   -2.5237 N   0  0  0  0  0  0  0  0  0  0  0  0
   -6.2630    1.8980   -1.4930 C   0  0  0  0  0  0  0  0  0  0  0  0
   -7.6470    1.5848   -1.0131 C   0  0  0  0  0  0  0  0  0  0  0  0
   -8.0430    2.5581    0.1018 C   0  0  0  0  0  0  0  0  0  0  0  0
   -5.0838    1.3861   -0.8829 C   0  0  0  0  0  0  0  0  0  0  0  0
   -3.9054    1.6461   -1.3926 N   0  0  0  0  0  0  0  0  0  0  0  0
   -3.8090    2.4700   -2.4492 C   0  0  0  0  0  0  0  0  0  0  0  0
   -5.1053    0.4499    0.2878 C   0  0  0  0  0  0  0  0  0  0  0  0
   -5.0403   -1.0010   -0.1974 C   0  0  0  0  0  0  0  0  0  0  0  0
   -6.0241    4.6594   -4.6291 C   0  0  0  0  0  0  0  0  0  0  0  0
   -7.0518    5.1899   -3.9165 C   0  0  0  0  0  0  0  0  0  0  0  0
   -7.0433    5.4398   -2.4512 C   0  0  0  0  0  0  0  0  0  0  0  0
   -6.2193    5.0965   -1.6329 O   0  0  0  0  0  0  0  0  0  0  0  0
   -8.2056    6.3131   -2.1967 C   0  0  0  0  0  0  0  0  0  0  0  0
   -8.5996    6.8909   -1.0034 C   0  0  0  0  0  0  0  0  0  0  0  0
   -9.7114    7.7171   -1.0045 C   0  0  0  0  0  0  0  0  0  0  0  0
  -10.3902    7.9521   -2.1940 C   0  0  0  0  0  0  0  0  0  0  0  0
  -11.9001    9.1044   -2.1724 Br  0  0  0  0  0  0  0  0  0  0  0  0
  -10.0042    7.3834   -3.4031 C   0  0  0  0  0  0  0  0  0  0  0  0
   -8.8971    6.5512   -3.3973 C   0  0  0  0  0  0  0  0  0  0  0  0
   -8.2359    5.8201   -4.4750 C   0  0  0  0  0  0  0  0  0  0  0  0
   -8.6994    5.6847   -5.7544 C   0  0  0  0  0  0  0  0  0  0  0  0
   -8.0911    4.8921   -6.7523 C   0  0  0  0  0  0  0  0  0  0  0  0
   -7.6720    4.2562   -7.6109 N   0  0  0  0  0  0  0  0  0  0  0  0
   -9.8771    6.2953   -6.2369 C   0  0  0  0  0  0  0  0  0  0  0  0
  -10.8216    6.7713   -6.6820 N   0  0  0  0  0  0  0  0  0  0  0  0
    7.9719   -2.5668    0.3167 H   0  0  0  0  0  0  0  0  0  0  0  0
    3.6738   -5.9798    3.4195 H   0  0  0  0  0  0  0  0  0  0  0  0
    8.6193   -7.0740    3.5003 H   0  0  0  0  0  0  0  0  0  0  0  0
    6.8277   -9.5369    5.0732 H   0  0  0  0  0  0  0  0  0  0  0  0
    7.9902   -8.0029    6.9150 H   0  0  0  0  0  0  0  0  0  0  0  0
    6.7449   -9.9700    8.1320 H   0  0  0  0  0  0  0  0  0  0  0  0
    4.1421   -9.4389    8.1134 H   0  0  0  0  0  0  0  0  0  0  0  0
    3.7848   -7.1441    6.8879 H   0  0  0  0  0  0  0  0  0  0  0  0
    6.1968   -6.0813    6.3586 H   0  0  0  0  0  0  0  0  0  0  0  0
    6.0853   -6.5703    8.0652 H   0  0  0  0  0  0  0  0  0  0  0  0
    4.2763   -9.0081    5.0483 H   0  0  0  0  0  0  0  0  0  0  0  0
    1.8979   -0.7598    4.9428 H   0  0  0  0  0  0  0  0  0  0  0  0
    1.0179   -0.1621    3.5208 H   0  0  0  0  0  0  0  0  0  0  0  0
    1.4591   -3.1319    4.1230 H   0  0  0  0  0  0  0  0  0  0  0  0
   -0.0082   -2.2323    4.5121 H   0  0  0  0  0  0  0  0  0  0  0  0
    0.4878   -2.4484    2.8230 H   0  0  0  0  0  0  0  0  0  0  0  0
    3.4457   -2.8411    5.2034 H   0  0  0  0  0  0  0  0  0  0  0  0
    4.1499   -1.2696    5.5666 H   0  0  0  0  0  0  0  0  0  0  0  0
    6.4035   -2.1402    4.8881 H   0  0  0  0  0  0  0  0  0  0  0  0
    5.6875   -3.7131    4.5623 H   0  0  0  0  0  0  0  0  0  0  0  0
    5.7034   -3.0806    6.2143 H   0  0  0  0  0  0  0  0  0  0  0  0
    4.9702   -1.0584   -4.3540 H   0  0  0  0  0  0  0  0  0  0  0  0
    6.2941   -3.0320   -3.8341 H   0  0  0  0  0  0  0  0  0  0  0  0
    7.9137   -3.9714   -2.3659 H   0  0  0  0  0  0  0  0  0  0  0  0
    8.1214   -5.7286   -2.2117 H   0  0  0  0  0  0  0  0  0  0  0  0
    7.3563   -5.0712   -3.6714 H   0  0  0  0  0  0  0  0  0  0  0  0
    3.4139   -4.1867   -0.8856 H   0  0  0  0  0  0  0  0  0  0  0  0
    2.0598   -2.2194   -1.4439 H   0  0  0  0  0  0  0  0  0  0  0  0
    2.8560    2.2682   -3.8178 H   0  0  0  0  0  0  0  0  0  0  0  0
    2.4986    3.2059   -6.0418 H   0  0  0  0  0  0  0  0  0  0  0  0
    2.3167    4.2023   -8.1510 H   0  0  0  0  0  0  0  0  0  0  0  0
    1.0127    3.9174   -9.3212 H   0  0  0  0  0  0  0  0  0  0  0  0
    0.7034    3.6547   -7.5890 H   0  0  0  0  0  0  0  0  0  0  0  0
    2.0850   -0.7410   -7.6360 H   0  0  0  0  0  0  0  0  0  0  0  0
    2.4179   -1.6847   -5.3815 H   0  0  0  0  0  0  0  0  0  0  0  0
   -1.7835    0.0511    0.2117 H   0  0  0  0  0  0  0  0  0  0  0  0
   -1.9119   -1.1735    2.3250 H   0  0  0  0  0  0  0  0  0  0  0  0
   -3.3882   -1.9915    5.6619 H   0  0  0  0  0  0  0  0  0  0  0  0
   -3.8579   -1.2574    4.1106 H   0  0  0  0  0  0  0  0  0  0  0  0
   -2.4778   -2.3941    4.1921 H   0  0  0  0  0  0  0  0  0  0  0  0
   -1.5545    2.5024    4.4776 H   0  0  0  0  0  0  0  0  0  0  0  0
   -1.3984    3.7328    2.3457 H   0  0  0  0  0  0  0  0  0  0  0  0
   -0.9514    4.6968   -1.6722 H   0  0  0  0  0  0  0  0  0  0  0  0
   -2.2380    6.7329   -2.0105 H   0  0  0  0  0  0  0  0  0  0  0  0
   -3.4747    8.6224   -2.5989 H   0  0  0  0  0  0  0  0  0  0  0  0
   -4.4698    7.2295   -3.1290 H   0  0  0  0  0  0  0  0  0  0  0  0
   -5.2292    8.8053   -2.7938 H   0  0  0  0  0  0  0  0  0  0  0  0
   -5.0758    5.4337    0.9071 H   0  0  0  0  0  0  0  0  0  0  0  0
   -3.8126    3.3503    1.2071 H   0  0  0  0  0  0  0  0  0  0  0  0
   -8.3294    1.7122   -1.8545 H   0  0  0  0  0  0  0  0  0  0  0  0
   -7.7142    0.5563   -0.6569 H   0  0  0  0  0  0  0  0  0  0  0  0
   -7.9138    3.5809   -0.2416 H   0  0  0  0  0  0  0  0  0  0  0  0
   -7.4230    2.4172    0.9842 H   0  0  0  0  0  0  0  0  0  0  0  0
   -9.0832    2.4065    0.3794 H   0  0  0  0  0  0  0  0  0  0  0  0
   -6.0021    0.6009    0.8875 H   0  0  0  0  0  0  0  0  0  0  0  0
   -4.2275    0.6531    0.9038 H   0  0  0  0  0  0  0  0  0  0  0  0
   -4.1399   -1.1536   -0.7872 H   0  0  0  0  0  0  0  0  0  0  0  0
   -5.9012   -1.2427   -0.8172 H   0  0  0  0  0  0  0  0  0  0  0  0
   -5.0231   -1.6807    0.6512 H   0  0  0  0  0  0  0  0  0  0  0  0
   -6.0021    4.8105   -5.7023 H   0  0  0  0  0  0  0  0  0  0  0  0
   -8.0414    6.7041   -0.0993 H   0  0  0  0  0  0  0  0  0  0  0  0
  -10.0500    8.1866   -0.0922 H   0  0  0  0  0  0  0  0  0  0  0  0
  -10.5530    7.6043   -4.3042 H   0  0  0  0  0  0  0  0  0  0  0  0
  1  2  2  0  0  0  0
  2  3  1  0  0  0  0
  3  4  2  0  0  0  0
  3  5  1  0  0  0  0
  5  6  2  0  0  0  0
  6  7  1  0  0  0  0
  7  8  2  0  0  0  0
  8  9  1  0  0  0  0
  9 10  2  0  0  0  0
 10 11  1  0  0  0  0
 11 12  2  0  0  0  0
 12 13  1  0  0  0  0
 13 14  3  0  0  0  0
 12 15  1  0  0  0  0
 15 16  3  0  0  0  0
  8 17  1  0  0  0  0
 17 18  1  0  0  0  0
 18 19  1  0  0  0  0
 19 20  2  0  0  0  0
 20 21  1  0  0  0  0
 21 22  1  0  0  0  0
 21 23  1  0  0  0  0
  1 24  1  0  0  0  0
 24 25  2  0  0  0  0
 25 26  1  0  0  0  0
 25 27  1  0  0  0  0
 27 28  1  0  0  0  0
 27 29  2  0  0  0  0
 29 30  1  0  0  0  0
 30 31  2  0  0  0  0
 31 32  1  0  0  0  0
 32 33  1  0  0  0  0
 33 34  1  0  0  0  0
 32 35  2  0  0  0  0
 35 36  1  0  0  0  0
 36 37  2  0  0  0  0
 35 38  1  0  0  0  0
 38 39  1  0  0  0  0
 29 40  1  0  0  0  0
 40 41  2  0  0  0  0
 41 42  1  0  0  0  0
 42 43  1  0  0  0  0
 43 44  2  0  0  0  0
 44 45  1  0  0  0  0
 45 46  2  0  0  0  0
 46 47  1  0  0  0  0
 47 48  1  0  0  0  0
 46 49  1  0  0  0  0
 49 50  2  0  0  0  0
 42 51  1  0  0  0  0
 51 52  2  0  0  0  0
 52 53  1  0  0  0  0
 53 54  2  0  0  0  0
 54 55  1  0  0  0  0
 55 56  1  0  0  0  0
 54 57  1  0  0  0  0
 57 58  2  0  0  0  0
 41 59  1  0  0  0  0
 59 60  1  0  0  0  0
 60 61  1  0  0  0  0
 61 62  2  0  0  0  0
 62 63  1  0  0  0  0
 63 64  1  0  0  0  0
 64 65  2  0  0  0  0
 65 66  1  0  0  0  0
 66 67  2  0  0  0  0
 67 68  1  0  0  0  0
 68 69  1  0  0  0  0
 67 70  1  0  0  0  0
 70 71  2  0  0  0  0
 63 72  1  0  0  0  0
 72 73  2  0  0  0  0
 73 74  1  0  0  0  0
 74 75  2  0  0  0  0
 75 76  1  0  0  0  0
 76 77  1  0  0  0  0
 75 78  1  0  0  0  0
 78 79  2  0  0  0  0
 62 80  1  0  0  0  0
 80 81  1  0  0  0  0
 61 82  1  0  0  0  0
 82 83  2  0  0  0  0
 83 84  1  0  0  0  0
 83 85  1  0  0  0  0
 85 86  1  0  0  0  0
 85 87  2  0  0  0  0
 87 88  1  0  0  0  0
 88 89  2  0  0  0  0
 89 90  1  0  0  0  0
 90 91  1  0  0  0  0
 91 92  1  0  0  0  0
 90 93  2  0  0  0  0
 93 94  1  0  0  0  0
 94 95  2  0  0  0  0
 93 96  1  0  0  0  0
 96 97  1  0  0  0  0
 87 98  1  0  0  0  0
 98 99  2  0  0  0  0
 99100  1  0  0  0  0
100101  2  0  0  0  0
100102  1  0  0  0  0
102103  2  0  0  0  0
103104  1  0  0  0  0
104105  2  0  0  0  0
105106  1  0  0  0  0
105107  1  0  0  0  0
107108  2  0  0  0  0
108109  1  0  0  0  0
109110  2  0  0  0  0
110111  1  0  0  0  0
111112  3  0  0  0  0
110113  1  0  0  0  0
113114  3  0  0  0  0
 11  2  1  0  0  0  0
 23 17  1  0  0  0  0
 37 24  1  0  0  0  0
 81 40  1  0  0  0  0
 95 82  1  0  0  0  0
109 99  1  0  0  0  0
 10  5  1  0  0  0  0
 22 18  1  0  0  0  0
 37 30  1  0  0  0  0
 50 43  1  0  0  0  0
 58 51  1  0  0  0  0
 80 59  2  0  0  0  0
 95 88  1  0  0  0  0
108102  1  0  0  0  0
 23  7  1  0  0  0  0
 71 64  1  0  0  0  0
 79 72  1  0  0  0  0
  1115  1  0  0  0  0
  6116  1  0  0  0  0
  9117  1  0  0  0  0
 17118  1  0  0  0  0
 18119  1  0  0  0  0
 19120  1  0  0  0  0
 20121  1  0  0  0  0
 21122  1  0  0  0  0
 22123  1  0  0  0  0
 22124  1  0  0  0  0
 23125  1  0  0  0  0
 33126  1  0  0  0  0
 33127  1  0  0  0  0
 34128  1  0  0  0  0
 34129  1  0  0  0  0
 34130  1  0  0  0  0
 38131  1  0  0  0  0
 38132  1  0  0  0  0
 39133  1  0  0  0  0
 39134  1  0  0  0  0
 39135  1  0  0  0  0
 44136  1  0  0  0  0
 45137  1  0  0  0  0
 48138  1  0  0  0  0
 48139  1  0  0  0  0
 48140  1  0  0  0  0
 49141  1  0  0  0  0
 50142  1  0  0  0  0
 52143  1  0  0  0  0
 53144  1  0  0  0  0
 56145  1  0  0  0  0
 56146  1  0  0  0  0
 56147  1  0  0  0  0
 57148  1  0  0  0  0
 58149  1  0  0  0  0
 65150  1  0  0  0  0
 66151  1  0  0  0  0
 69152  1  0  0  0  0
 69153  1  0  0  0  0
 69154  1  0  0  0  0
 70155  1  0  0  0  0
 71156  1  0  0  0  0
 73157  1  0  0  0  0
 74158  1  0  0  0  0
 77159  1  0  0  0  0
 77160  1  0  0  0  0
 77161  1  0  0  0  0
 78162  1  0  0  0  0
 79163  1  0  0  0  0
 91164  1  0  0  0  0
 91165  1  0  0  0  0
 92166  1  0  0  0  0
 92167  1  0  0  0  0
 92168  1  0  0  0  0
 96169  1  0  0  0  0
 96170  1  0  0  0  0
 97171  1  0  0  0  0
 97172  1  0  0  0  0
 97173  1  0  0  0  0
 98174  1  0  0  0  0
103175  1  0  0  0  0
104176  1  0  0  0  0
107177  1  0  0  0  0
M  END
