174

C         -2.48630        2.35230       -6.11020
C         -3.30570        3.39800       -6.47410
C         -3.22880        4.75590       -5.91270
O         -2.43560        5.16190       -5.08280
C         -4.22670        5.55020       -6.66080
C         -4.55980        6.88570       -6.46140
C         -5.58200        7.33500       -7.26400
C         -6.21850        6.52050       -8.20820
C         -5.88570        5.20560       -8.43000
C         -4.85600        4.72810       -7.61710
C         -4.28460        3.38770       -7.52300
C         -4.73120        2.26520       -8.18180
C         -5.76800        2.25420       -9.13140
N         -6.62470        2.16260       -9.89280
C         -4.27200        0.95870       -7.92480
N         -3.98680       -0.13980       -7.73880
C         -7.15460        7.61880       -8.64550
C         -6.85380        8.33850       -9.98290
C         -5.36660        8.22090      -10.20710
C         -4.76050        8.99230       -9.31460
C         -5.82700        9.64640       -8.47150
C         -6.94260        9.80070       -9.51760
C         -6.44340        8.52860       -7.59460
C         -1.89280        2.14840       -4.86400
C         -2.19070        2.63120       -3.57320
N         -3.23190        3.43070       -3.18560
C         -4.47080        3.49300       -3.82200
C         -5.01930        2.39670       -4.48560
C         -6.22700        2.50040       -5.15040
C         -6.91410        3.70710       -5.16660
S         -8.41320        3.99450       -6.04090
C         -8.77720        2.41350       -6.85320
C         -6.39800        4.79140       -4.45500
C         -5.19760        4.68890       -3.79500
C         -3.03990        4.19760       -2.01330
C         -1.88860        4.96670       -1.87550
C         -1.63720        5.63880       -0.69710
C         -2.53890        5.55040        0.35700
S         -2.26550        6.31330        1.92120
C         -0.45470        6.44820        1.98680
C         -3.72530        4.83750        0.19240
C         -3.97560        4.16270       -0.98200
C         -1.29030        2.07540       -2.62590
S         -1.09340        2.24760       -0.91720
C          0.16390        1.02850       -0.90950
C          0.44980        0.54340       -2.17580
N          1.42810       -0.37090       -2.52570
C          1.12550       -1.25780       -3.57300
C          2.08000       -1.58000       -4.53660
C          1.73620       -2.36960       -5.61170
C          0.43450       -2.84670       -5.75290
S          0.06350       -3.78660       -7.20030
C         -1.73340       -3.57390       -7.37240
C         -0.50350       -2.57550       -4.76610
C         -0.15700       -1.79090       -3.68410
C          2.61940       -0.49320       -1.81020
C          3.21700       -1.74060       -1.64270
C          4.34430       -1.88850       -0.86000
C          4.90080       -0.78690       -0.22600
S          6.30570       -0.86600        0.84160
C          6.58990       -2.64920        1.05080
C          4.34320        0.47280       -0.43570
C          3.22510        0.62090       -1.22490
C         -0.39390        1.15190       -3.14000
S         -0.58260        0.95770       -4.84130
C          0.78950        0.66670        0.34290
C          1.16030        1.61030        1.28110
F          0.92050        2.91670        1.05760
C          1.84940        1.27200        2.45510
F          2.21350        2.26930        3.27440
C          2.21930       -0.02500        2.72910
C          1.82730       -1.02500        1.80260
N          2.16200       -2.30550        2.04000
C          1.74410       -3.24000        1.22860
C          2.18350       -4.64480        1.51440
C          2.94160       -4.76610        2.82950
C          0.89900       -2.91540        0.12480
N          0.59890       -1.67020       -0.14210
C          1.07390       -0.69350        0.65150
C          0.28360       -3.95600       -0.76040
C         -1.07680       -4.38670       -0.20640
C          2.96960       -0.41130        3.92880
C          2.52770       -0.08190        5.20980
F          1.39120        0.62480        5.35840
C          3.19600       -0.49580        6.34050
C          4.33210       -1.30220        6.21980
C          4.80860       -1.60450        4.94170
C          4.13560       -1.16470        3.82310
C          4.97710       -1.76480        7.42870
C          5.52670       -2.98050        7.65080
C          5.36260       -4.19740        6.80020
O          4.99030       -4.26850        5.65080
C          5.70080       -5.33340        7.67710
C          5.58960       -6.68660        7.36120
C          5.96140       -7.53220        8.37750
C          6.40080       -7.06910        9.62670
C          6.51650       -5.73970        9.95240
C          6.15530       -4.86130        8.92540
C          6.14840       -3.40560        8.90140
C          6.70650       -2.58010        9.83680
C          7.34780       -3.02760       11.01210
N          7.88120       -3.32830       11.98260
C          6.76510       -1.17240        9.73110
N          6.86810       -0.02960        9.70710
C          6.59490       -8.46430       10.16430
C          8.04260       -9.00700       10.25230
C          8.83700       -8.27830        9.19680
C          8.43030       -8.71380        8.01190
C          7.35380       -9.74510        8.24450
C          7.85300      -10.36570        9.55920
C          6.11420       -8.97960        8.77110
H         -2.26700        1.59120       -6.84960
H         -4.05130        7.47940       -5.71780
H         -6.37850        4.59080       -9.16500
H         -8.21510        7.41710       -8.50860
H         -7.48940        8.03700      -10.81120
H         -4.92000        7.56420      -10.93050
H         -3.70630        9.10840       -9.14320
H         -5.52740       10.53670       -7.92440
H         -7.90850       10.06030       -9.08640
H         -6.68790       10.50980      -10.30390
H         -7.04260        8.92540       -6.77720
H         -4.50210        1.44890       -4.48190
H         -6.61090        1.63250       -5.66280
H         -8.88860        1.63020       -6.10950
H         -8.00200        2.17310       -7.57470
H         -9.71930        2.56530       -7.37070
H         -6.94440        5.72170       -4.45270
H         -4.79140        5.54270       -3.27530
H         -1.20290        5.03530       -2.70590
H         -0.73790        6.22590       -0.60750
H         -0.01490        5.50870        1.66650
H         -0.21000        6.63820        3.02710
H         -0.11220        7.27660        1.37350
H         -4.43200        4.79870        1.00670
H         -4.88060        3.58480       -1.09810
H          3.08090       -1.18460       -4.44960
H          2.46540       -2.60290       -6.37210
H         -1.97280       -3.90090       -8.37940
H         -1.99070       -2.52590       -7.25310
H         -2.26010       -4.19480       -6.65350
H         -1.50650       -2.96500       -4.83340
H         -0.88780       -1.57330       -2.91900
H          2.77830       -2.60830       -2.11230
H          4.77030       -2.87200       -0.74480
H          5.68540       -3.13080        1.41180
H          7.37450       -2.73250        1.79620
H          6.92520       -3.08770        0.11530
H          4.80010        1.33300        0.02920
H          2.81090        1.60390       -1.38900
H          1.30560       -5.29530        1.53330
H          2.81560       -4.98060        0.68540
H          3.24450       -5.79660        2.99500
H          2.31670       -4.44680        3.65800
H          3.82550       -4.13690        2.83220
H          0.94150       -4.82140       -0.84510
H          0.14070       -3.52220       -1.75130
H         -0.97640       -4.81070        0.79050
H         -1.52570       -5.13300       -0.85690
H         -1.74120       -3.52830       -0.14810
H          2.80770       -0.22540        7.31060
H          5.72050       -2.16610        4.83030
H          4.51040       -1.38990        2.83970
H          4.94350       -1.06420        8.25560
H          5.23650       -7.00020        6.39120
H          6.84610       -5.39670       10.91900
H          5.99970       -8.72460       11.03710
H          8.46360       -9.00910       11.25390
H          9.55040       -7.50470        9.41260
H          8.73610       -8.37640        7.03880
H          7.14910      -10.42060        7.41810
H          8.78780      -10.91080        9.43900
H          7.11570      -11.00240       10.04620
H          5.20870       -9.58220        8.73390
