
  xtb     02082214363D
 energy: -349.806287103250 gnorm: 0.000975826674 xtb: 6.4.1 (unknown)
208230  0     0  0            999 V2000
    7.5385   -2.8772   -5.4748 C   0  0  0  0  0  0  0  0  0  0  0  0
    8.3200   -2.2179   -4.5867 C   0  0  0  0  0  0  0  0  0  0  0  0
    7.8068   -1.2421   -3.5794 C   0  0  0  0  0  0  0  0  0  0  0  0
    6.6653   -0.8590   -3.4304 O   0  0  0  0  0  0  0  0  0  0  0  0
    8.9499   -0.9311   -2.7090 C   0  0  0  0  0  0  0  0  0  0  0  0
    8.9439   -0.0736   -1.6102 C   0  0  0  0  0  0  0  0  0  0  0  0
   10.1549    0.0224   -0.9698 C   0  0  0  0  0  0  0  0  0  0  0  0
   11.2888   -0.6919   -1.3835 C   0  0  0  0  0  0  0  0  0  0  0  0
   11.3061   -1.5476   -2.4586 C   0  0  0  0  0  0  0  0  0  0  0  0
   10.0846   -1.6544   -3.1324 C   0  0  0  0  0  0  0  0  0  0  0  0
    9.7258   -2.4554   -4.2970 C   0  0  0  0  0  0  0  0  0  0  0  0
   10.5716   -3.2545   -5.0178 C   0  0  0  0  0  0  0  0  0  0  0  0
   10.2059   -4.0015   -6.1586 C   0  0  0  0  0  0  0  0  0  0  0  0
    9.9936   -4.6374   -7.0907 N   0  0  0  0  0  0  0  0  0  0  0  0
   11.9385   -3.4443   -4.7230 C   0  0  0  0  0  0  0  0  0  0  0  0
   13.0544   -3.6458   -4.5437 N   0  0  0  0  0  0  0  0  0  0  0  0
   12.1492   -0.1141   -0.2882 C   0  0  0  0  0  0  0  0  0  0  0  0
   13.1435    1.0100   -0.6710 C   0  0  0  0  0  0  0  0  0  0  0  0
   12.5672    1.6982   -1.8837 C   0  0  0  0  0  0  0  0  0  0  0  0
   11.4949    2.3746   -1.4941 C   0  0  0  0  0  0  0  0  0  0  0  0
   11.3268    2.1564   -0.0106 C   0  0  0  0  0  0  0  0  0  0  0  0
   12.7992    2.0419    0.4150 C   0  0  0  0  0  0  0  0  0  0  0  0
   10.8871    0.6823    0.1708 C   0  0  0  0  0  0  0  0  0  0  0  0
    6.1674   -2.5173   -5.7323 C   0  0  0  0  0  0  0  0  0  0  0  0
    5.7459   -1.2078   -5.9038 C   0  0  0  0  0  0  0  0  0  0  0  0
    6.6495   -0.2281   -6.0423 F   0  0  0  0  0  0  0  0  0  0  0  0
    4.3980   -0.8565   -5.9735 C   0  0  0  0  0  0  0  0  0  0  0  0
    4.1212    0.4500   -6.1277 F   0  0  0  0  0  0  0  0  0  0  0  0
    3.3822   -1.7965   -5.8288 C   0  0  0  0  0  0  0  0  0  0  0  0
    3.7972   -3.1592   -5.7830 C   0  0  0  0  0  0  0  0  0  0  0  0
    2.8594   -4.1128   -5.7077 N   0  0  0  0  0  0  0  0  0  0  0  0
    3.2063   -5.3746   -5.6638 C   0  0  0  0  0  0  0  0  0  0  0  0
    2.0939   -6.3651   -5.5156 C   0  0  0  0  0  0  0  0  0  0  0  0
    1.8843   -6.7159   -4.0402 C   0  0  0  0  0  0  0  0  0  0  0  0
    4.5850   -5.7380   -5.7210 C   0  0  0  0  0  0  0  0  0  0  0  0
    5.5165   -4.8181   -5.7450 N   0  0  0  0  0  0  0  0  0  0  0  0
    5.1645   -3.5220   -5.7710 C   0  0  0  0  0  0  0  0  0  0  0  0
    5.0285   -7.1683   -5.7734 C   0  0  0  0  0  0  0  0  0  0  0  0
    6.5441   -7.3090   -5.8140 C   0  0  0  0  0  0  0  0  0  0  0  0
    2.0107   -1.4685   -5.5832 C   0  0  0  0  0  0  0  0  0  0  0  0
    1.4573   -0.2206   -5.4754 C   0  0  0  0  0  0  0  0  0  0  0  0
    0.1687   -0.2127   -4.9049 C   0  0  0  0  0  0  0  0  0  0  0  0
   -0.5854    0.9238   -4.5404 C   0  0  0  0  0  0  0  0  0  0  0  0
   -0.1264    2.2829   -4.6856 C   0  0  0  0  0  0  0  0  0  0  0  0
   -0.8803    3.4146   -4.8670 C   0  0  0  0  0  0  0  0  0  0  0  0
   -0.1432    4.6046   -4.7860 C   0  0  0  0  0  0  0  0  0  0  0  0
    1.1823    4.3936   -4.5114 C   0  0  0  0  0  0  0  0  0  0  0  0
    2.3728    5.6435   -4.2843 S   0  0  0  0  0  0  0  0  0  0  0  0
    3.9076    4.6926   -3.9974 C   0  0  0  0  0  0  0  0  0  0  0  0
    4.5024    4.1378   -5.2760 C   0  0  0  0  0  0  0  0  0  0  0  0
    1.5386    2.7065   -4.3899 S   0  0  0  0  0  0  0  0  0  0  0  0
   -1.7465    0.6658   -3.8232 C   0  0  0  0  0  0  0  0  0  0  0  0
   -2.1816   -0.6330   -3.4715 C   0  0  0  0  0  0  0  0  0  0  0  0
   -1.5019   -1.7727   -3.9663 C   0  0  0  0  0  0  0  0  0  0  0  0
   -2.0146   -3.1030   -3.7529 C   0  0  0  0  0  0  0  0  0  0  0  0
   -1.3521   -4.3007   -3.6745 C   0  0  0  0  0  0  0  0  0  0  0  0
   -2.1947   -5.4132   -3.5385 C   0  0  0  0  0  0  0  0  0  0  0  0
   -3.5223   -5.0795   -3.5256 C   0  0  0  0  0  0  0  0  0  0  0  0
   -4.8450   -6.2065   -3.3925 S   0  0  0  0  0  0  0  0  0  0  0  0
   -6.2734   -5.0673   -3.2786 C   0  0  0  0  0  0  0  0  0  0  0  0
   -7.5311   -5.8588   -2.9868 C   0  0  0  0  0  0  0  0  0  0  0  0
   -3.7445   -3.3654   -3.6683 S   0  0  0  0  0  0  0  0  0  0  0  0
   -0.2992   -1.5220   -4.6282 C   0  0  0  0  0  0  0  0  0  0  0  0
    0.8853   -2.7188   -5.1061 S   0  0  0  0  0  0  0  0  0  0  0  0
   -3.1146   -0.5889   -2.4071 C   0  0  0  0  0  0  0  0  0  0  0  0
   -3.3518    0.6773   -1.9446 C   0  0  0  0  0  0  0  0  0  0  0  0
   -2.6295    1.8954   -2.9643 S   0  0  0  0  0  0  0  0  0  0  0  0
   -3.7908    1.0078   -0.6276 C   0  0  0  0  0  0  0  0  0  0  0  0
   -3.2455    1.9975    0.1785 C   0  0  0  0  0  0  0  0  0  0  0  0
   -2.3771    3.0097   -0.2824 N   0  0  0  0  0  0  0  0  0  0  0  0
   -1.0203    2.7376   -0.4594 C   0  0  0  0  0  0  0  0  0  0  0  0
   -0.0872    3.7761   -0.5403 C   0  0  0  0  0  0  0  0  0  0  0  0
    1.2344    3.5166   -0.8256 C   0  0  0  0  0  0  0  0  0  0  0  0
    1.6772    2.2109   -1.0222 C   0  0  0  0  0  0  0  0  0  0  0  0
    3.3873    1.9755   -1.4277 S   0  0  0  0  0  0  0  0  0  0  0  0
    3.4235    0.3459   -2.2244 C   0  0  0  0  0  0  0  0  0  0  0  0
    0.7802    1.1685   -0.8523 C   0  0  0  0  0  0  0  0  0  0  0  0
   -0.5456    1.4287   -0.5635 C   0  0  0  0  0  0  0  0  0  0  0  0
   -2.9770    4.2058   -0.7106 C   0  0  0  0  0  0  0  0  0  0  0  0
   -4.1110    4.6891   -0.0560 C   0  0  0  0  0  0  0  0  0  0  0  0
   -4.7294    5.8430   -0.4835 C   0  0  0  0  0  0  0  0  0  0  0  0
   -4.2377    6.5484   -1.5783 C   0  0  0  0  0  0  0  0  0  0  0  0
   -5.1107    8.0164   -2.0308 S   0  0  0  0  0  0  0  0  0  0  0  0
   -4.1538    8.6818   -3.4227 C   0  0  0  0  0  0  0  0  0  0  0  0
   -3.1207    6.0653   -2.2446 C   0  0  0  0  0  0  0  0  0  0  0  0
   -2.5035    4.9061   -1.8187 C   0  0  0  0  0  0  0  0  0  0  0  0
   -3.6189    1.8239    1.5270 C   0  0  0  0  0  0  0  0  0  0  0  0
   -3.2854    2.6953    2.9815 S   0  0  0  0  0  0  0  0  0  0  0  0
   -4.2038    1.5065    3.9122 C   0  0  0  0  0  0  0  0  0  0  0  0
   -4.8133    0.5334    3.0806 C   0  0  0  0  0  0  0  0  0  0  0  0
   -5.6397   -0.4822    3.4905 N   0  0  0  0  0  0  0  0  0  0  0  0
   -6.5397   -0.3488    4.5601 C   0  0  0  0  0  0  0  0  0  0  0  0
   -7.1792    0.8677    4.8083 C   0  0  0  0  0  0  0  0  0  0  0  0
   -7.9797    1.0114    5.9177 C   0  0  0  0  0  0  0  0  0  0  0  0
   -8.1794   -0.0600    6.7884 C   0  0  0  0  0  0  0  0  0  0  0  0
   -9.1479    0.2443    8.2314 S   0  0  0  0  0  0  0  0  0  0  0  0
   -8.6344   -1.0889    9.3525 C   0  0  0  0  0  0  0  0  0  0  0  0
   -7.6190   -1.2944    6.4923 C   0  0  0  0  0  0  0  0  0  0  0  0
   -6.7963   -1.4348    5.3918 C   0  0  0  0  0  0  0  0  0  0  0  0
   -5.6151   -1.6865    2.7617 C   0  0  0  0  0  0  0  0  0  0  0  0
   -4.3964   -2.2561    2.4054 C   0  0  0  0  0  0  0  0  0  0  0  0
   -4.3516   -3.4126    1.6524 C   0  0  0  0  0  0  0  0  0  0  0  0
   -5.5323   -4.0226    1.2510 C   0  0  0  0  0  0  0  0  0  0  0  0
   -5.6015   -5.4816    0.2651 S   0  0  0  0  0  0  0  0  0  0  0  0
   -3.8634   -5.9354    0.0159 C   0  0  0  0  0  0  0  0  0  0  0  0
   -6.7551   -3.4691    1.6309 C   0  0  0  0  0  0  0  0  0  0  0  0
   -6.7992   -2.3143    2.3785 C   0  0  0  0  0  0  0  0  0  0  0  0
   -4.4469    0.7261    1.7389 C   0  0  0  0  0  0  0  0  0  0  0  0
   -4.7929   -0.1148    0.2606 S   0  0  0  0  0  0  0  0  0  0  0  0
   -4.2412    1.4461    5.3063 C   0  0  0  0  0  0  0  0  0  0  0  0
   -3.7916    2.3355    6.2528 C   0  0  0  0  0  0  0  0  0  0  0  0
   -3.2282    3.6635    5.9951 C   0  0  0  0  0  0  0  0  0  0  0  0
   -2.9360    4.1492    4.9158 O   0  0  0  0  0  0  0  0  0  0  0  0
   -3.0932    4.3160    7.3095 C   0  0  0  0  0  0  0  0  0  0  0  0
   -2.6120    5.5972    7.5669 C   0  0  0  0  0  0  0  0  0  0  0  0
   -2.5972    5.9304    8.9005 C   0  0  0  0  0  0  0  0  0  0  0  0
   -3.0328    5.0557    9.9041 C   0  0  0  0  0  0  0  0  0  0  0  0
   -3.5126    3.7896    9.6629 C   0  0  0  0  0  0  0  0  0  0  0  0
   -3.5328    3.4290    8.3129 C   0  0  0  0  0  0  0  0  0  0  0  0
   -3.9381    2.1749    7.6798 C   0  0  0  0  0  0  0  0  0  0  0  0
   -4.3573    1.0483    8.3461 C   0  0  0  0  0  0  0  0  0  0  0  0
   -4.5893   -0.2101    7.7614 C   0  0  0  0  0  0  0  0  0  0  0  0
   -4.7545   -1.2853    7.3865 N   0  0  0  0  0  0  0  0  0  0  0  0
   -4.5871    0.9715    9.7340 C   0  0  0  0  0  0  0  0  0  0  0  0
   -4.8299    0.8261   10.8476 N   0  0  0  0  0  0  0  0  0  0  0  0
   -2.7262    6.0391   11.0063 C   0  0  0  0  0  0  0  0  0  0  0  0
   -1.4393    5.7831   11.8190 C   0  0  0  0  0  0  0  0  0  0  0  0
   -1.1493    7.1175   12.4674 C   0  0  0  0  0  0  0  0  0  0  0  0
   -0.7368    7.9466   11.5171 C   0  0  0  0  0  0  0  0  0  0  0  0
   -0.7408    7.1864   10.2105 C   0  0  0  0  0  0  0  0  0  0  0  0
   -0.3703    5.7870   10.7185 C   0  0  0  0  0  0  0  0  0  0  0  0
   -2.2402    7.0147    9.8868 C   0  0  0  0  0  0  0  0  0  0  0  0
    7.8877   -3.7712   -5.9724 H   0  0  0  0  0  0  0  0  0  0  0  0
    8.0469    0.4535   -1.3243 H   0  0  0  0  0  0  0  0  0  0  0  0
   12.1836   -2.0962   -2.7573 H   0  0  0  0  0  0  0  0  0  0  0  0
   12.5812   -0.8314    0.4068 H   0  0  0  0  0  0  0  0  0  0  0  0
   14.1788    0.6891   -0.7478 H   0  0  0  0  0  0  0  0  0  0  0  0
   12.9535    1.5797   -2.8790 H   0  0  0  0  0  0  0  0  0  0  0  0
   10.8054    2.9339   -2.0988 H   0  0  0  0  0  0  0  0  0  0  0  0
   10.7080    2.8793    0.5142 H   0  0  0  0  0  0  0  0  0  0  0  0
   13.3456    2.9762    0.2962 H   0  0  0  0  0  0  0  0  0  0  0  0
   12.9301    1.6655    1.4287 H   0  0  0  0  0  0  0  0  0  0  0  0
   10.4936    0.4863    1.1663 H   0  0  0  0  0  0  0  0  0  0  0  0
    2.3087   -7.2701   -6.0845 H   0  0  0  0  0  0  0  0  0  0  0  0
    1.1831   -5.9056   -5.9013 H   0  0  0  0  0  0  0  0  0  0  0  0
    1.6757   -5.8143   -3.4699 H   0  0  0  0  0  0  0  0  0  0  0  0
    2.7672   -7.1901   -3.6179 H   0  0  0  0  0  0  0  0  0  0  0  0
    1.0436   -7.3968   -3.9366 H   0  0  0  0  0  0  0  0  0  0  0  0
    4.6288   -7.6981   -4.9049 H   0  0  0  0  0  0  0  0  0  0  0  0
    4.5890   -7.6305   -6.6627 H   0  0  0  0  0  0  0  0  0  0  0  0
    6.9496   -6.7983   -6.6824 H   0  0  0  0  0  0  0  0  0  0  0  0
    6.8210   -8.3590   -5.8612 H   0  0  0  0  0  0  0  0  0  0  0  0
    6.9876   -6.8668   -4.9263 H   0  0  0  0  0  0  0  0  0  0  0  0
    1.9643    0.6752   -5.7754 H   0  0  0  0  0  0  0  0  0  0  0  0
   -1.9321    3.3886   -5.0913 H   0  0  0  0  0  0  0  0  0  0  0  0
   -0.5599    5.5862   -4.9161 H   0  0  0  0  0  0  0  0  0  0  0  0
    4.5804    5.4140   -3.5338 H   0  0  0  0  0  0  0  0  0  0  0  0
    3.6778    3.9055   -3.2785 H   0  0  0  0  0  0  0  0  0  0  0  0
    4.7278    4.9402   -5.9749 H   0  0  0  0  0  0  0  0  0  0  0  0
    3.8222    3.4381   -5.7550 H   0  0  0  0  0  0  0  0  0  0  0  0
    5.4218    3.6053   -5.0436 H   0  0  0  0  0  0  0  0  0  0  0  0
   -0.2819   -4.3805   -3.6825 H   0  0  0  0  0  0  0  0  0  0  0  0
   -1.8497   -6.4272   -3.4551 H   0  0  0  0  0  0  0  0  0  0  0  0
   -6.0597   -4.3622   -2.4750 H   0  0  0  0  0  0  0  0  0  0  0  0
   -6.3417   -4.5352   -4.2281 H   0  0  0  0  0  0  0  0  0  0  0  0
   -7.7106   -6.5968   -3.7651 H   0  0  0  0  0  0  0  0  0  0  0  0
   -7.4385   -6.3710   -2.0322 H   0  0  0  0  0  0  0  0  0  0  0  0
   -8.3831   -5.1849   -2.9401 H   0  0  0  0  0  0  0  0  0  0  0  0
   -3.4816   -1.4577   -1.8902 H   0  0  0  0  0  0  0  0  0  0  0  0
   -0.4053    4.7940   -0.3790 H   0  0  0  0  0  0  0  0  0  0  0  0
    1.9395    4.3305   -0.9018 H   0  0  0  0  0  0  0  0  0  0  0  0
    2.6631    0.3075   -2.9998 H   0  0  0  0  0  0  0  0  0  0  0  0
    3.2724   -0.4376   -1.4871 H   0  0  0  0  0  0  0  0  0  0  0  0
    4.4125    0.2459   -2.6628 H   0  0  0  0  0  0  0  0  0  0  0  0
    1.0977    0.1419   -0.9514 H   0  0  0  0  0  0  0  0  0  0  0  0
   -1.2146    0.5922   -0.4313 H   0  0  0  0  0  0  0  0  0  0  0  0
   -4.5063    4.1670    0.8006 H   0  0  0  0  0  0  0  0  0  0  0  0
   -5.6013    6.2148    0.0326 H   0  0  0  0  0  0  0  0  0  0  0  0
   -4.1800    7.9887   -4.2586 H   0  0  0  0  0  0  0  0  0  0  0  0
   -3.1342    8.8847   -3.1082 H   0  0  0  0  0  0  0  0  0  0  0  0
   -4.6463    9.6091   -3.6986 H   0  0  0  0  0  0  0  0  0  0  0  0
   -2.7207    6.5733   -3.1071 H   0  0  0  0  0  0  0  0  0  0  0  0
   -1.6517    4.5378   -2.3686 H   0  0  0  0  0  0  0  0  0  0  0  0
   -7.0189    1.7037    4.1440 H   0  0  0  0  0  0  0  0  0  0  0  0
   -8.4553    1.9565    6.1296 H   0  0  0  0  0  0  0  0  0  0  0  0
   -8.9873   -0.7987   10.3372 H   0  0  0  0  0  0  0  0  0  0  0  0
   -7.5509   -1.1620    9.3536 H   0  0  0  0  0  0  0  0  0  0  0  0
   -9.0935   -2.0288    9.0598 H   0  0  0  0  0  0  0  0  0  0  0  0
   -7.7877   -2.1483    7.1268 H   0  0  0  0  0  0  0  0  0  0  0  0
   -6.3276   -2.3856    5.1923 H   0  0  0  0  0  0  0  0  0  0  0  0
   -3.4763   -1.7867    2.7215 H   0  0  0  0  0  0  0  0  0  0  0  0
   -3.3913   -3.8257    1.3901 H   0  0  0  0  0  0  0  0  0  0  0  0
   -3.8833   -6.8324   -0.5955 H   0  0  0  0  0  0  0  0  0  0  0  0
   -3.3949   -6.1466    0.9725 H   0  0  0  0  0  0  0  0  0  0  0  0
   -3.3415   -5.1453   -0.5163 H   0  0  0  0  0  0  0  0  0  0  0  0
   -7.6681   -3.9538    1.3212 H   0  0  0  0  0  0  0  0  0  0  0  0
   -7.7476   -1.8835    2.6616 H   0  0  0  0  0  0  0  0  0  0  0  0
   -4.7153    0.5529    5.6918 H   0  0  0  0  0  0  0  0  0  0  0  0
   -2.2880    6.2395    6.7629 H   0  0  0  0  0  0  0  0  0  0  0  0
   -3.8478    3.1297   10.4458 H   0  0  0  0  0  0  0  0  0  0  0  0
   -3.5695    6.3359   11.6267 H   0  0  0  0  0  0  0  0  0  0  0  0
   -1.4801    4.9182   12.4755 H   0  0  0  0  0  0  0  0  0  0  0  0
   -1.3219    7.3299   13.5062 H   0  0  0  0  0  0  0  0  0  0  0  0
   -0.4959    8.9900   11.6035 H   0  0  0  0  0  0  0  0  0  0  0  0
   -0.1445    7.6002    9.4017 H   0  0  0  0  0  0  0  0  0  0  0  0
    0.6391    5.7507   11.1252 H   0  0  0  0  0  0  0  0  0  0  0  0
   -0.4927    4.9991    9.9777 H   0  0  0  0  0  0  0  0  0  0  0  0
   -2.7599    7.9627    9.7606 H   0  0  0  0  0  0  0  0  0  0  0  0
  1  2  2  0  0  0  0
  2  3  1  0  0  0  0
  3  4  2  0  0  0  0
  3  5  1  0  0  0  0
  5  6  2  0  0  0  0
  6  7  1  0  0  0  0
  7  8  2  0  0  0  0
  8  9  1  0  0  0  0
  9 10  2  0  0  0  0
 10 11  1  0  0  0  0
 11 12  2  0  0  0  0
 12 13  1  0  0  0  0
 13 14  3  0  0  0  0
 12 15  1  0  0  0  0
 15 16  3  0  0  0  0
  8 17  1  0  0  0  0
 17 18  1  0  0  0  0
 18 19  1  0  0  0  0
 19 20  2  0  0  0  0
 20 21  1  0  0  0  0
 21 22  1  0  0  0  0
 21 23  1  0  0  0  0
  1 24  1  0  0  0  0
 24 25  2  0  0  0  0
 25 26  1  0  0  0  0
 25 27  1  0  0  0  0
 27 28  1  0  0  0  0
 27 29  2  0  0  0  0
 29 30  1  0  0  0  0
 30 31  2  0  0  0  0
 31 32  1  0  0  0  0
 32 33  1  0  0  0  0
 33 34  1  0  0  0  0
 32 35  2  0  0  0  0
 35 36  1  0  0  0  0
 36 37  2  0  0  0  0
 35 38  1  0  0  0  0
 38 39  1  0  0  0  0
 29 40  1  0  0  0  0
 40 41  2  0  0  0  0
 41 42  1  0  0  0  0
 42 43  2  0  0  0  0
 43 44  1  0  0  0  0
 44 45  2  0  0  0  0
 45 46  1  0  0  0  0
 46 47  2  0  0  0  0
 47 48  1  0  0  0  0
 48 49  1  0  0  0  0
 49 50  1  0  0  0  0
 47 51  1  0  0  0  0
 43 52  1  0  0  0  0
 52 53  2  0  0  0  0
 53 54  1  0  0  0  0
 54 55  1  0  0  0  0
 55 56  2  0  0  0  0
 56 57  1  0  0  0  0
 57 58  2  0  0  0  0
 58 59  1  0  0  0  0
 59 60  1  0  0  0  0
 60 61  1  0  0  0  0
 58 62  1  0  0  0  0
 54 63  2  0  0  0  0
 63 64  1  0  0  0  0
 53 65  1  0  0  0  0
 65 66  2  0  0  0  0
 66 67  1  0  0  0  0
 66 68  1  0  0  0  0
 68 69  2  0  0  0  0
 69 70  1  0  0  0  0
 70 71  1  0  0  0  0
 71 72  2  0  0  0  0
 72 73  1  0  0  0  0
 73 74  2  0  0  0  0
 74 75  1  0  0  0  0
 75 76  1  0  0  0  0
 74 77  1  0  0  0  0
 77 78  2  0  0  0  0
 70 79  1  0  0  0  0
 79 80  2  0  0  0  0
 80 81  1  0  0  0  0
 81 82  2  0  0  0  0
 82 83  1  0  0  0  0
 83 84  1  0  0  0  0
 82 85  1  0  0  0  0
 85 86  2  0  0  0  0
 69 87  1  0  0  0  0
 87 88  1  0  0  0  0
 88 89  1  0  0  0  0
 89 90  2  0  0  0  0
 90 91  1  0  0  0  0
 91 92  1  0  0  0  0
 92 93  2  0  0  0  0
 93 94  1  0  0  0  0
 94 95  2  0  0  0  0
 95 96  1  0  0  0  0
 96 97  1  0  0  0  0
 95 98  1  0  0  0  0
 98 99  2  0  0  0  0
 91100  1  0  0  0  0
100101  2  0  0  0  0
101102  1  0  0  0  0
102103  2  0  0  0  0
103104  1  0  0  0  0
104105  1  0  0  0  0
103106  1  0  0  0  0
106107  2  0  0  0  0
 90108  1  0  0  0  0
108109  1  0  0  0  0
 89110  1  0  0  0  0
110111  2  0  0  0  0
111112  1  0  0  0  0
112113  2  0  0  0  0
112114  1  0  0  0  0
114115  2  0  0  0  0
115116  1  0  0  0  0
116117  2  0  0  0  0
117118  1  0  0  0  0
118119  2  0  0  0  0
119120  1  0  0  0  0
120121  2  0  0  0  0
121122  1  0  0  0  0
122123  3  0  0  0  0
121124  1  0  0  0  0
124125  3  0  0  0  0
117126  1  0  0  0  0
126127  1  0  0  0  0
127128  1  0  0  0  0
128129  2  0  0  0  0
129130  1  0  0  0  0
130131  1  0  0  0  0
130132  1  0  0  0  0
 11  2  1  0  0  0  0
 23 17  1  0  0  0  0
 37 24  1  0  0  0  0
 64 40  1  0  0  0  0
109 68  1  0  0  0  0
120111  1  0  0  0  0
132126  1  0  0  0  0
 10  5  1  0  0  0  0
 22 18  1  0  0  0  0
 37 30  1  0  0  0  0
 63 42  1  0  0  0  0
 78 71  1  0  0  0  0
 86 79  1  0  0  0  0
108 87  2  0  0  0  0
119114  1  0  0  0  0
131127  1  0  0  0  0
 23  7  1  0  0  0  0
 51 44  1  0  0  0  0
 67 52  1  0  0  0  0
 99 92  1  0  0  0  0
107100  1  0  0  0  0
132116  1  0  0  0  0
 62 55  1  0  0  0  0
  1133  1  0  0  0  0
  6134  1  0  0  0  0
  9135  1  0  0  0  0
 17136  1  0  0  0  0
 18137  1  0  0  0  0
 19138  1  0  0  0  0
 20139  1  0  0  0  0
 21140  1  0  0  0  0
 22141  1  0  0  0  0
 22142  1  0  0  0  0
 23143  1  0  0  0  0
 33144  1  0  0  0  0
 33145  1  0  0  0  0
 34146  1  0  0  0  0
 34147  1  0  0  0  0
 34148  1  0  0  0  0
 38149  1  0  0  0  0
 38150  1  0  0  0  0
 39151  1  0  0  0  0
 39152  1  0  0  0  0
 39153  1  0  0  0  0
 41154  1  0  0  0  0
 45155  1  0  0  0  0
 46156  1  0  0  0  0
 49157  1  0  0  0  0
 49158  1  0  0  0  0
 50159  1  0  0  0  0
 50160  1  0  0  0  0
 50161  1  0  0  0  0
 56162  1  0  0  0  0
 57163  1  0  0  0  0
 60164  1  0  0  0  0
 60165  1  0  0  0  0
 61166  1  0  0  0  0
 61167  1  0  0  0  0
 61168  1  0  0  0  0
 65169  1  0  0  0  0
 72170  1  0  0  0  0
 73171  1  0  0  0  0
 76172  1  0  0  0  0
 76173  1  0  0  0  0
 76174  1  0  0  0  0
 77175  1  0  0  0  0
 78176  1  0  0  0  0
 80177  1  0  0  0  0
 81178  1  0  0  0  0
 84179  1  0  0  0  0
 84180  1  0  0  0  0
 84181  1  0  0  0  0
 85182  1  0  0  0  0
 86183  1  0  0  0  0
 93184  1  0  0  0  0
 94185  1  0  0  0  0
 97186  1  0  0  0  0
 97187  1  0  0  0  0
 97188  1  0  0  0  0
 98189  1  0  0  0  0
 99190  1  0  0  0  0
101191  1  0  0  0  0
102192  1  0  0  0  0
105193  1  0  0  0  0
105194  1  0  0  0  0
105195  1  0  0  0  0
106196  1  0  0  0  0
107197  1  0  0  0  0
110198  1  0  0  0  0
115199  1  0  0  0  0
118200  1  0  0  0  0
126201  1  0  0  0  0
127202  1  0  0  0  0
128203  1  0  0  0  0
129204  1  0  0  0  0
130205  1  0  0  0  0
131206  1  0  0  0  0
131207  1  0  0  0  0
132208  1  0  0  0  0
M  END
