
  xtb     02062210543D
 energy: -368.535535061713 gnorm: 0.000289251548 xtb: 6.4.1 (unknown)
219242  0     0  0            999 V2000
    0.5456   -3.9912    5.6985 C   0  0  0  0  0  0  0  0  0  0  0  0
   -0.3013   -3.6370    6.7135 C   0  0  0  0  0  0  0  0  0  0  0  0
   -0.0636   -4.1338    8.0894 C   0  0  0  0  0  0  0  0  0  0  0  0
    0.7420   -4.9712    8.4357 O   0  0  0  0  0  0  0  0  0  0  0  0
   -0.9457   -3.3243    8.9537 C   0  0  0  0  0  0  0  0  0  0  0  0
   -1.0061   -3.3373   10.3449 C   0  0  0  0  0  0  0  0  0  0  0  0
   -1.8910   -2.4304   10.8772 C   0  0  0  0  0  0  0  0  0  0  0  0
   -2.6750   -1.5817   10.0843 C   0  0  0  0  0  0  0  0  0  0  0  0
   -2.6435   -1.5743    8.7104 C   0  0  0  0  0  0  0  0  0  0  0  0
   -1.7370   -2.4771    8.1518 C   0  0  0  0  0  0  0  0  0  0  0  0
   -1.4243   -2.7420    6.7515 C   0  0  0  0  0  0  0  0  0  0  0  0
   -2.2022   -2.3963    5.6695 C   0  0  0  0  0  0  0  0  0  0  0  0
   -2.0495   -2.9643    4.3945 C   0  0  0  0  0  0  0  0  0  0  0  0
   -2.0143   -3.4214    3.3393 N   0  0  0  0  0  0  0  0  0  0  0  0
   -3.2847   -1.5004    5.7162 C   0  0  0  0  0  0  0  0  0  0  0  0
   -4.1498   -0.7457    5.6626 N   0  0  0  0  0  0  0  0  0  0  0  0
   -3.3286   -0.9376   11.2806 C   0  0  0  0  0  0  0  0  0  0  0  0
   -4.7738   -1.3681   11.6311 C   0  0  0  0  0  0  0  0  0  0  0  0
   -4.9429   -2.7701   11.0998 C   0  0  0  0  0  0  0  0  0  0  0  0
   -4.2055   -3.5786   11.8492 C   0  0  0  0  0  0  0  0  0  0  0  0
   -3.5239   -2.7380   12.9005 C   0  0  0  0  0  0  0  0  0  0  0  0
   -4.6008   -1.6652   13.1291 C   0  0  0  0  0  0  0  0  0  0  0  0
   -2.4597   -1.8876   12.1638 C   0  0  0  0  0  0  0  0  0  0  0  0
    0.8162   -3.3488    4.4786 C   0  0  0  0  0  0  0  0  0  0  0  0
    0.6519   -2.0265    4.0299 C   0  0  0  0  0  0  0  0  0  0  0  0
    0.2168   -0.9322    4.7423 N   0  0  0  0  0  0  0  0  0  0  0  0
   -0.1950    0.1971    3.9770 C   0  0  0  0  0  0  0  0  0  0  0  0
    0.5705    1.3577    3.9966 C   0  0  0  0  0  0  0  0  0  0  0  0
    0.2660    2.4058    3.1518 C   0  0  0  0  0  0  0  0  0  0  0  0
   -0.8111    2.3042    2.2791 C   0  0  0  0  0  0  0  0  0  0  0  0
   -1.1706    3.5386    1.0705 S   0  0  0  0  0  0  0  0  0  0  0  0
    0.4755    4.2430    0.7564 C   0  0  0  0  0  0  0  0  0  0  0  0
   -1.6342    1.1826    2.3281 C   0  0  0  0  0  0  0  0  0  0  0  0
   -1.3268    0.1333    3.1681 C   0  0  0  0  0  0  0  0  0  0  0  0
    0.4061   -0.7264    6.1107 C   0  0  0  0  0  0  0  0  0  0  0  0
   -0.4381    0.1694    6.7779 C   0  0  0  0  0  0  0  0  0  0  0  0
   -0.3154    0.3660    8.1318 C   0  0  0  0  0  0  0  0  0  0  0  0
    0.6484   -0.3284    8.8647 C   0  0  0  0  0  0  0  0  0  0  0  0
    0.6484   -0.0753   10.6052 S   0  0  0  0  0  0  0  0  0  0  0  0
    1.8275   -1.3101   11.2191 C   0  0  0  0  0  0  0  0  0  0  0  0
    1.5333   -1.1643    8.1979 C   0  0  0  0  0  0  0  0  0  0  0  0
    1.4158   -1.3560    6.8347 C   0  0  0  0  0  0  0  0  0  0  0  0
    1.0139   -1.9290    2.6641 C   0  0  0  0  0  0  0  0  0  0  0  0
    1.0478   -0.6266    1.5269 S   0  0  0  0  0  0  0  0  0  0  0  0
    1.4748   -1.7372    0.2313 C   0  0  0  0  0  0  0  0  0  0  0  0
    1.7285   -3.0174    0.6896 C   0  0  0  0  0  0  0  0  0  0  0  0
    2.2174   -4.0746   -0.0518 N   0  0  0  0  0  0  0  0  0  0  0  0
    1.7730   -5.3591    0.3223 C   0  0  0  0  0  0  0  0  0  0  0  0
    0.4157   -5.5696    0.5700 C   0  0  0  0  0  0  0  0  0  0  0  0
   -0.0337   -6.8134    0.9518 C   0  0  0  0  0  0  0  0  0  0  0  0
    0.8590   -7.8743    1.0941 C   0  0  0  0  0  0  0  0  0  0  0  0
    0.1657   -9.4257    1.5674 S   0  0  0  0  0  0  0  0  0  0  0  0
    1.6126  -10.4862    1.8483 C   0  0  0  0  0  0  0  0  0  0  0  0
    2.2116   -7.6644    0.8596 C   0  0  0  0  0  0  0  0  0  0  0  0
    2.6637   -6.4140    0.4848 C   0  0  0  0  0  0  0  0  0  0  0  0
    3.1661   -3.8983   -1.0634 C   0  0  0  0  0  0  0  0  0  0  0  0
    3.3778   -4.8969   -2.0157 C   0  0  0  0  0  0  0  0  0  0  0  0
    4.2888   -4.7191   -3.0323 C   0  0  0  0  0  0  0  0  0  0  0  0
    5.0019   -3.5300   -3.1436 C   0  0  0  0  0  0  0  0  0  0  0  0
    6.1060   -3.3700   -4.5148 S   0  0  0  0  0  0  0  0  0  0  0  0
    6.2707   -1.5666   -4.6844 C   0  0  0  0  0  0  0  0  0  0  0  0
    4.8316   -2.5490   -2.1778 C   0  0  0  0  0  0  0  0  0  0  0  0
    3.9352   -2.7382   -1.1449 C   0  0  0  0  0  0  0  0  0  0  0  0
    1.4476   -3.1090    2.0802 C   0  0  0  0  0  0  0  0  0  0  0  0
    1.5106   -4.3888    3.2274 S   0  0  0  0  0  0  0  0  0  0  0  0
    1.3265   -1.2198   -1.0990 C   0  0  0  0  0  0  0  0  0  0  0  0
    0.5748   -1.7336   -2.1357 C   0  0  0  0  0  0  0  0  0  0  0  0
   -0.0658   -2.9877   -2.1280 N   0  0  0  0  0  0  0  0  0  0  0  0
    0.4162   -3.9979   -2.9666 C   0  0  0  0  0  0  0  0  0  0  0  0
    0.0678   -5.3280   -2.7276 C   0  0  0  0  0  0  0  0  0  0  0  0
    0.5425   -6.3471   -3.5276 C   0  0  0  0  0  0  0  0  0  0  0  0
    1.3814   -6.0630   -4.5962 C   0  0  0  0  0  0  0  0  0  0  0  0
    2.0626   -7.2864   -5.6752 S   0  0  0  0  0  0  0  0  0  0  0  0
    1.1071   -8.7802   -5.2837 C   0  0  0  0  0  0  0  0  0  0  0  0
    1.7579   -4.7442   -4.8250 C   0  0  0  0  0  0  0  0  0  0  0  0
    1.2943   -3.7289   -4.0175 C   0  0  0  0  0  0  0  0  0  0  0  0
   -1.3573   -3.0526   -1.5675 C   0  0  0  0  0  0  0  0  0  0  0  0
   -1.6599   -2.3723   -0.3910 C   0  0  0  0  0  0  0  0  0  0  0  0
   -2.9052   -2.4771    0.1972 C   0  0  0  0  0  0  0  0  0  0  0  0
   -3.8857   -3.2675   -0.3815 C   0  0  0  0  0  0  0  0  0  0  0  0
   -5.4853   -3.5090    0.3255 S   0  0  0  0  0  0  0  0  0  0  0  0
   -5.2559   -2.9847    2.0487 C   0  0  0  0  0  0  0  0  0  0  0  0
   -3.6174   -3.8902   -1.5984 C   0  0  0  0  0  0  0  0  0  0  0  0
   -2.3785   -3.7756   -2.1888 C   0  0  0  0  0  0  0  0  0  0  0  0
    0.4498   -0.7900   -3.1840 C   0  0  0  0  0  0  0  0  0  0  0  0
   -0.4124   -0.7582   -4.6823 S   0  0  0  0  0  0  0  0  0  0  0  0
    0.1440    0.8654   -4.9917 C   0  0  0  0  0  0  0  0  0  0  0  0
    0.9398    1.3653   -3.9811 C   0  0  0  0  0  0  0  0  0  0  0  0
    1.4579    2.6760   -3.9210 N   0  0  0  0  0  0  0  0  0  0  0  0
    2.7221    2.9122   -4.4723 C   0  0  0  0  0  0  0  0  0  0  0  0
    3.0284    4.1347   -5.0764 C   0  0  0  0  0  0  0  0  0  0  0  0
    4.2633    4.3393   -5.6482 C   0  0  0  0  0  0  0  0  0  0  0  0
    5.2256    3.3314   -5.6423 C   0  0  0  0  0  0  0  0  0  0  0  0
    6.7712    3.7064   -6.4128 S   0  0  0  0  0  0  0  0  0  0  0  0
    7.5896    2.0902   -6.5401 C   0  0  0  0  0  0  0  0  0  0  0  0
    4.9265    2.1145   -5.0504 C   0  0  0  0  0  0  0  0  0  0  0  0
    3.6875    1.9091   -4.4735 C   0  0  0  0  0  0  0  0  0  0  0  0
    0.6615    3.7033   -3.4232 C   0  0  0  0  0  0  0  0  0  0  0  0
    1.2523    4.8392   -2.8595 C   0  0  0  0  0  0  0  0  0  0  0  0
    0.4797    5.9006   -2.4400 C   0  0  0  0  0  0  0  0  0  0  0  0
   -0.9035    5.8408   -2.5411 C   0  0  0  0  0  0  0  0  0  0  0  0
   -1.9083    7.2439   -2.0976 S   0  0  0  0  0  0  0  0  0  0  0  0
   -1.6044    7.2798   -0.3005 C   0  0  0  0  0  0  0  0  0  0  0  0
   -1.5026    4.6866   -3.0162 C   0  0  0  0  0  0  0  0  0  0  0  0
   -0.7314    3.6231   -3.4387 C   0  0  0  0  0  0  0  0  0  0  0  0
    1.0995    0.4131   -2.9506 C   0  0  0  0  0  0  0  0  0  0  0  0
    1.8836    0.4157   -1.4134 S   0  0  0  0  0  0  0  0  0  0  0  0
   -0.3786    1.6520   -6.0905 C   0  0  0  0  0  0  0  0  0  0  0  0
   -1.7371    1.7976   -6.2860 C   0  0  0  0  0  0  0  0  0  0  0  0
   -2.2418    2.8439   -7.0645 C   0  0  0  0  0  0  0  0  0  0  0  0
   -3.5792    2.9971   -7.0908 F   0  0  0  0  0  0  0  0  0  0  0  0
   -1.4504    3.8095   -7.6573 C   0  0  0  0  0  0  0  0  0  0  0  0
   -0.0617    3.5385   -7.6584 C   0  0  0  0  0  0  0  0  0  0  0  0
    0.4742    2.4503   -6.8878 C   0  0  0  0  0  0  0  0  0  0  0  0
    1.7876    2.3196   -7.0554 N   0  0  0  0  0  0  0  0  0  0  0  0
    2.2919    3.4553   -8.0715 S   0  0  0  0  0  0  0  0  0  0  0  0
    0.8805    4.1679   -8.3543 N   0  0  0  0  0  0  0  0  0  0  0  0
   -1.9916    5.0672   -8.1293 C   0  0  0  0  0  0  0  0  0  0  0  0
   -1.5355    6.2471   -7.6595 C   0  0  0  0  0  0  0  0  0  0  0  0
   -0.6155    6.3901   -6.4912 C   0  0  0  0  0  0  0  0  0  0  0  0
    0.0314    5.5257   -5.9369 O   0  0  0  0  0  0  0  0  0  0  0  0
   -0.7183    7.7960   -6.0814 C   0  0  0  0  0  0  0  0  0  0  0  0
   -0.1075    8.3813   -4.9731 C   0  0  0  0  0  0  0  0  0  0  0  0
   -0.4248    9.7044   -4.7935 C   0  0  0  0  0  0  0  0  0  0  0  0
   -1.2870   10.4012   -5.6533 C   0  0  0  0  0  0  0  0  0  0  0  0
   -1.8832    9.8433   -6.7585 C   0  0  0  0  0  0  0  0  0  0  0  0
   -1.5735    8.4936   -6.9607 C   0  0  0  0  0  0  0  0  0  0  0  0
   -2.0201    7.5790   -8.0020 C   0  0  0  0  0  0  0  0  0  0  0  0
   -2.7044    7.9088   -9.1375 C   0  0  0  0  0  0  0  0  0  0  0  0
   -3.0414    6.9911  -10.1572 C   0  0  0  0  0  0  0  0  0  0  0  0
   -3.3327    6.3056  -11.0301 N   0  0  0  0  0  0  0  0  0  0  0  0
   -3.1253    9.2163   -9.4630 C   0  0  0  0  0  0  0  0  0  0  0  0
   -3.4928   10.2550   -9.7835 N   0  0  0  0  0  0  0  0  0  0  0  0
   -1.1768   11.6775   -4.8576 C   0  0  0  0  0  0  0  0  0  0  0  0
   -2.3672   12.0171   -3.9352 C   0  0  0  0  0  0  0  0  0  0  0  0
   -1.7910   13.0146   -2.9561 C   0  0  0  0  0  0  0  0  0  0  0  0
   -0.9708   12.3575   -2.1458 C   0  0  0  0  0  0  0  0  0  0  0  0
   -0.9792   10.9054   -2.5640 C   0  0  0  0  0  0  0  0  0  0  0  0
   -2.4316   10.7745   -3.0381 C   0  0  0  0  0  0  0  0  0  0  0  0
   -0.2123   10.9025   -3.9037 C   0  0  0  0  0  0  0  0  0  0  0  0
    1.1377   -4.8817    5.8897 H   0  0  0  0  0  0  0  0  0  0  0  0
   -0.3975   -4.0176   10.9214 H   0  0  0  0  0  0  0  0  0  0  0  0
   -3.2503   -0.9190    8.1071 H   0  0  0  0  0  0  0  0  0  0  0  0
   -3.1728    0.1340   11.3856 H   0  0  0  0  0  0  0  0  0  0  0  0
   -5.5402   -0.6520   11.3472 H   0  0  0  0  0  0  0  0  0  0  0  0
   -5.5180   -3.0139   10.2257 H   0  0  0  0  0  0  0  0  0  0  0  0
   -4.0419   -4.6334   11.7263 H   0  0  0  0  0  0  0  0  0  0  0  0
   -3.1534   -3.2689   13.7737 H   0  0  0  0  0  0  0  0  0  0  0  0
   -5.5042   -2.0662   13.5861 H   0  0  0  0  0  0  0  0  0  0  0  0
   -4.2461   -0.8099   13.7026 H   0  0  0  0  0  0  0  0  0  0  0  0
   -1.7438   -1.4319   12.8448 H   0  0  0  0  0  0  0  0  0  0  0  0
    1.4237    1.4219    4.6560 H   0  0  0  0  0  0  0  0  0  0  0  0
    0.8839    3.2889    3.1663 H   0  0  0  0  0  0  0  0  0  0  0  0
    0.4108    4.7370   -0.2084 H   0  0  0  0  0  0  0  0  0  0  0  0
    1.2008    3.4367    0.7076 H   0  0  0  0  0  0  0  0  0  0  0  0
    0.7361    4.9634    1.5267 H   0  0  0  0  0  0  0  0  0  0  0  0
   -2.4927    1.1283    1.6773 H   0  0  0  0  0  0  0  0  0  0  0  0
   -1.9352   -0.7571    3.1673 H   0  0  0  0  0  0  0  0  0  0  0  0
   -1.2080    0.6883    6.2264 H   0  0  0  0  0  0  0  0  0  0  0  0
   -0.9784    1.0438    8.6461 H   0  0  0  0  0  0  0  0  0  0  0  0
    1.7472   -1.2817   12.3013 H   0  0  0  0  0  0  0  0  0  0  0  0
    1.5485   -2.2926   10.8505 H   0  0  0  0  0  0  0  0  0  0  0  0
    2.8375   -1.0455   10.9200 H   0  0  0  0  0  0  0  0  0  0  0  0
    2.3203   -1.6797    8.7235 H   0  0  0  0  0  0  0  0  0  0  0  0
    2.1269   -1.9920    6.3309 H   0  0  0  0  0  0  0  0  0  0  0  0
   -0.2824   -4.7511    0.4716 H   0  0  0  0  0  0  0  0  0  0  0  0
   -1.0828   -6.9767    1.1442 H   0  0  0  0  0  0  0  0  0  0  0  0
    2.2572  -10.0387    2.5990 H   0  0  0  0  0  0  0  0  0  0  0  0
    2.1451  -10.6519    0.9162 H   0  0  0  0  0  0  0  0  0  0  0  0
    1.2163  -11.4275    2.2163 H   0  0  0  0  0  0  0  0  0  0  0  0
    2.9281   -8.4617    0.9731 H   0  0  0  0  0  0  0  0  0  0  0  0
    3.7190   -6.2539    0.3215 H   0  0  0  0  0  0  0  0  0  0  0  0
    2.8053   -5.8090   -1.9749 H   0  0  0  0  0  0  0  0  0  0  0  0
    4.4386   -5.4956   -3.7660 H   0  0  0  0  0  0  0  0  0  0  0  0
    6.7345   -1.4030   -5.6524 H   0  0  0  0  0  0  0  0  0  0  0  0
    6.9072   -1.1661   -3.9001 H   0  0  0  0  0  0  0  0  0  0  0  0
    5.2832   -1.1155   -4.6606 H   0  0  0  0  0  0  0  0  0  0  0  0
    5.4003   -1.6329   -2.2078 H   0  0  0  0  0  0  0  0  0  0  0  0
    3.8522   -1.9729   -0.3889 H   0  0  0  0  0  0  0  0  0  0  0  0
   -0.5720   -5.5752   -1.8954 H   0  0  0  0  0  0  0  0  0  0  0  0
    0.2547   -7.3599   -3.2946 H   0  0  0  0  0  0  0  0  0  0  0  0
    1.3984   -9.5178   -6.0250 H   0  0  0  0  0  0  0  0  0  0  0  0
    0.0455   -8.5680   -5.3685 H   0  0  0  0  0  0  0  0  0  0  0  0
    1.3586   -9.1399   -4.2899 H   0  0  0  0  0  0  0  0  0  0  0  0
    2.4252   -4.5215   -5.6432 H   0  0  0  0  0  0  0  0  0  0  0  0
    1.6312   -2.7234   -4.2106 H   0  0  0  0  0  0  0  0  0  0  0  0
   -0.9254   -1.7460    0.0839 H   0  0  0  0  0  0  0  0  0  0  0  0
   -3.0893   -1.9420    1.1139 H   0  0  0  0  0  0  0  0  0  0  0  0
   -5.2185   -1.9007    2.1152 H   0  0  0  0  0  0  0  0  0  0  0  0
   -6.1227   -3.3523    2.5890 H   0  0  0  0  0  0  0  0  0  0  0  0
   -4.3498   -3.4343    2.4452 H   0  0  0  0  0  0  0  0  0  0  0  0
   -4.3951   -4.4644   -2.0781 H   0  0  0  0  0  0  0  0  0  0  0  0
   -2.1964   -4.2510   -3.1404 H   0  0  0  0  0  0  0  0  0  0  0  0
    2.2720    4.9017   -5.1425 H   0  0  0  0  0  0  0  0  0  0  0  0
    4.4925    5.2807   -6.1244 H   0  0  0  0  0  0  0  0  0  0  0  0
    6.9329    1.3876   -7.0446 H   0  0  0  0  0  0  0  0  0  0  0  0
    7.8715    1.7307   -5.5546 H   0  0  0  0  0  0  0  0  0  0  0  0
    8.4806    2.2593   -7.1365 H   0  0  0  0  0  0  0  0  0  0  0  0
    5.6504    1.3159   -5.0282 H   0  0  0  0  0  0  0  0  0  0  0  0
    3.4711    0.9523   -4.0227 H   0  0  0  0  0  0  0  0  0  0  0  0
    2.3263    4.8907   -2.7615 H   0  0  0  0  0  0  0  0  0  0  0  0
    0.9549    6.7823   -2.0323 H   0  0  0  0  0  0  0  0  0  0  0  0
   -1.9129    6.3326    0.1326 H   0  0  0  0  0  0  0  0  0  0  0  0
   -2.2086    8.0890    0.0955 H   0  0  0  0  0  0  0  0  0  0  0  0
   -0.5527    7.4683   -0.1056 H   0  0  0  0  0  0  0  0  0  0  0  0
   -2.5788    4.6288   -3.0686 H   0  0  0  0  0  0  0  0  0  0  0  0
   -1.2221    2.7350   -3.8011 H   0  0  0  0  0  0  0  0  0  0  0  0
   -2.4391    1.1752   -5.7511 H   0  0  0  0  0  0  0  0  0  0  0  0
   -2.8459    5.0233   -8.7927 H   0  0  0  0  0  0  0  0  0  0  0  0
    0.5458    7.8051   -4.3381 H   0  0  0  0  0  0  0  0  0  0  0  0
   -2.5432   10.3897   -7.4118 H   0  0  0  0  0  0  0  0  0  0  0  0
   -0.7957   12.5422   -5.3974 H   0  0  0  0  0  0  0  0  0  0  0  0
   -3.2753   12.3102   -4.4546 H   0  0  0  0  0  0  0  0  0  0  0  0
   -1.9902   14.0698   -2.9873 H   0  0  0  0  0  0  0  0  0  0  0  0
   -0.3483   12.7557   -1.3657 H   0  0  0  0  0  0  0  0  0  0  0  0
   -0.6272   10.1795   -1.8372 H   0  0  0  0  0  0  0  0  0  0  0  0
   -2.6399    9.8455   -3.5641 H   0  0  0  0  0  0  0  0  0  0  0  0
   -3.1411   10.8931   -2.2213 H   0  0  0  0  0  0  0  0  0  0  0  0
    0.8153   11.2489   -3.8086 H   0  0  0  0  0  0  0  0  0  0  0  0
  1  2  2  0  0  0  0
  2  3  1  0  0  0  0
  3  4  2  0  0  0  0
  3  5  1  0  0  0  0
  5  6  2  0  0  0  0
  6  7  1  0  0  0  0
  7  8  2  0  0  0  0
  8  9  1  0  0  0  0
  9 10  2  0  0  0  0
 10 11  1  0  0  0  0
 11 12  2  0  0  0  0
 12 13  1  0  0  0  0
 13 14  3  0  0  0  0
 12 15  1  0  0  0  0
 15 16  3  0  0  0  0
  8 17  1  0  0  0  0
 17 18  1  0  0  0  0
 18 19  1  0  0  0  0
 19 20  2  0  0  0  0
 20 21  1  0  0  0  0
 21 22  1  0  0  0  0
 21 23  1  0  0  0  0
  1 24  1  0  0  0  0
 24 25  2  0  0  0  0
 25 26  1  0  0  0  0
 26 27  1  0  0  0  0
 27 28  2  0  0  0  0
 28 29  1  0  0  0  0
 29 30  2  0  0  0  0
 30 31  1  0  0  0  0
 31 32  1  0  0  0  0
 30 33  1  0  0  0  0
 33 34  2  0  0  0  0
 26 35  1  0  0  0  0
 35 36  2  0  0  0  0
 36 37  1  0  0  0  0
 37 38  2  0  0  0  0
 38 39  1  0  0  0  0
 39 40  1  0  0  0  0
 38 41  1  0  0  0  0
 41 42  2  0  0  0  0
 25 43  1  0  0  0  0
 43 44  1  0  0  0  0
 44 45  1  0  0  0  0
 45 46  2  0  0  0  0
 46 47  1  0  0  0  0
 47 48  1  0  0  0  0
 48 49  2  0  0  0  0
 49 50  1  0  0  0  0
 50 51  2  0  0  0  0
 51 52  1  0  0  0  0
 52 53  1  0  0  0  0
 51 54  1  0  0  0  0
 54 55  2  0  0  0  0
 47 56  1  0  0  0  0
 56 57  2  0  0  0  0
 57 58  1  0  0  0  0
 58 59  2  0  0  0  0
 59 60  1  0  0  0  0
 60 61  1  0  0  0  0
 59 62  1  0  0  0  0
 62 63  2  0  0  0  0
 46 64  1  0  0  0  0
 64 65  1  0  0  0  0
 45 66  1  0  0  0  0
 66 67  2  0  0  0  0
 67 68  1  0  0  0  0
 68 69  1  0  0  0  0
 69 70  2  0  0  0  0
 70 71  1  0  0  0  0
 71 72  2  0  0  0  0
 72 73  1  0  0  0  0
 73 74  1  0  0  0  0
 72 75  1  0  0  0  0
 75 76  2  0  0  0  0
 68 77  1  0  0  0  0
 77 78  2  0  0  0  0
 78 79  1  0  0  0  0
 79 80  2  0  0  0  0
 80 81  1  0  0  0  0
 81 82  1  0  0  0  0
 80 83  1  0  0  0  0
 83 84  2  0  0  0  0
 67 85  1  0  0  0  0
 85 86  1  0  0  0  0
 86 87  1  0  0  0  0
 87 88  2  0  0  0  0
 88 89  1  0  0  0  0
 89 90  1  0  0  0  0
 90 91  2  0  0  0  0
 91 92  1  0  0  0  0
 92 93  2  0  0  0  0
 93 94  1  0  0  0  0
 94 95  1  0  0  0  0
 93 96  1  0  0  0  0
 96 97  2  0  0  0  0
 89 98  1  0  0  0  0
 98 99  2  0  0  0  0
 99100  1  0  0  0  0
100101  2  0  0  0  0
101102  1  0  0  0  0
102103  1  0  0  0  0
101104  1  0  0  0  0
104105  2  0  0  0  0
 88106  1  0  0  0  0
106107  1  0  0  0  0
 87108  1  0  0  0  0
108109  2  0  0  0  0
109110  1  0  0  0  0
110111  1  0  0  0  0
110112  2  0  0  0  0
112113  1  0  0  0  0
113114  1  0  0  0  0
114115  2  0  0  0  0
115116  1  0  0  0  0
116117  1  0  0  0  0
112118  1  0  0  0  0
118119  2  0  0  0  0
119120  1  0  0  0  0
120121  2  0  0  0  0
120122  1  0  0  0  0
122123  2  0  0  0  0
123124  1  0  0  0  0
124125  2  0  0  0  0
125126  1  0  0  0  0
126127  2  0  0  0  0
127128  1  0  0  0  0
128129  2  0  0  0  0
129130  1  0  0  0  0
130131  3  0  0  0  0
129132  1  0  0  0  0
132133  3  0  0  0  0
125134  1  0  0  0  0
134135  1  0  0  0  0
135136  1  0  0  0  0
136137  2  0  0  0  0
137138  1  0  0  0  0
138139  1  0  0  0  0
138140  1  0  0  0  0
 11  2  1  0  0  0  0
 23 17  1  0  0  0  0
 65 24  1  0  0  0  0
107 66  1  0  0  0  0
114108  1  0  0  0  0
128119  1  0  0  0  0
140134  1  0  0  0  0
 10  5  1  0  0  0  0
 22 18  1  0  0  0  0
 34 27  1  0  0  0  0
 42 35  1  0  0  0  0
 64 43  2  0  0  0  0
 76 69  1  0  0  0  0
 84 77  1  0  0  0  0
106 85  2  0  0  0  0
117113  2  0  0  0  0
127122  1  0  0  0  0
139135  1  0  0  0  0
 23  7  1  0  0  0  0
 55 48  1  0  0  0  0
 63 56  1  0  0  0  0
 97 90  1  0  0  0  0
105 98  1  0  0  0  0
140124  1  0  0  0  0
  1141  1  0  0  0  0
  6142  1  0  0  0  0
  9143  1  0  0  0  0
 17144  1  0  0  0  0
 18145  1  0  0  0  0
 19146  1  0  0  0  0
 20147  1  0  0  0  0
 21148  1  0  0  0  0
 22149  1  0  0  0  0
 22150  1  0  0  0  0
 23151  1  0  0  0  0
 28152  1  0  0  0  0
 29153  1  0  0  0  0
 32154  1  0  0  0  0
 32155  1  0  0  0  0
 32156  1  0  0  0  0
 33157  1  0  0  0  0
 34158  1  0  0  0  0
 36159  1  0  0  0  0
 37160  1  0  0  0  0
 40161  1  0  0  0  0
 40162  1  0  0  0  0
 40163  1  0  0  0  0
 41164  1  0  0  0  0
 42165  1  0  0  0  0
 49166  1  0  0  0  0
 50167  1  0  0  0  0
 53168  1  0  0  0  0
 53169  1  0  0  0  0
 53170  1  0  0  0  0
 54171  1  0  0  0  0
 55172  1  0  0  0  0
 57173  1  0  0  0  0
 58174  1  0  0  0  0
 61175  1  0  0  0  0
 61176  1  0  0  0  0
 61177  1  0  0  0  0
 62178  1  0  0  0  0
 63179  1  0  0  0  0
 70180  1  0  0  0  0
 71181  1  0  0  0  0
 74182  1  0  0  0  0
 74183  1  0  0  0  0
 74184  1  0  0  0  0
 75185  1  0  0  0  0
 76186  1  0  0  0  0
 78187  1  0  0  0  0
 79188  1  0  0  0  0
 82189  1  0  0  0  0
 82190  1  0  0  0  0
 82191  1  0  0  0  0
 83192  1  0  0  0  0
 84193  1  0  0  0  0
 91194  1  0  0  0  0
 92195  1  0  0  0  0
 95196  1  0  0  0  0
 95197  1  0  0  0  0
 95198  1  0  0  0  0
 96199  1  0  0  0  0
 97200  1  0  0  0  0
 99201  1  0  0  0  0
100202  1  0  0  0  0
103203  1  0  0  0  0
103204  1  0  0  0  0
103205  1  0  0  0  0
104206  1  0  0  0  0
105207  1  0  0  0  0
109208  1  0  0  0  0
118209  1  0  0  0  0
123210  1  0  0  0  0
126211  1  0  0  0  0
134212  1  0  0  0  0
135213  1  0  0  0  0
136214  1  0  0  0  0
137215  1  0  0  0  0
138216  1  0  0  0  0
139217  1  0  0  0  0
139218  1  0  0  0  0
140219  1  0  0  0  0
M  END
