
  xtb     02092209373D
 energy: -354.094065564502 gnorm: 0.000561439098 xtb: 6.4.1 (unknown)
215237  0     0  0            999 V2000
   -6.7763   -1.8208   -2.8691 C   0  0  0  0  0  0  0  0  0  0  0  0
   -7.4963   -0.7585   -3.3514 C   0  0  0  0  0  0  0  0  0  0  0  0
   -6.9467    0.5262   -3.7993 C   0  0  0  0  0  0  0  0  0  0  0  0
   -5.8268    0.7531   -4.2250 O   0  0  0  0  0  0  0  0  0  0  0  0
   -8.0443    1.5015   -3.6627 C   0  0  0  0  0  0  0  0  0  0  0  0
   -7.9646    2.8852   -3.8015 C   0  0  0  0  0  0  0  0  0  0  0  0
   -9.1559    3.5375   -3.5892 C   0  0  0  0  0  0  0  0  0  0  0  0
  -10.3416    2.8644   -3.2694 C   0  0  0  0  0  0  0  0  0  0  0  0
  -10.4340    1.4993   -3.1270 C   0  0  0  0  0  0  0  0  0  0  0  0
   -9.2304    0.8162   -3.3271 C   0  0  0  0  0  0  0  0  0  0  0  0
   -8.9266   -0.6080   -3.1969 C   0  0  0  0  0  0  0  0  0  0  0  0
   -9.8360   -1.6014   -2.9341 C   0  0  0  0  0  0  0  0  0  0  0  0
   -9.5312   -2.9747   -2.8495 C   0  0  0  0  0  0  0  0  0  0  0  0
   -9.3692   -4.1106   -2.7844 N   0  0  0  0  0  0  0  0  0  0  0  0
  -11.2157   -1.3880   -2.7426 C   0  0  0  0  0  0  0  0  0  0  0  0
  -12.3461   -1.2782   -2.5721 N   0  0  0  0  0  0  0  0  0  0  0  0
  -11.1368    4.1427   -3.1732 C   0  0  0  0  0  0  0  0  0  0  0  0
  -11.4452    4.6549   -1.7502 C   0  0  0  0  0  0  0  0  0  0  0  0
  -11.7881    6.1127   -1.9575 C   0  0  0  0  0  0  0  0  0  0  0  0
  -10.6660    6.7516   -2.2629 C   0  0  0  0  0  0  0  0  0  0  0  0
   -9.5456    5.7369   -2.2666 C   0  0  0  0  0  0  0  0  0  0  0  0
  -10.0375    4.7980   -1.1573 C   0  0  0  0  0  0  0  0  0  0  0  0
   -9.8142    4.8939   -3.5313 C   0  0  0  0  0  0  0  0  0  0  0  0
   -5.3939   -1.9441   -2.6812 C   0  0  0  0  0  0  0  0  0  0  0  0
   -4.8203   -2.7717   -1.6890 C   0  0  0  0  0  0  0  0  0  0  0  0
   -5.5545   -3.3482   -0.6797 N   0  0  0  0  0  0  0  0  0  0  0  0
   -6.7113   -2.7027   -0.1922 C   0  0  0  0  0  0  0  0  0  0  0  0
   -7.8618   -3.4367    0.0923 C   0  0  0  0  0  0  0  0  0  0  0  0
   -9.0224   -2.7872    0.4513 C   0  0  0  0  0  0  0  0  0  0  0  0
   -9.0603   -1.3961    0.5345 C   0  0  0  0  0  0  0  0  0  0  0  0
  -10.6188   -0.6634    0.9134 S   0  0  0  0  0  0  0  0  0  0  0  0
  -10.3685    1.0952    0.5345 C   0  0  0  0  0  0  0  0  0  0  0  0
   -7.8943   -0.6690    0.3254 C   0  0  0  0  0  0  0  0  0  0  0  0
   -6.7294   -1.3196   -0.0263 C   0  0  0  0  0  0  0  0  0  0  0  0
   -5.1004   -4.5037   -0.0346 C   0  0  0  0  0  0  0  0  0  0  0  0
   -5.2632   -4.6485    1.3405 C   0  0  0  0  0  0  0  0  0  0  0  0
   -4.8469   -5.7972    1.9817 C   0  0  0  0  0  0  0  0  0  0  0  0
   -4.2696   -6.8278    1.2516 C   0  0  0  0  0  0  0  0  0  0  0  0
   -3.6936   -8.3377    1.9585 S   0  0  0  0  0  0  0  0  0  0  0  0
   -4.3129   -8.2825    3.6654 C   0  0  0  0  0  0  0  0  0  0  0  0
   -4.1090   -6.6858   -0.1257 C   0  0  0  0  0  0  0  0  0  0  0  0
   -4.5091   -5.5348   -0.7635 C   0  0  0  0  0  0  0  0  0  0  0  0
   -3.4152   -2.7281   -1.7464 C   0  0  0  0  0  0  0  0  0  0  0  0
   -2.1232   -3.4164   -0.8053 S   0  0  0  0  0  0  0  0  0  0  0  0
   -0.9553   -2.3562   -1.5953 C   0  0  0  0  0  0  0  0  0  0  0  0
   -1.5456   -1.5897   -2.5899 C   0  0  0  0  0  0  0  0  0  0  0  0
   -0.8973   -0.6244   -3.3473 N   0  0  0  0  0  0  0  0  0  0  0  0
    0.4110   -0.7783   -3.7963 C   0  0  0  0  0  0  0  0  0  0  0  0
    0.9190   -2.0349   -4.1176 C   0  0  0  0  0  0  0  0  0  0  0  0
    2.2239   -2.1790   -4.5472 C   0  0  0  0  0  0  0  0  0  0  0  0
    3.0486   -1.0675   -4.6589 C   0  0  0  0  0  0  0  0  0  0  0  0
    4.7515   -1.1530   -5.1343 S   0  0  0  0  0  0  0  0  0  0  0  0
    4.9088   -2.7950   -5.8898 C   0  0  0  0  0  0  0  0  0  0  0  0
    2.5447    0.1924   -4.3443 C   0  0  0  0  0  0  0  0  0  0  0  0
    1.2442    0.3365   -3.9177 C   0  0  0  0  0  0  0  0  0  0  0  0
   -1.6050    0.5709   -3.5780 C   0  0  0  0  0  0  0  0  0  0  0  0
   -1.6706    1.1188   -4.8545 C   0  0  0  0  0  0  0  0  0  0  0  0
   -2.4627    2.2221   -5.0963 C   0  0  0  0  0  0  0  0  0  0  0  0
   -3.2111    2.7787   -4.0683 C   0  0  0  0  0  0  0  0  0  0  0  0
   -4.2957    4.1512   -4.3423 S   0  0  0  0  0  0  0  0  0  0  0  0
   -4.9630    3.7499   -5.9855 C   0  0  0  0  0  0  0  0  0  0  0  0
   -3.1101    2.2670   -2.7808 C   0  0  0  0  0  0  0  0  0  0  0  0
   -2.3037    1.1773   -2.5354 C   0  0  0  0  0  0  0  0  0  0  0  0
   -2.9344   -1.8300   -2.6927 C   0  0  0  0  0  0  0  0  0  0  0  0
   -4.1853   -1.0330   -3.5714 S   0  0  0  0  0  0  0  0  0  0  0  0
    0.3210   -2.0108   -1.0375 C   0  0  0  0  0  0  0  0  0  0  0  0
    1.4549   -2.6994   -0.6404 C   0  0  0  0  0  0  0  0  0  0  0  0
    1.7903   -4.0070   -0.9276 N   0  0  0  0  0  0  0  0  0  0  0  0
    3.1210   -4.2954   -1.2807 C   0  0  0  0  0  0  0  0  0  0  0  0
    3.8951   -3.3865   -2.0038 C   0  0  0  0  0  0  0  0  0  0  0  0
    5.2001   -3.6806   -2.3274 C   0  0  0  0  0  0  0  0  0  0  0  0
    5.7624   -4.9005   -1.9590 C   0  0  0  0  0  0  0  0  0  0  0  0
    7.4332   -5.1784   -2.4587 S   0  0  0  0  0  0  0  0  0  0  0  0
    7.9135   -6.6758   -1.5535 C   0  0  0  0  0  0  0  0  0  0  0  0
    4.9929   -5.8172   -1.2553 C   0  0  0  0  0  0  0  0  0  0  0  0
    3.6901   -5.5115   -0.9126 C   0  0  0  0  0  0  0  0  0  0  0  0
    0.8728   -5.0691   -1.0200 C   0  0  0  0  0  0  0  0  0  0  0  0
    0.0432   -5.4164    0.0433 C   0  0  0  0  0  0  0  0  0  0  0  0
   -0.7059   -6.5724   -0.0188 C   0  0  0  0  0  0  0  0  0  0  0  0
   -0.6454   -7.3977   -1.1410 C   0  0  0  0  0  0  0  0  0  0  0  0
   -1.5363   -8.9190   -1.0626 S   0  0  0  0  0  0  0  0  0  0  0  0
   -1.3585   -9.6249   -2.7277 C   0  0  0  0  0  0  0  0  0  0  0  0
    0.1325   -7.0196   -2.2273 C   0  0  0  0  0  0  0  0  0  0  0  0
    0.8843   -5.8648   -2.1618 C   0  0  0  0  0  0  0  0  0  0  0  0
    2.3997   -1.8144   -0.0455 C   0  0  0  0  0  0  0  0  0  0  0  0
    3.9497   -2.0130    0.7105 S   0  0  0  0  0  0  0  0  0  0  0  0
    4.1471   -0.2669    0.8258 C   0  0  0  0  0  0  0  0  0  0  0  0
    3.0747    0.4121    0.2589 C   0  0  0  0  0  0  0  0  0  0  0  0
    3.0889    1.7770   -0.0225 N   0  0  0  0  0  0  0  0  0  0  0  0
    1.8282    2.4088   -0.0274 C   0  0  0  0  0  0  0  0  0  0  0  0
    1.3656    3.1278   -1.1249 C   0  0  0  0  0  0  0  0  0  0  0  0
    0.1068    3.6960   -1.1134 C   0  0  0  0  0  0  0  0  0  0  0  0
   -0.7083    3.5591    0.0016 C   0  0  0  0  0  0  0  0  0  0  0  0
   -2.3328    4.2386    0.1106 S   0  0  0  0  0  0  0  0  0  0  0  0
   -2.3700    5.4806   -1.2132 C   0  0  0  0  0  0  0  0  0  0  0  0
   -0.2492    2.8387    1.1026 C   0  0  0  0  0  0  0  0  0  0  0  0
    1.0043    2.2694    1.0892 C   0  0  0  0  0  0  0  0  0  0  0  0
    4.0622    2.2045   -0.9609 C   0  0  0  0  0  0  0  0  0  0  0  0
    4.4484    3.5467   -0.9875 C   0  0  0  0  0  0  0  0  0  0  0  0
    5.3738    3.9832   -1.9086 C   0  0  0  0  0  0  0  0  0  0  0  0
    5.9423    3.0915   -2.8194 C   0  0  0  0  0  0  0  0  0  0  0  0
    7.0966    3.7593   -3.9705 S   0  0  0  0  0  0  0  0  0  0  0  0
    7.5938    2.3262   -4.9688 C   0  0  0  0  0  0  0  0  0  0  0  0
    5.5718    1.7543   -2.7854 C   0  0  0  0  0  0  0  0  0  0  0  0
    4.6378    1.3192   -1.8652 C   0  0  0  0  0  0  0  0  0  0  0  0
    2.0558   -0.4771   -0.1317 C   0  0  0  0  0  0  0  0  0  0  0  0
    0.4704   -0.2637   -0.7486 S   0  0  0  0  0  0  0  0  0  0  0  0
    5.2260    0.3168    1.5214 C   0  0  0  0  0  0  0  0  0  0  0  0
    6.2364   -0.3557    2.2028 C   0  0  0  0  0  0  0  0  0  0  0  0
    7.0790    0.4329    2.9684 C   0  0  0  0  0  0  0  0  0  0  0  0
    6.8046    1.7951    2.9455 C   0  0  0  0  0  0  0  0  0  0  0  0
    5.3398    2.1620    1.7984 Se  0  0  0  0  0  2  0  0  0  0  0  0
    7.3924    2.8987    3.5858 C   0  0  0  0  0  0  0  0  0  0  0  0
    8.3477    2.9959    4.5645 C   0  0  0  0  0  0  0  0  0  0  0  0
    8.9756    1.9178    5.3565 C   0  0  0  0  0  0  0  0  0  0  0  0
    8.9308    0.7156    5.1829 O   0  0  0  0  0  0  0  0  0  0  0  0
    9.6909    2.5927    6.4580 C   0  0  0  0  0  0  0  0  0  0  0  0
   10.3663    1.9774    7.5099 C   0  0  0  0  0  0  0  0  0  0  0  0
   10.9159    2.8564    8.4116 C   0  0  0  0  0  0  0  0  0  0  0  0
   10.8058    4.2464    8.2751 C   0  0  0  0  0  0  0  0  0  0  0  0
   10.1507    4.8659    7.2378 C   0  0  0  0  0  0  0  0  0  0  0  0
    9.5812    3.9881    6.3099 C   0  0  0  0  0  0  0  0  0  0  0  0
    8.8106    4.2636    5.0997 C   0  0  0  0  0  0  0  0  0  0  0  0
    8.6254    5.5076    4.5502 C   0  0  0  0  0  0  0  0  0  0  0  0
    9.1155    6.7059    5.1091 C   0  0  0  0  0  0  0  0  0  0  0  0
    9.4764    7.7222    5.5046 N   0  0  0  0  0  0  0  0  0  0  0  0
    7.9632    5.7906    3.3367 C   0  0  0  0  0  0  0  0  0  0  0  0
    7.4613    6.1201    2.3567 N   0  0  0  0  0  0  0  0  0  0  0  0
   11.5726    4.5130    9.5467 C   0  0  0  0  0  0  0  0  0  0  0  0
   10.7386    4.9130   10.7822 C   0  0  0  0  0  0  0  0  0  0  0  0
   11.6621    4.6381   11.9469 C   0  0  0  0  0  0  0  0  0  0  0  0
   11.7670    3.3217   12.0765 C   0  0  0  0  0  0  0  0  0  0  0  0
   10.9160    2.6849   11.0017 C   0  0  0  0  0  0  0  0  0  0  0  0
    9.7854    3.7181   10.9140 C   0  0  0  0  0  0  0  0  0  0  0  0
   11.6959    2.9630    9.6989 C   0  0  0  0  0  0  0  0  0  0  0  0
   -7.3534   -2.6402   -2.4604 H   0  0  0  0  0  0  0  0  0  0  0  0
   -7.0295    3.3695   -4.0318 H   0  0  0  0  0  0  0  0  0  0  0  0
  -11.3529    0.9956   -2.8765 H   0  0  0  0  0  0  0  0  0  0  0  0
  -11.9851    4.2280   -3.8494 H   0  0  0  0  0  0  0  0  0  0  0  0
  -12.1648    4.0571   -1.1973 H   0  0  0  0  0  0  0  0  0  0  0  0
  -12.7871    6.5051   -1.9174 H   0  0  0  0  0  0  0  0  0  0  0  0
  -10.5406    7.7848   -2.5287 H   0  0  0  0  0  0  0  0  0  0  0  0
   -8.5333    6.1232   -2.1837 H   0  0  0  0  0  0  0  0  0  0  0  0
   -9.4844    3.8628   -1.0916 H   0  0  0  0  0  0  0  0  0  0  0  0
  -10.0486    5.2828   -0.1825 H   0  0  0  0  0  0  0  0  0  0  0  0
   -9.7806    5.4796   -4.4481 H   0  0  0  0  0  0  0  0  0  0  0  0
   -7.8504   -4.5107   -0.0103 H   0  0  0  0  0  0  0  0  0  0  0  0
   -9.9236   -3.3493    0.6400 H   0  0  0  0  0  0  0  0  0  0  0  0
   -9.7128    1.5538    1.2692 H   0  0  0  0  0  0  0  0  0  0  0  0
   -9.9727    1.2023   -0.4717 H   0  0  0  0  0  0  0  0  0  0  0  0
  -11.3541    1.5463    0.5917 H   0  0  0  0  0  0  0  0  0  0  0  0
   -7.8797    0.4036    0.4340 H   0  0  0  0  0  0  0  0  0  0  0  0
   -5.8297   -0.7467   -0.1971 H   0  0  0  0  0  0  0  0  0  0  0  0
   -5.7148   -3.8504    1.9109 H   0  0  0  0  0  0  0  0  0  0  0  0
   -4.9762   -5.8725    3.0491 H   0  0  0  0  0  0  0  0  0  0  0  0
   -4.0742   -9.2517    4.0922 H   0  0  0  0  0  0  0  0  0  0  0  0
   -5.3886   -8.1350    3.6618 H   0  0  0  0  0  0  0  0  0  0  0  0
   -3.8078   -7.5011    4.2258 H   0  0  0  0  0  0  0  0  0  0  0  0
   -3.6770   -7.4987   -0.6855 H   0  0  0  0  0  0  0  0  0  0  0  0
   -4.3947   -5.4371   -1.8326 H   0  0  0  0  0  0  0  0  0  0  0  0
    0.2866   -2.9062   -4.0298 H   0  0  0  0  0  0  0  0  0  0  0  0
    2.5886   -3.1658   -4.7852 H   0  0  0  0  0  0  0  0  0  0  0  0
    4.1543   -2.9115   -6.6622 H   0  0  0  0  0  0  0  0  0  0  0  0
    5.9003   -2.8216   -6.3312 H   0  0  0  0  0  0  0  0  0  0  0  0
    4.8259   -3.5693   -5.1319 H   0  0  0  0  0  0  0  0  0  0  0  0
    3.1895    1.0540   -4.4250 H   0  0  0  0  0  0  0  0  0  0  0  0
    0.8629    1.3127   -3.6589 H   0  0  0  0  0  0  0  0  0  0  0  0
   -1.1127    0.6639   -5.6597 H   0  0  0  0  0  0  0  0  0  0  0  0
   -2.5101    2.6294   -6.0940 H   0  0  0  0  0  0  0  0  0  0  0  0
   -5.2239    2.6955   -5.9966 H   0  0  0  0  0  0  0  0  0  0  0  0
   -4.2393    3.9872   -6.7597 H   0  0  0  0  0  0  0  0  0  0  0  0
   -5.8487    4.3644   -6.1174 H   0  0  0  0  0  0  0  0  0  0  0  0
   -3.6795    2.7141   -1.9810 H   0  0  0  0  0  0  0  0  0  0  0  0
   -2.2293    0.7729   -1.5364 H   0  0  0  0  0  0  0  0  0  0  0  0
    3.4679   -2.4450   -2.3138 H   0  0  0  0  0  0  0  0  0  0  0  0
    5.8008   -2.9651   -2.8682 H   0  0  0  0  0  0  0  0  0  0  0  0
    8.9750   -6.8035   -1.7417 H   0  0  0  0  0  0  0  0  0  0  0  0
    7.7402   -6.5316   -0.4913 H   0  0  0  0  0  0  0  0  0  0  0  0
    7.3681   -7.5362   -1.9307 H   0  0  0  0  0  0  0  0  0  0  0  0
    5.3971   -6.7711   -0.9576 H   0  0  0  0  0  0  0  0  0  0  0  0
    3.1048   -6.2251   -0.3522 H   0  0  0  0  0  0  0  0  0  0  0  0
    0.0153   -4.7945    0.9253 H   0  0  0  0  0  0  0  0  0  0  0  0
   -1.3238   -6.8670    0.8144 H   0  0  0  0  0  0  0  0  0  0  0  0
   -0.3200   -9.8759   -2.9226 H   0  0  0  0  0  0  0  0  0  0  0  0
   -1.7453   -8.9316   -3.4687 H   0  0  0  0  0  0  0  0  0  0  0  0
   -1.9591  -10.5292   -2.7209 H   0  0  0  0  0  0  0  0  0  0  0  0
    0.1780   -7.6222   -3.1198 H   0  0  0  0  0  0  0  0  0  0  0  0
    1.5156   -5.5863   -2.9932 H   0  0  0  0  0  0  0  0  0  0  0  0
    1.9881    3.2296   -2.0012 H   0  0  0  0  0  0  0  0  0  0  0  0
   -0.2345    4.2277   -1.9872 H   0  0  0  0  0  0  0  0  0  0  0  0
   -1.5005    6.1248   -1.1272 H   0  0  0  0  0  0  0  0  0  0  0  0
   -3.2764    6.0553   -1.0506 H   0  0  0  0  0  0  0  0  0  0  0  0
   -2.4169    5.0010   -2.1867 H   0  0  0  0  0  0  0  0  0  0  0  0
   -0.8874    2.7355    1.9666 H   0  0  0  0  0  0  0  0  0  0  0  0
    1.3630    1.7149    1.9442 H   0  0  0  0  0  0  0  0  0  0  0  0
    4.0045    4.2390   -0.2870 H   0  0  0  0  0  0  0  0  0  0  0  0
    5.6732    5.0194   -1.9305 H   0  0  0  0  0  0  0  0  0  0  0  0
    8.0849    1.5888   -4.3409 H   0  0  0  0  0  0  0  0  0  0  0  0
    8.2955    2.7128   -5.7014 H   0  0  0  0  0  0  0  0  0  0  0  0
    6.7301    1.9015   -5.4719 H   0  0  0  0  0  0  0  0  0  0  0  0
    5.9813    1.0363   -3.4770 H   0  0  0  0  0  0  0  0  0  0  0  0
    4.3456    0.2798   -1.8742 H   0  0  0  0  0  0  0  0  0  0  0  0
    6.3274   -1.4281    2.1402 H   0  0  0  0  0  0  0  0  0  0  0  0
    7.8862    0.0317    3.5555 H   0  0  0  0  0  0  0  0  0  0  0  0
    6.9674    3.8439    3.2588 H   0  0  0  0  0  0  0  0  0  0  0  0
   10.4269    0.9022    7.5748 H   0  0  0  0  0  0  0  0  0  0  0  0
   10.0745    5.9365    7.1489 H   0  0  0  0  0  0  0  0  0  0  0  0
   12.4825    5.1003    9.4388 H   0  0  0  0  0  0  0  0  0  0  0  0
   10.2963    5.9042   10.7313 H   0  0  0  0  0  0  0  0  0  0  0  0
   12.1715    5.4036   12.5023 H   0  0  0  0  0  0  0  0  0  0  0  0
   12.3818    2.7679   12.7619 H   0  0  0  0  0  0  0  0  0  0  0  0
   10.6347    1.6459   11.1518 H   0  0  0  0  0  0  0  0  0  0  0  0
    9.1952    3.7611   11.8281 H   0  0  0  0  0  0  0  0  0  0  0  0
    9.1244    3.5813   10.0602 H   0  0  0  0  0  0  0  0  0  0  0  0
   12.6886    2.5166    9.6934 H   0  0  0  0  0  0  0  0  0  0  0  0
  1  2  2  0  0  0  0
  2  3  1  0  0  0  0
  3  4  2  0  0  0  0
  3  5  1  0  0  0  0
  5  6  2  0  0  0  0
  6  7  1  0  0  0  0
  7  8  2  0  0  0  0
  8  9  1  0  0  0  0
  9 10  2  0  0  0  0
 10 11  1  0  0  0  0
 11 12  2  0  0  0  0
 12 13  1  0  0  0  0
 13 14  3  0  0  0  0
 12 15  1  0  0  0  0
 15 16  3  0  0  0  0
  8 17  1  0  0  0  0
 17 18  1  0  0  0  0
 18 19  1  0  0  0  0
 19 20  2  0  0  0  0
 20 21  1  0  0  0  0
 21 22  1  0  0  0  0
 21 23  1  0  0  0  0
  1 24  1  0  0  0  0
 24 25  2  0  0  0  0
 25 26  1  0  0  0  0
 26 27  1  0  0  0  0
 27 28  2  0  0  0  0
 28 29  1  0  0  0  0
 29 30  2  0  0  0  0
 30 31  1  0  0  0  0
 31 32  1  0  0  0  0
 30 33  1  0  0  0  0
 33 34  2  0  0  0  0
 26 35  1  0  0  0  0
 35 36  2  0  0  0  0
 36 37  1  0  0  0  0
 37 38  2  0  0  0  0
 38 39  1  0  0  0  0
 39 40  1  0  0  0  0
 38 41  1  0  0  0  0
 41 42  2  0  0  0  0
 25 43  1  0  0  0  0
 43 44  1  0  0  0  0
 44 45  1  0  0  0  0
 45 46  2  0  0  0  0
 46 47  1  0  0  0  0
 47 48  1  0  0  0  0
 48 49  2  0  0  0  0
 49 50  1  0  0  0  0
 50 51  2  0  0  0  0
 51 52  1  0  0  0  0
 52 53  1  0  0  0  0
 51 54  1  0  0  0  0
 54 55  2  0  0  0  0
 47 56  1  0  0  0  0
 56 57  2  0  0  0  0
 57 58  1  0  0  0  0
 58 59  2  0  0  0  0
 59 60  1  0  0  0  0
 60 61  1  0  0  0  0
 59 62  1  0  0  0  0
 62 63  2  0  0  0  0
 46 64  1  0  0  0  0
 64 65  1  0  0  0  0
 45 66  1  0  0  0  0
 66 67  2  0  0  0  0
 67 68  1  0  0  0  0
 68 69  1  0  0  0  0
 69 70  2  0  0  0  0
 70 71  1  0  0  0  0
 71 72  2  0  0  0  0
 72 73  1  0  0  0  0
 73 74  1  0  0  0  0
 72 75  1  0  0  0  0
 75 76  2  0  0  0  0
 68 77  1  0  0  0  0
 77 78  2  0  0  0  0
 78 79  1  0  0  0  0
 79 80  2  0  0  0  0
 80 81  1  0  0  0  0
 81 82  1  0  0  0  0
 80 83  1  0  0  0  0
 83 84  2  0  0  0  0
 67 85  1  0  0  0  0
 85 86  1  0  0  0  0
 86 87  1  0  0  0  0
 87 88  2  0  0  0  0
 88 89  1  0  0  0  0
 89 90  1  0  0  0  0
 90 91  2  0  0  0  0
 91 92  1  0  0  0  0
 92 93  2  0  0  0  0
 93 94  1  0  0  0  0
 94 95  1  0  0  0  0
 93 96  1  0  0  0  0
 96 97  2  0  0  0  0
 89 98  1  0  0  0  0
 98 99  2  0  0  0  0
 99100  1  0  0  0  0
100101  2  0  0  0  0
101102  1  0  0  0  0
102103  1  0  0  0  0
101104  1  0  0  0  0
104105  2  0  0  0  0
 88106  1  0  0  0  0
106107  1  0  0  0  0
 87108  1  0  0  0  0
108109  2  0  0  0  0
109110  1  0  0  0  0
110111  2  0  0  0  0
111112  1  0  0  0  0
111113  1  0  0  0  0
113114  2  0  0  0  0
114115  1  0  0  0  0
115116  2  0  0  0  0
115117  1  0  0  0  0
117118  2  0  0  0  0
118119  1  0  0  0  0
119120  2  0  0  0  0
120121  1  0  0  0  0
121122  2  0  0  0  0
122123  1  0  0  0  0
123124  2  0  0  0  0
124125  1  0  0  0  0
125126  3  0  0  0  0
124127  1  0  0  0  0
127128  3  0  0  0  0
120129  1  0  0  0  0
129130  1  0  0  0  0
130131  1  0  0  0  0
131132  2  0  0  0  0
132133  1  0  0  0  0
133134  1  0  0  0  0
133135  1  0  0  0  0
 11  2  1  0  0  0  0
 23 17  1  0  0  0  0
 65 24  1  0  0  0  0
107 66  1  0  0  0  0
112108  1  0  0  0  0
123114  1  0  0  0  0
135129  1  0  0  0  0
 10  5  1  0  0  0  0
 22 18  1  0  0  0  0
 34 27  1  0  0  0  0
 42 35  1  0  0  0  0
 64 43  2  0  0  0  0
 76 69  1  0  0  0  0
 84 77  1  0  0  0  0
106 85  2  0  0  0  0
122117  1  0  0  0  0
134130  1  0  0  0  0
 23  7  1  0  0  0  0
 55 48  1  0  0  0  0
 63 56  1  0  0  0  0
 97 90  1  0  0  0  0
105 98  1  0  0  0  0
135119  1  0  0  0  0
  1136  1  0  0  0  0
  6137  1  0  0  0  0
  9138  1  0  0  0  0
 17139  1  0  0  0  0
 18140  1  0  0  0  0
 19141  1  0  0  0  0
 20142  1  0  0  0  0
 21143  1  0  0  0  0
 22144  1  0  0  0  0
 22145  1  0  0  0  0
 23146  1  0  0  0  0
 28147  1  0  0  0  0
 29148  1  0  0  0  0
 32149  1  0  0  0  0
 32150  1  0  0  0  0
 32151  1  0  0  0  0
 33152  1  0  0  0  0
 34153  1  0  0  0  0
 36154  1  0  0  0  0
 37155  1  0  0  0  0
 40156  1  0  0  0  0
 40157  1  0  0  0  0
 40158  1  0  0  0  0
 41159  1  0  0  0  0
 42160  1  0  0  0  0
 49161  1  0  0  0  0
 50162  1  0  0  0  0
 53163  1  0  0  0  0
 53164  1  0  0  0  0
 53165  1  0  0  0  0
 54166  1  0  0  0  0
 55167  1  0  0  0  0
 57168  1  0  0  0  0
 58169  1  0  0  0  0
 61170  1  0  0  0  0
 61171  1  0  0  0  0
 61172  1  0  0  0  0
 62173  1  0  0  0  0
 63174  1  0  0  0  0
 70175  1  0  0  0  0
 71176  1  0  0  0  0
 74177  1  0  0  0  0
 74178  1  0  0  0  0
 74179  1  0  0  0  0
 75180  1  0  0  0  0
 76181  1  0  0  0  0
 78182  1  0  0  0  0
 79183  1  0  0  0  0
 82184  1  0  0  0  0
 82185  1  0  0  0  0
 82186  1  0  0  0  0
 83187  1  0  0  0  0
 84188  1  0  0  0  0
 91189  1  0  0  0  0
 92190  1  0  0  0  0
 95191  1  0  0  0  0
 95192  1  0  0  0  0
 95193  1  0  0  0  0
 96194  1  0  0  0  0
 97195  1  0  0  0  0
 99196  1  0  0  0  0
100197  1  0  0  0  0
103198  1  0  0  0  0
103199  1  0  0  0  0
103200  1  0  0  0  0
104201  1  0  0  0  0
105202  1  0  0  0  0
109203  1  0  0  0  0
110204  1  0  0  0  0
113205  1  0  0  0  0
118206  1  0  0  0  0
121207  1  0  0  0  0
129208  1  0  0  0  0
130209  1  0  0  0  0
131210  1  0  0  0  0
132211  1  0  0  0  0
133212  1  0  0  0  0
134213  1  0  0  0  0
134214  1  0  0  0  0
135215  1  0  0  0  0
M  END
