202

C         -5.94420       -0.35550        3.41070
C         -5.79390       -1.34960        4.35680
C         -4.80820       -2.43210        4.26300
O         -4.01700       -2.63510        3.35320
C         -5.05030       -3.30590        5.42530
C         -4.32690       -4.43640        5.79370
C         -4.74190       -5.00640        6.97360
C         -5.81020       -4.50090        7.72410
C         -6.54340       -3.39530        7.36320
C         -6.12850       -2.79370        6.17310
C         -6.61180       -1.58180        5.51490
C         -7.55900       -0.71930        6.01190
C         -8.27750       -0.91900        7.20410
N         -8.88340       -0.99850        8.17790
C         -7.86980        0.53000        5.43960
N         -8.13690        1.58170        5.06160
C         -5.67110       -5.56120        8.78780
C         -6.69010       -6.71940        8.74880
C         -6.03210       -7.80790        9.56560
C         -5.01690       -8.28600        8.85760
C         -4.97190       -7.52880        7.55000
C         -6.47060       -7.27960        7.33740
C         -4.47640       -6.12380        7.95240
C         -4.93760        0.11250        2.56620
C         -3.53220        0.06040        2.66610
N         -2.76470       -0.31880        3.73070
C         -3.17390       -0.37600        5.06270
C         -2.61760       -1.35060        5.89820
C         -3.03920       -1.47620        7.20010
C         -4.02180       -0.62870        7.71410
S         -4.53920       -0.94970        9.36330
C         -5.77340        0.33280        9.71410
C         -4.52590        0.38700        6.91030
C         -4.10700        0.50960        5.59940
C         -1.40370       -0.62610        3.45130
C         -0.39760        0.22690        3.88770
C          0.90200        0.03830        3.45770
C          1.20170       -1.00990        2.59650
S          2.79590       -1.22510        1.86970
C          3.47320        0.46120        1.89350
C          0.21440       -1.93460        2.26110
C         -1.08320       -1.74220        2.68260
C         -2.94910        0.54900        1.47280
S         -1.31430        0.71240        0.96140
C         -1.83180        1.33170       -0.59570
C         -3.20590        1.51410       -0.67040
N         -3.84930        2.13870       -1.71430
C         -3.13530        3.00050       -2.56730
C         -2.18580        3.89030       -2.07430
C         -1.46880        4.70510       -2.92980
C         -1.71460        4.66580       -4.29510
S         -0.83740        5.62020       -5.49370
C          0.22060        6.70870       -4.49760
C         -2.70010        3.81020       -4.78790
C         -3.39350        2.97960       -3.93710
C         -5.24200        2.04610       -1.89340
C         -5.91220        0.83700       -1.75340
C         -7.28140        0.76070       -1.92900
C         -8.00540        1.89900       -2.24920
S         -9.75160        1.92250       -2.49660
C        -10.29030        0.29830       -1.89000
C         -7.33510        3.11200       -2.40650
C         -5.97300        3.18730       -2.22860
C         -3.83050        1.03290        0.51460
S         -5.45990        0.93190        1.08110
C         -0.73800        1.53990       -1.50480
C         -0.45650        0.97750       -2.73940
N         -1.31020        0.19270       -3.49050
C         -1.15720        0.16360       -4.88540
C         -1.32680       -1.02100       -5.59710
C         -1.18150       -1.04840       -6.97010
C         -0.85420        0.11080       -7.66120
S         -0.64160        0.20110       -9.41010
C         -1.02310       -1.47730       -9.98760
C         -0.67010        1.29580       -6.95240
C         -0.81800        1.32290       -5.58430
C         -2.21260       -0.67940       -2.86340
C         -1.88250       -1.32080       -1.67190
C         -2.79570       -2.13320       -1.02660
C         -4.04210       -2.36180       -1.59230
S         -5.31200       -3.33320       -0.84700
C         -4.50500       -4.11350        0.57530
C         -4.35120       -1.77400       -2.82000
C         -3.45940       -0.92630       -3.43720
C          0.88980        1.23160       -3.11440
S          1.89350        0.67520       -4.40950
C          3.31080        1.39460       -3.65360
C          3.00920        2.02850       -2.44810
N          3.88660        2.63040       -1.56440
C          5.13650        2.07980       -1.27700
C          5.33160        0.69910       -1.31630
C          6.59110        0.15750       -1.15200
C          7.67860        0.98900       -0.92010
S          9.34620        0.42240       -0.78690
C          9.27380       -1.28390       -1.39780
C          7.47260        2.36260       -0.78860
C          6.22160        2.90480       -0.97150
C          3.44120        3.78230       -0.89630
C          2.69040        4.73490       -1.57960
C          2.21660        5.85960       -0.93380
C          2.49230        6.05480        0.41290
S          1.94030        7.44150        1.34980
C          1.00840        8.44020        0.15390
C          3.25580        5.10900        1.09710
C          3.72400        3.98610        0.45460
C          1.62410        1.93410       -2.17650
S          0.66640        2.34830       -0.80320
C          4.57140        1.19610       -4.27150
C          4.94700        0.28200       -5.25500
C          6.32920        0.35980       -5.36160
C          6.75110        1.33280       -4.45560
O          5.65060        1.85990       -3.83710
C          7.97400        1.84570       -3.99280
C          9.24590        1.34840       -4.09130
C          9.66230        0.08520       -4.71900
O          9.02180       -0.64270       -5.44660
C         11.04120       -0.16180       -4.22700
C         11.82520       -1.28860       -4.39890
Cl        11.33910       -2.56710       -5.42160
C         13.03320       -1.37060       -3.69250
Cl        14.05110       -2.73090       -3.89640
C         13.38050       -0.37060       -2.78640
Cl        14.80460       -0.54460       -1.85410
C         12.57520        0.76620       -2.60790
Cl        12.96800        1.84800       -1.33930
C         11.43640        0.90280       -3.39220
C         10.40750        1.93740       -3.44960
C         10.55950        3.26160       -3.12760
C         11.78730        3.91160       -2.87920
N         12.73750        4.54820       -2.78220
C          9.52170        4.21810       -3.14710
N          8.73610        5.05500       -3.09830
H         -6.91830        0.09890        3.27830
H         -3.50420       -4.79070        5.19200
H         -7.36410       -3.01840        7.95050
H         -5.47640       -5.19620        9.79420
H         -7.70360       -6.44370        9.02670
H         -6.32830       -8.07080       10.56410
H         -4.29560       -9.02790        9.14660
H         -4.42020       -7.99150        6.73580
H         -7.02220       -8.20340        7.17070
H         -6.69360       -6.57290        6.54020
H         -3.48600       -6.13390        8.40400
H         -1.87360       -2.02510        5.50320
H         -2.63090       -2.24760        7.83440
H         -5.32790        1.31680        9.60410
H         -6.63870        0.20980        9.06960
H         -6.06650        0.17480       10.74740
H         -5.25850        1.08360        7.28590
H         -4.51110        1.30450        4.99080
H         -0.64290        1.06120        4.52800
H          1.66640        0.72760        3.77760
H          3.80540        0.72490        2.89340
H          2.71700        1.15320        1.53280
H          4.32420        0.44800        1.21800
H          0.47250       -2.77800        1.63930
H         -1.87210       -2.42550        2.41000
H         -2.00830        3.95630       -1.01120
H         -0.72560        5.36500       -2.51230
H          0.95040        6.12080       -3.94870
H         -0.39180        7.30850       -3.83040
H          0.72920        7.35180       -5.20920
H         -2.89640        3.79160       -5.84870
H         -4.14370        2.30820       -4.32590
H         -5.36020       -0.05870       -1.52530
H         -7.76040       -0.19790       -1.81530
H        -11.37540        0.32900       -1.89600
H         -9.92880        0.14930       -0.87700
H         -9.94200       -0.48770       -2.55390
H         -7.90140        3.99510       -2.65900
H         -5.46580        4.13390       -2.34150
H         -1.57000       -1.93200       -5.07080
H         -1.31820       -1.98530       -7.48530
H         -2.03840       -1.74390       -9.70910
H         -0.30280       -2.18360       -9.58520
H         -0.93580       -1.43950      -11.06900
H         -0.41420        2.19720       -7.48730
H         -0.68190        2.24940       -5.05040
H         -0.90030       -1.18810       -1.24340
H         -2.52000       -2.58330       -0.08680
H         -5.22630       -4.82880        0.95980
H         -4.28120       -3.37740        1.34310
H         -3.61120       -4.63540        0.24610
H         -5.31320       -1.97130       -3.26790
H         -3.72260       -0.44840       -4.36840
H          4.49370        0.04370       -1.50570
H          6.70930       -0.91230       -1.21090
H          8.79680       -1.30510       -2.37370
H         10.30660       -1.60870       -1.48380
H          8.74830       -1.91460       -0.68660
H          8.31480        3.00310       -0.57610
H          6.08750        3.97400       -0.92210
H          2.48550        4.59050       -2.63080
H          1.64570        6.58350       -1.49310
H          0.65930        9.30560        0.70840
H          0.15820        7.87660       -0.21920
H          1.66090        8.76030       -0.65330
H          3.46980        5.26770        2.14280
H          4.30900        3.25740        0.99500
H          4.28330       -0.36480       -5.79220
H          6.96690       -0.21540       -5.99930
H          7.83540        2.71760       -3.36700
