176

C          0.37320       -5.82070        0.16810
C          0.65980       -6.17390        1.46470
C          0.73730       -5.28110        2.63060
O          0.21540       -4.19180        2.77840
C          1.58270       -5.97870        3.61870
C          2.03300       -5.48190        4.83930
C          2.82440       -6.36030        5.54040
C          3.14160       -7.64050        5.06760
C          2.68920       -8.14980        3.87270
C          1.88630       -7.26980        3.14260
C          1.20440       -7.45240        1.86440
C          0.99290       -8.65240        1.23250
C          1.57740       -9.87330        1.62210
N          2.04040      -10.89300        1.87700
C          0.04090       -8.83460        0.21490
N         -0.79840       -9.07500       -0.53280
C          3.98760       -7.96390        6.27410
C          5.51760       -7.88430        6.08570
C          6.05000       -7.77200        7.49610
C          5.74640       -6.56140        7.94680
C          5.00380       -5.83520        6.84860
C          5.69940       -6.43410        5.61930
C          3.63040       -6.53780        6.80330
C         -0.03640       -4.58130       -0.34390
C          0.08720       -4.18030       -1.69450
N          0.64740       -4.91130       -2.71690
C          1.42640       -4.22750       -3.66670
C          2.33260       -3.25560       -3.25040
C          3.08200       -2.54860       -4.16880
C          2.94220       -2.80980       -5.52550
S          3.83150       -1.96150       -6.78920
C          4.61230       -0.57670       -5.91210
C          2.05830       -3.80380       -5.94380
C          1.30580       -4.50360       -5.02840
C          0.33300       -6.25980       -2.94370
C         -0.96260       -6.73100       -2.74700
C         -1.27590       -8.04740       -3.01280
C         -0.29450       -8.91840       -3.47400
S         -0.59630      -10.61080       -3.84640
C         -2.10200      -10.97320       -2.89880
C          1.00080       -8.44630       -3.67900
C          1.31380       -7.13160       -3.41780
C         -0.34860       -2.85180       -1.86760
S         -0.41170       -1.76670       -3.22360
C         -1.10390       -0.53380       -2.20820
C         -1.26210       -0.92490       -0.90130
N         -1.74230       -0.06080        0.08480
C         -1.00760        1.12270        0.30240
C         -1.63380        2.36610        0.36940
C         -0.89060        3.50770        0.60470
C          0.48310        3.40990        0.77480
S          1.45770        4.85490        1.16170
C          1.48430        5.63550       -0.47920
C          1.11630        2.18070        0.68650
C          0.37550        1.04190        0.44440
C         -2.76600       -0.46590        0.93280
C         -2.98630        0.16520        2.15890
C         -4.00570       -0.25370        2.98370
C         -4.82750       -1.31630        2.61750
S         -6.11360       -1.75980        3.74870
C         -6.61400       -3.41380        3.18890
C         -4.61460       -1.94820        1.40170
C         -3.59580       -1.52560        0.57020
C         -0.84110       -2.26540       -0.71020
S         -0.71090       -3.29280        0.66170
C         -1.46440        0.79940       -2.69590
C         -0.52740        1.81880       -2.72920
F          0.76610        1.54150       -2.49260
C         -0.91500        3.12930       -2.93110
F          0.03110        4.08620       -2.85530
C         -2.24850        3.46330       -3.18830
C         -3.15210        2.39440       -3.40140
O         -4.39630        2.63410       -3.93970
C         -4.37050        3.01640       -5.31700
C         -3.84530        1.91550       -6.22920
C         -2.79400        1.08210       -3.05940
O         -3.61510        0.01470       -3.04700
C         -5.03110        0.16850       -3.03340
C         -5.62790       -1.12680       -2.50680
C         -2.69710        4.83830       -3.10810
C         -3.98200        5.33040       -3.17220
C         -4.08070        6.69240       -2.85540
S         -5.63760        7.51330       -2.83180
C         -5.63940        8.33330       -1.19030
C         -5.34690        7.36470       -0.06300
C         -2.86990        7.26090       -2.50420
S         -1.59800        6.09030       -2.61140
C         -2.60450        8.61370       -2.13200
C         -1.76810        8.96930       -1.12300
C         -1.27540        8.02300       -0.08530
O         -1.62840        6.87200        0.07770
C         -0.37880        8.79740        0.77860
C          0.38030        8.30960        1.84190
C          1.13560        9.26990        2.46920
C          1.13230       10.61640        2.07550
C          0.38670       11.10950        1.03140
C         -0.39120       10.14970        0.37430
C         -1.29250       10.29590       -0.76430
C         -1.62570       11.47380       -1.37750
C         -1.14920       12.74340       -0.98670
N         -0.80990       13.80740       -0.72190
C         -2.51670       11.59620       -2.46470
N         -3.23790       11.77000       -3.34130
C          2.11570       11.01410        3.14750
C          1.53270       11.72590        4.38720
C          2.60650       11.55780        5.43790
C          2.61380       10.28330        5.80720
C          1.54480        9.56830        5.01310
C          0.51180       10.69570        4.88750
C          2.12200        9.51310        3.58250
H          0.57880       -6.57430       -0.58600
H          1.76180       -4.49150        5.16990
H          2.93440       -9.13820        3.52030
H          3.67520       -8.82940        6.85510
H          5.94100       -8.66810        5.46370
H          6.52720       -8.57720        8.02310
H          5.91930       -6.15340        8.92550
H          4.95930       -4.75180        6.92140
H          6.74870       -6.14920        5.56060
H          5.20680       -6.20610        4.67590
H          3.07700       -6.45290        7.73660
H          2.45000       -3.05150       -2.19610
H          3.77250       -1.80230       -3.81140
H          5.05430        0.04600       -6.68370
H          3.85790       -0.01500       -5.36920
H          5.38960       -0.94230       -5.24710
H          1.96020       -4.00750       -6.99880
H          0.61010       -5.25820       -5.36210
H         -1.72520       -6.05520       -2.38850
H         -2.28780       -8.38450       -2.86460
H         -2.97480      -10.57500       -3.40850
H         -1.99130      -10.55440       -1.90370
H         -2.16820      -12.05550       -2.84840
H          1.75790       -9.12700       -4.03620
H          2.31980       -6.76930       -3.57010
H         -2.70490        2.42890        0.24320
H         -1.37020        4.47380        0.65510
H          2.06470        6.54750       -0.38300
H          0.46850        5.86200       -0.78330
H          1.95160        4.96150       -1.18990
H          2.18530        2.12010        0.82030
H          0.86170        0.07990        0.38070
H         -2.34520        0.97480        2.47130
H         -4.16990        0.23370        3.93240
H         -5.73540       -4.04390        3.08790
H         -7.26400       -3.80380        3.96590
H         -7.16210       -3.34730        2.25310
H         -5.23750       -2.76960        1.08400
H         -3.44230       -2.02540       -0.37410
H         -3.76920        3.92410       -5.44640
H         -5.41290        3.24490       -5.54980
H         -3.89450        2.25170       -7.26090
H         -4.44100        1.01170       -6.12810
H         -2.81100        1.67870       -5.98670
H         -5.39530        0.36410       -4.04730
H         -5.31030        1.01040       -2.39290
H         -6.71050       -1.08380       -2.58360
H         -5.35200       -1.27350       -1.46670
H         -5.26230       -1.96660       -3.09180
H         -4.85030        4.74010       -3.39200
H         -4.93450        9.16260       -1.20820
H         -6.65130        8.73130       -1.11540
H         -4.32910        6.98380       -0.12490
H         -5.46380        7.87250        0.89250
H         -6.03500        6.52270       -0.09580
H         -3.11690        9.36910       -2.71660
H          0.36710        7.26350        2.10510
H          0.40220       12.14550        0.73700
H          3.04390       11.46170        2.79770
H          1.17810       12.73690        4.20630
H          3.26510       12.34560        5.75330
H          3.28010        9.79340        6.49260
H          1.20210        8.61320        5.40100
H         -0.29070       10.48610        4.18250
H          0.08640       10.97320        5.85050
H          3.05280        8.95320        3.52020
