250

C         -5.35250        7.57250        0.18710
C         -5.16070        8.83840        0.68280
C         -3.88160        9.46700        1.05040
O         -2.76980        9.22230        0.61810
C         -4.21610       10.51450        2.03310
C         -3.32640       11.27310        2.78970
C         -3.93750       12.18430        3.61780
C         -5.32880       12.33360        3.68820
C         -6.21800       11.58860        2.94940
C         -5.61720       10.65190        2.10450
C         -6.21640        9.69470        1.17850
C         -7.52470        9.68770        0.76440
C         -8.53100       10.52100        1.29160
N         -9.39750       11.16040        1.69090
C         -7.99800        8.94600       -0.33290
N         -8.43640        8.44960       -1.27220
C         -5.24010       13.41630        4.73530
C         -5.55630       12.99810        6.18670
C         -4.93220       14.09190        7.02300
C         -3.61470       13.94860        6.95670
C         -3.32580       12.75590        6.07410
C         -4.53530       11.87620        6.41630
C         -3.68860       13.24880        4.65720
C         -4.39700        6.61610       -0.18480
C         -4.63540        5.22860       -0.28140
N         -5.81340        4.56390       -0.01000
C         -5.70530        3.32320        0.64600
C         -6.42890        2.20650        0.22800
C         -6.22960        0.98620        0.83340
C         -5.30580        0.84510        1.86900
S         -5.08610       -0.78050        2.51370
C         -3.83090       -0.58500        3.80860
C         -4.62010        1.96510        2.32130
C         -4.82520        3.18950        1.71820
C         -7.03590        4.95450       -0.57290
C         -8.22720        4.71740        0.11300
C         -9.43150        5.06540       -0.45630
C         -9.47140        5.66000       -1.71560
S        -11.05570        6.06370       -2.36860
C        -10.66860        7.39770       -3.53870
C         -8.28560        5.88680       -2.40510
C         -7.07870        5.53950       -1.83670
C         -3.44800        4.53710       -0.58130
S         -3.07810        2.86900       -0.82280
C         -1.39250        3.27190       -1.14700
C         -1.14550        4.62170       -1.04360
N          0.10140        5.22600       -1.11230
C          0.99980        4.96420       -2.15060
C          0.54990        4.70590       -3.44090
C          1.44640        4.51170       -4.47390
C          2.81080        4.57360       -4.23130
S          4.04130        4.34490       -5.47780
C          3.10340        4.30700       -7.02960
C          3.26630        4.81830       -2.93730
C          2.37300        5.01280       -1.90740
C          0.29150        6.34900       -0.28460
C         -0.08480        6.28610        1.05680
C         -0.03510        7.41360        1.84650
C          0.39950        8.62120        1.31190
S          0.36710       10.04380        2.35750
C          0.14780       11.39020        1.15420
C          0.84440        8.67070       -0.00180
C          0.78610        7.54380       -0.79600
C         -2.33710        5.34410       -0.75410
S         -2.70230        7.00720       -0.49800
C         -0.46980        2.16170       -1.23390
C         -0.07440        1.38210       -2.29810
N         -0.34180        1.63020       -3.63920
C          0.67050        1.38270       -4.56950
C          0.37610        0.98970       -5.87560
C          1.39230        0.74460       -6.77270
C          2.72690        0.85920       -6.38680
S          3.94450        0.52880       -7.62410
C          5.51540        0.88150       -6.78670
C          3.02580        1.23080       -5.08390
C          2.00750        1.50610       -4.19390
C         -1.64700        1.97370       -4.02270
C         -2.73390        1.36570       -3.40350
C         -4.02870        1.75370       -3.69230
C         -4.25880        2.76470       -4.61300
S         -5.85720        3.41120       -4.99470
C         -6.93760        2.62570       -3.76820
C         -3.17770        3.32540       -5.29230
C         -1.88950        2.93140       -5.00890
C          0.65750        0.24770       -1.85310
S          1.31600       -1.14340       -2.64110
C          1.69290       -1.86620       -1.09060
C          1.35720       -1.05250       -0.03010
N          1.62300       -1.33500        1.32120
C          0.70840       -2.06920        2.07120
C          1.12250       -2.74640        3.21850
C          0.21820       -3.43980        3.99600
C         -1.11940       -3.49070        3.62880
S         -2.37790       -4.25020        4.61550
C         -1.44250       -5.25720        5.79940
C         -1.52790       -2.87800        2.44790
C         -0.62810       -2.17280        1.67860
C          2.64840       -0.58310        1.90960
C          3.80050       -0.30550        1.17790
C          4.82320        0.44890        1.72040
C          4.71340        0.94050        3.01280
S          5.95280        1.90530        3.82200
C          7.29540        2.00570        2.60440
C          3.55690        0.67750        3.74500
C          2.53450       -0.06630        3.20140
C          0.77800        0.15540       -0.47880
S          0.03920        1.49100        0.31980
C          2.26590       -3.17580       -1.01180
C          1.95670       -4.14340       -0.10620
C          2.70170       -5.33460       -0.27440
C          2.57290       -6.53130        0.45350
C          1.49080       -6.75380        1.39050
C          1.48960       -7.47650        2.55040
C          0.20800       -7.61660        3.11910
C         -0.77880       -7.01770        2.39680
C         -2.25120       -7.05290        2.61730
C         -2.91530       -8.06310        1.67900
S         -0.12810       -6.22580        1.00220
C          3.48890       -7.53780        0.15510
C          4.45610       -7.41420       -0.87790
C          4.51330       -6.24730       -1.68060
C          5.39520       -6.15560       -2.82150
C          5.70060       -7.12380       -3.73980
C          6.56440       -6.67580       -4.75700
C          6.93280       -5.37190       -4.62120
C          7.80390       -4.55120       -5.50800
C          7.01000       -3.43460       -6.18890
S          6.19960       -4.66270       -3.22120
C          3.64790       -5.22290       -1.32440
S          3.51620       -3.67830       -2.12640
C          5.26410       -8.55850       -0.95620
C          4.92660       -9.55510       -0.05850
S          3.57460       -9.08290        0.94840
C          5.62380      -10.78100       -0.01780
C          5.44300      -11.88280        0.76880
C          4.44370      -12.03660        1.84200
O          3.60790      -11.23020        2.20260
C          4.65740      -13.37590        2.41400
C          3.94590      -13.95830        3.46040
C          4.36420      -15.22640        3.78300
C          5.41860      -15.86590        3.11680
C          6.13050      -15.30080        2.08590
C          5.71680      -14.01160        1.73580
C          6.21800      -13.11030        0.70050
C          7.22980      -13.40190       -0.17780
C          7.71620      -12.55660       -1.19720
N          8.17550      -11.94250       -2.05320
C          7.94350      -14.61910       -0.20070
N          8.56940      -15.57810       -0.28470
C          5.29130      -17.11670        3.94950
C          4.59880      -18.34280        3.30450
C          3.65640      -17.80180        2.25800
C          2.65730      -17.19710        2.88660
C          2.90610      -17.31810        4.36980
C          3.59690      -18.69030        4.41720
C          4.11560      -16.40490        4.69030
H         -6.37750        7.21440        0.16810
H         -2.26170       11.11940        2.71800
H         -7.28690       11.70630        3.01780
H         -5.67540       14.37610        4.46400
H         -6.60190       12.77220        6.37760
H         -5.49320       14.86480        7.51490
H         -2.85530       14.57800        7.38250
H         -2.33960       12.30810        6.16130
H         -4.51950       11.53980        7.45170
H         -4.66100       11.01940        5.75700
H         -3.08870       14.09830        4.33570
H         -7.14010        2.29670       -0.57960
H         -6.77630        0.11820        0.49850
H         -3.67990       -1.57910        4.21960
H         -4.19800        0.08230        4.58280
H         -2.90310       -0.22280        3.37480
H         -3.91930        1.89840        3.13740
H         -4.28370        4.05510        2.07180
H         -8.19670        4.26770        1.09450
H        -10.35540        4.89230        0.07340
H        -10.27770        6.98760       -4.46570
H         -9.95970        8.07060       -3.06710
H        -11.60680        7.90890       -3.73010
H         -8.29190        6.32600       -3.38860
H         -6.15980        5.71160       -2.37780
H         -0.51230        4.68190       -3.63370
H          1.07230        4.32900       -5.46840
H          3.84550        4.24110       -7.81950
H          2.53270        5.22500       -7.13470
H          2.46070        3.43120       -7.05780
H          4.32930        4.85830       -2.75380
H          2.72710        5.21640       -0.90780
H         -0.44310        5.35170        1.46460
H         -0.35010        7.37430        2.87800
H         -0.63650       11.10560        0.45870
H         -0.14940       12.26500        1.72500
H          1.08100       11.59630        0.63780
H          1.21760        9.58930       -0.42540
H          1.10160        7.59420       -1.82780
H         -0.65190        0.87090       -6.18270
H          1.16280        0.44800       -7.78490
H          5.66940        0.17490       -5.97620
H          6.28400        0.74860       -7.54170
H          5.52140        1.90650       -6.42680
H          4.04460        1.32820       -4.74840
H          2.25830        1.83060       -3.19500
H         -2.56490        0.58730       -2.67360
H         -4.84020        1.26510       -3.17820
H         -7.03370        1.56390       -3.97690
H         -7.90350        3.11160       -3.86710
H         -6.53870        2.79990       -2.77360
H         -3.36340        4.08700       -6.03440
H         -1.06310        3.37180       -5.54400
H          2.16350       -2.72070        3.50340
H          0.57160       -3.93480        4.88600
H         -0.93400       -4.61920        6.51680
H         -2.17860       -5.86880        6.31210
H         -0.74020       -5.88710        5.26120
H         -2.56250       -2.94280        2.14750
H         -0.96280       -1.69010        0.77300
H          3.90270       -0.68910        0.17360
H          5.69960        0.63860        1.12200
H          8.08110        2.58120        3.08390
H          7.65900        1.00950        2.36960
H          6.95220        2.52260        1.71290
H          3.46790        1.07630        4.74400
H          1.63570       -0.24260        3.77260
H          1.20650       -4.01340        0.64990
H          2.37850       -7.88580        2.99460
H          0.02410       -8.16630        4.02610
H         -2.45220       -7.33210        3.65350
H         -2.67900       -6.06490        2.43780
H         -2.50740       -9.05820        1.84250
H         -2.74080       -7.78430        0.64220
H         -3.98740       -8.09070        1.85650
H          5.27710       -8.11190       -3.71710
H          6.90020       -7.30220       -5.56430
H          8.61180       -4.10710       -4.91990
H          8.24980       -5.20280       -6.26210
H          6.21070       -3.85270       -6.79630
H          6.56690       -2.78040       -5.44120
H          7.66120       -2.84470       -6.82910
H          6.09360       -8.65890       -1.63340
H          6.42360      -10.82730       -0.74730
H          3.14290      -13.42650        3.94630
H          6.93960      -15.80830        1.58840
H          6.16800      -17.39360        4.53140
H          5.27880      -19.12550        2.97940
H          3.83730      -17.86270        1.20080
H          1.83650      -16.65120        2.45950
H          2.04420      -17.16890        5.01500
H          4.06910      -18.90590        5.37470
H          2.93040      -19.50680        4.14350
H          4.22330      -16.21830        5.75710
