
  xtb     02042215363D
 energy: -304.938241170306 gnorm: 0.000394181452 xtb: 6.4.1 (unknown)
149167  0     0  0            999 V2000
    1.8243    5.2404    4.4186 C   0  0  0  0  0  0  0  0  0  0  0  0
    3.0615    5.3474    4.9627 C   0  0  0  0  0  0  0  0  0  0  0  0
    4.0523    4.2336    5.0147 C   0  0  0  0  0  0  0  0  0  0  0  0
    3.8924    3.0781    4.6881 O   0  0  0  0  0  0  0  0  0  0  0  0
    5.3251    4.8555    5.4160 C   0  0  0  0  0  0  0  0  0  0  0  0
    6.5533    4.2113    5.5515 C   0  0  0  0  0  0  0  0  0  0  0  0
    7.5884    5.0462    5.8941 C   0  0  0  0  0  0  0  0  0  0  0  0
    7.4172    6.4248    6.0870 C   0  0  0  0  0  0  0  0  0  0  0  0
    6.2121    7.0725    5.9583 C   0  0  0  0  0  0  0  0  0  0  0  0
    5.1435    6.2406    5.6076 C   0  0  0  0  0  0  0  0  0  0  0  0
    3.7425    6.5667    5.3661 C   0  0  0  0  0  0  0  0  0  0  0  0
    3.1549    7.7890    5.5497 C   0  0  0  0  0  0  0  0  0  0  0  0
    1.7797    8.0560    5.3727 C   0  0  0  0  0  0  0  0  0  0  0  0
    0.6762    8.3535    5.2664 N   0  0  0  0  0  0  0  0  0  0  0  0
    3.8398    8.9514    5.9629 C   0  0  0  0  0  0  0  0  0  0  0  0
    4.3367    9.9333    6.2896 N   0  0  0  0  0  0  0  0  0  0  0  0
    8.8798    6.6446    6.3823 C   0  0  0  0  0  0  0  0  0  0  0  0
    9.7550    7.2581    5.2611 C   0  0  0  0  0  0  0  0  0  0  0  0
    9.0971    6.8917    3.9538 C   0  0  0  0  0  0  0  0  0  0  0  0
    9.2572    5.5878    3.7713 C   0  0  0  0  0  0  0  0  0  0  0  0
   10.0270    5.0488    4.9518 C   0  0  0  0  0  0  0  0  0  0  0  0
   10.9223    6.2579    5.2659 C   0  0  0  0  0  0  0  0  0  0  0  0
    9.0695    5.1097    6.1683 C   0  0  0  0  0  0  0  0  0  0  0  0
    1.1891    3.9889    4.1255 C   0  0  0  0  0  0  0  0  0  0  0  0
    1.2108    2.8832    4.9894 C   0  0  0  0  0  0  0  0  0  0  0  0
    0.6887    1.5874    4.5962 C   0  0  0  0  0  0  0  0  0  0  0  0
    0.7920    0.6976    5.5916 N   0  0  0  0  0  0  0  0  0  0  0  0
    1.4672    1.4035    6.8503 S   0  0  0  0  0  4  0  0  0  0  0  0
    1.6561    2.8716    6.2493 N   0  0  0  0  0  0  0  0  0  0  0  0
    0.1407    1.3477    3.3297 C   0  0  0  0  0  0  0  0  0  0  0  0
    0.0213    2.4757    2.5045 C   0  0  0  0  0  0  0  0  0  0  0  0
   -0.4687    2.5115    1.2576 N   0  0  0  0  0  0  0  0  0  0  0  0
   -0.3723    4.0071    0.6994 S   0  0  0  0  0  0  0  0  0  0  0  0
    0.3270    4.7002    1.9598 N   0  0  0  0  0  0  0  0  0  0  0  0
    0.5091    3.7812    2.9137 C   0  0  0  0  0  0  0  0  0  0  0  0
   -0.2306    0.0115    2.8875 C   0  0  0  0  0  0  0  0  0  0  0  0
   -1.4395   -0.2132    2.1739 C   0  0  0  0  0  0  0  0  0  0  0  0
   -2.2866    0.8011    1.9739 N   0  0  0  0  0  0  0  0  0  0  0  0
   -3.3863    0.6044    1.2944 C   0  0  0  0  0  0  0  0  0  0  0  0
   -4.2296    1.7862    1.0625 C   0  0  0  0  0  0  0  0  0  0  0  0
   -4.4859    2.6884    2.0998 C   0  0  0  0  0  0  0  0  0  0  0  0
   -5.3397    3.7615    1.9222 C   0  0  0  0  0  0  0  0  0  0  0  0
   -5.9899    4.0210    0.7002 C   0  0  0  0  0  0  0  0  0  0  0  0
   -6.7837    5.0951    0.6854 O   0  0  0  0  0  0  0  0  0  0  0  0
   -7.7277    5.3220   -0.3578 C   0  0  0  0  0  0  0  0  0  0  0  0
   -8.8740    4.3202   -0.3209 C   0  0  0  0  0  0  0  0  0  0  0  0
   -5.6865    3.1416   -0.3450 C   0  0  0  0  0  0  0  0  0  0  0  0
   -4.8285    2.0655   -0.1595 C   0  0  0  0  0  0  0  0  0  0  0  0
   -4.5638    1.2934   -1.2298 F   0  0  0  0  0  0  0  0  0  0  0  0
   -6.2177    3.2950   -1.5770 F   0  0  0  0  0  0  0  0  0  0  0  0
   -5.5795    4.5904    2.9445 F   0  0  0  0  0  0  0  0  0  0  0  0
   -3.9395    2.4975    3.2991 F   0  0  0  0  0  0  0  0  0  0  0  0
   -3.7389   -0.7096    0.8518 C   0  0  0  0  0  0  0  0  0  0  0  0
   -5.0118   -1.0051    0.1743 C   0  0  0  0  0  0  0  0  0  0  0  0
   -6.2382   -0.5021    0.5944 C   0  0  0  0  0  0  0  0  0  0  0  0
   -6.3230    0.1991    1.7378 F   0  0  0  0  0  0  0  0  0  0  0  0
   -7.4160   -0.7088   -0.1123 C   0  0  0  0  0  0  0  0  0  0  0  0
   -8.5360   -0.1476    0.3902 F   0  0  0  0  0  0  0  0  0  0  0  0
   -7.4380   -1.4545   -1.2961 C   0  0  0  0  0  0  0  0  0  0  0  0
   -8.4770   -1.7475   -2.0828 O   0  0  0  0  0  0  0  0  0  0  0  0
   -9.7121   -1.0419   -1.9959 C   0  0  0  0  0  0  0  0  0  0  0  0
   -9.5862    0.3924   -2.4923 C   0  0  0  0  0  0  0  0  0  0  0  0
   -6.2019   -1.9992   -1.6914 C   0  0  0  0  0  0  0  0  0  0  0  0
   -6.1697   -2.7350   -2.8092 F   0  0  0  0  0  0  0  0  0  0  0  0
   -5.0336   -1.7887   -0.9834 C   0  0  0  0  0  0  0  0  0  0  0  0
   -3.9033   -2.3108   -1.4610 F   0  0  0  0  0  0  0  0  0  0  0  0
   -2.9182   -1.7120    1.0377 N   0  0  0  0  0  0  0  0  0  0  0  0
   -1.7458   -1.5002    1.6498 C   0  0  0  0  0  0  0  0  0  0  0  0
   -0.8293   -2.5719    1.7942 C   0  0  0  0  0  0  0  0  0  0  0  0
    0.3032   -2.3420    2.5414 C   0  0  0  0  0  0  0  0  0  0  0  0
    0.5959   -1.0770    3.0858 C   0  0  0  0  0  0  0  0  0  0  0  0
    1.7763   -0.9382    3.6963 F   0  0  0  0  0  0  0  0  0  0  0  0
    1.2137   -3.3094    2.6946 F   0  0  0  0  0  0  0  0  0  0  0  0
   -1.0023   -3.7999    1.0108 C   0  0  0  0  0  0  0  0  0  0  0  0
   -1.0226   -5.0727    1.5337 C   0  0  0  0  0  0  0  0  0  0  0  0
   -1.0101   -5.2384    2.8668 F   0  0  0  0  0  0  0  0  0  0  0  0
   -1.0628   -6.2163    0.7340 C   0  0  0  0  0  0  0  0  0  0  0  0
   -1.0425   -6.1054   -0.6400 C   0  0  0  0  0  0  0  0  0  0  0  0
   -1.0825   -4.8113   -1.2266 C   0  0  0  0  0  0  0  0  0  0  0  0
   -1.1486   -4.6729   -2.5706 N   0  0  0  0  0  0  0  0  0  0  0  0
   -1.1301   -3.4787   -3.0711 C   0  0  0  0  0  0  0  0  0  0  0  0
   -1.0404   -2.3220   -2.2386 C   0  0  0  0  0  0  0  0  0  0  0  0
   -1.0196   -1.1274   -2.8182 O   0  0  0  0  0  0  0  0  0  0  0  0
   -1.0839    0.0048   -1.9525 C   0  0  0  0  0  0  0  0  0  0  0  0
    0.2281    0.2808   -1.2320 C   0  0  0  0  0  0  0  0  0  0  0  0
   -1.0132   -2.4309   -0.9356 N   0  0  0  0  0  0  0  0  0  0  0  0
   -1.0548   -3.6654   -0.3991 C   0  0  0  0  0  0  0  0  0  0  0  0
   -0.9969   -7.2704   -1.5048 C   0  0  0  0  0  0  0  0  0  0  0  0
   -0.1530   -7.3571   -2.5516 C   0  0  0  0  0  0  0  0  0  0  0  0
    0.9614   -6.3948   -2.8111 C   0  0  0  0  0  0  0  0  0  0  0  0
    1.4357   -5.5901   -2.0415 O   0  0  0  0  0  0  0  0  0  0  0  0
    1.4553   -6.7211   -4.1584 C   0  0  0  0  0  0  0  0  0  0  0  0
    2.4312   -6.0318   -4.8764 C   0  0  0  0  0  0  0  0  0  0  0  0
    2.7068   -6.5724   -6.1081 C   0  0  0  0  0  0  0  0  0  0  0  0
    2.0661   -7.7232   -6.5910 C   0  0  0  0  0  0  0  0  0  0  0  0
    1.1121   -8.4198   -5.8904 C   0  0  0  0  0  0  0  0  0  0  0  0
    0.8108   -7.8831   -4.6321 C   0  0  0  0  0  0  0  0  0  0  0  0
   -0.1317   -8.3488   -3.6217 C   0  0  0  0  0  0  0  0  0  0  0  0
   -0.8549   -9.5076   -3.6688 C   0  0  0  0  0  0  0  0  0  0  0  0
   -1.7301   -9.9552   -2.6550 C   0  0  0  0  0  0  0  0  0  0  0  0
   -2.4494  -10.3899   -1.8732 N   0  0  0  0  0  0  0  0  0  0  0  0
   -0.8040  -10.4426   -4.7257 C   0  0  0  0  0  0  0  0  0  0  0  0
   -0.8114  -11.2441   -5.5471 N   0  0  0  0  0  0  0  0  0  0  0  0
    2.8270   -7.6958   -7.8935 C   0  0  0  0  0  0  0  0  0  0  0  0
    2.0625   -7.1698   -9.1269 C   0  0  0  0  0  0  0  0  0  0  0  0
    3.1577   -6.8063  -10.1036 C   0  0  0  0  0  0  0  0  0  0  0  0
    3.7612   -5.7166   -9.6463 C   0  0  0  0  0  0  0  0  0  0  0  0
    3.0848   -5.3259   -8.3522 C   0  0  0  0  0  0  0  0  0  0  0  0
    1.6485   -5.7678   -8.6612 C   0  0  0  0  0  0  0  0  0  0  0  0
    3.5393   -6.4135   -7.3551 C   0  0  0  0  0  0  0  0  0  0  0  0
    1.2830    6.1238    4.1046 H   0  0  0  0  0  0  0  0  0  0  0  0
    6.6403    3.1483    5.3897 H   0  0  0  0  0  0  0  0  0  0  0  0
    6.0981    8.1339    6.1027 H   0  0  0  0  0  0  0  0  0  0  0  0
    9.1123    7.0561    7.3623 H   0  0  0  0  0  0  0  0  0  0  0  0
    9.9946    8.3088    5.4000 H   0  0  0  0  0  0  0  0  0  0  0  0
    8.5506    7.5864    3.3433 H   0  0  0  0  0  0  0  0  0  0  0  0
    8.8708    4.9751    2.9779 H   0  0  0  0  0  0  0  0  0  0  0  0
   10.5145    4.0880    4.8087 H   0  0  0  0  0  0  0  0  0  0  0  0
   11.6504    6.4574    4.4812 H   0  0  0  0  0  0  0  0  0  0  0  0
   11.4282    6.1853    6.2276 H   0  0  0  0  0  0  0  0  0  0  0  0
    9.4273    4.5173    7.0080 H   0  0  0  0  0  0  0  0  0  0  0  0
   -8.0989    6.3268   -0.1441 H   0  0  0  0  0  0  0  0  0  0  0  0
   -7.2391    5.3289   -1.3359 H   0  0  0  0  0  0  0  0  0  0  0  0
   -9.3365    4.3200    0.6630 H   0  0  0  0  0  0  0  0  0  0  0  0
   -8.5254    3.3144   -0.5404 H   0  0  0  0  0  0  0  0  0  0  0  0
   -9.6176    4.5967   -1.0621 H   0  0  0  0  0  0  0  0  0  0  0  0
  -10.1147   -1.0757   -0.9801 H   0  0  0  0  0  0  0  0  0  0  0  0
  -10.3719   -1.6117   -2.6539 H   0  0  0  0  0  0  0  0  0  0  0  0
  -10.5680    0.8558   -2.5071 H   0  0  0  0  0  0  0  0  0  0  0  0
   -9.1732    0.4030   -3.4979 H   0  0  0  0  0  0  0  0  0  0  0  0
   -8.9382    0.9774   -1.8449 H   0  0  0  0  0  0  0  0  0  0  0  0
   -1.0471   -7.1838    1.2115 H   0  0  0  0  0  0  0  0  0  0  0  0
   -1.1983   -3.3775   -4.1445 H   0  0  0  0  0  0  0  0  0  0  0  0
   -1.8822   -0.1614   -1.2233 H   0  0  0  0  0  0  0  0  0  0  0  0
   -1.3550    0.8357   -2.6073 H   0  0  0  0  0  0  0  0  0  0  0  0
    0.5262   -0.5954   -0.6625 H   0  0  0  0  0  0  0  0  0  0  0  0
    0.0895    1.1106   -0.5441 H   0  0  0  0  0  0  0  0  0  0  0  0
    1.0111    0.5235   -1.9458 H   0  0  0  0  0  0  0  0  0  0  0  0
   -1.7093   -8.0567   -1.2949 H   0  0  0  0  0  0  0  0  0  0  0  0
    2.9036   -5.1547   -4.4628 H   0  0  0  0  0  0  0  0  0  0  0  0
    0.6340   -9.3062   -6.2728 H   0  0  0  0  0  0  0  0  0  0  0  0
    3.4298   -8.5757   -8.1091 H   0  0  0  0  0  0  0  0  0  0  0  0
    1.2800   -7.8290   -9.4921 H   0  0  0  0  0  0  0  0  0  0  0  0
    3.4083   -7.3911  -10.9690 H   0  0  0  0  0  0  0  0  0  0  0  0
    4.6165   -5.2097  -10.0530 H   0  0  0  0  0  0  0  0  0  0  0  0
    3.2332   -4.3049   -8.0109 H   0  0  0  0  0  0  0  0  0  0  0  0
    0.9869   -5.7640   -7.7969 H   0  0  0  0  0  0  0  0  0  0  0  0
    1.2024   -5.1832   -9.4640 H   0  0  0  0  0  0  0  0  0  0  0  0
    4.6180   -6.4363   -7.2129 H   0  0  0  0  0  0  0  0  0  0  0  0
  1  2  2  0  0  0  0
  2  3  1  0  0  0  0
  3  4  2  0  0  0  0
  3  5  1  0  0  0  0
  5  6  2  0  0  0  0
  6  7  1  0  0  0  0
  7  8  2  0  0  0  0
  8  9  1  0  0  0  0
  9 10  2  0  0  0  0
 10 11  1  0  0  0  0
 11 12  2  0  0  0  0
 12 13  1  0  0  0  0
 13 14  3  0  0  0  0
 12 15  1  0  0  0  0
 15 16  3  0  0  0  0
  8 17  1  0  0  0  0
 17 18  1  0  0  0  0
 18 19  1  0  0  0  0
 19 20  2  0  0  0  0
 20 21  1  0  0  0  0
 21 22  1  0  0  0  0
 21 23  1  0  0  0  0
  1 24  1  0  0  0  0
 24 25  2  0  0  0  0
 25 26  1  0  0  0  0
 26 27  1  0  0  0  0
 27 28  2  0  0  0  0
 28 29  2  0  0  0  0
 26 30  2  0  0  0  0
 30 31  1  0  0  0  0
 31 32  2  0  0  0  0
 32 33  1  0  0  0  0
 33 34  1  0  0  0  0
 34 35  2  0  0  0  0
 30 36  1  0  0  0  0
 36 37  1  0  0  0  0
 37 38  2  0  0  0  0
 38 39  1  0  0  0  0
 39 40  1  0  0  0  0
 40 41  2  0  0  0  0
 41 42  1  0  0  0  0
 42 43  2  0  0  0  0
 43 44  1  0  0  0  0
 44 45  1  0  0  0  0
 45 46  1  0  0  0  0
 43 47  1  0  0  0  0
 47 48  2  0  0  0  0
 48 49  1  0  0  0  0
 47 50  1  0  0  0  0
 42 51  1  0  0  0  0
 41 52  1  0  0  0  0
 39 53  2  0  0  0  0
 53 54  1  0  0  0  0
 54 55  2  0  0  0  0
 55 56  1  0  0  0  0
 55 57  1  0  0  0  0
 57 58  1  0  0  0  0
 57 59  2  0  0  0  0
 59 60  1  0  0  0  0
 60 61  1  0  0  0  0
 61 62  1  0  0  0  0
 59 63  1  0  0  0  0
 63 64  1  0  0  0  0
 63 65  2  0  0  0  0
 65 66  1  0  0  0  0
 53 67  1  0  0  0  0
 67 68  2  0  0  0  0
 68 69  1  0  0  0  0
 69 70  2  0  0  0  0
 70 71  1  0  0  0  0
 71 72  1  0  0  0  0
 70 73  1  0  0  0  0
 69 74  1  0  0  0  0
 74 75  2  0  0  0  0
 75 76  1  0  0  0  0
 75 77  1  0  0  0  0
 77 78  2  0  0  0  0
 78 79  1  0  0  0  0
 79 80  2  0  0  0  0
 80 81  1  0  0  0  0
 81 82  2  0  0  0  0
 82 83  1  0  0  0  0
 83 84  1  0  0  0  0
 84 85  1  0  0  0  0
 82 86  1  0  0  0  0
 86 87  2  0  0  0  0
 78 88  1  0  0  0  0
 88 89  2  0  0  0  0
 89 90  1  0  0  0  0
 90 91  2  0  0  0  0
 90 92  1  0  0  0  0
 92 93  2  0  0  0  0
 93 94  1  0  0  0  0
 94 95  2  0  0  0  0
 95 96  1  0  0  0  0
 96 97  2  0  0  0  0
 97 98  1  0  0  0  0
 98 99  2  0  0  0  0
 99100  1  0  0  0  0
100101  3  0  0  0  0
 99102  1  0  0  0  0
102103  3  0  0  0  0
 95104  1  0  0  0  0
104105  1  0  0  0  0
105106  1  0  0  0  0
106107  2  0  0  0  0
107108  1  0  0  0  0
108109  1  0  0  0  0
108110  1  0  0  0  0
 11  2  1  0  0  0  0
 23 17  1  0  0  0  0
 35 24  1  0  0  0  0
 71 36  2  0  0  0  0
 87 74  1  0  0  0  0
 98 89  1  0  0  0  0
110104  1  0  0  0  0
 10  5  1  0  0  0  0
 22 18  1  0  0  0  0
 29 25  1  0  0  0  0
 35 31  1  0  0  0  0
 68 37  1  0  0  0  0
 87 79  1  0  0  0  0
 97 92  1  0  0  0  0
109105  1  0  0  0  0
 23  7  1  0  0  0  0
 48 40  1  0  0  0  0
 65 54  1  0  0  0  0
110 94  1  0  0  0  0
  1111  1  0  0  0  0
  6112  1  0  0  0  0
  9113  1  0  0  0  0
 17114  1  0  0  0  0
 18115  1  0  0  0  0
 19116  1  0  0  0  0
 20117  1  0  0  0  0
 21118  1  0  0  0  0
 22119  1  0  0  0  0
 22120  1  0  0  0  0
 23121  1  0  0  0  0
 45122  1  0  0  0  0
 45123  1  0  0  0  0
 46124  1  0  0  0  0
 46125  1  0  0  0  0
 46126  1  0  0  0  0
 61127  1  0  0  0  0
 61128  1  0  0  0  0
 62129  1  0  0  0  0
 62130  1  0  0  0  0
 62131  1  0  0  0  0
 77132  1  0  0  0  0
 81133  1  0  0  0  0
 84134  1  0  0  0  0
 84135  1  0  0  0  0
 85136  1  0  0  0  0
 85137  1  0  0  0  0
 85138  1  0  0  0  0
 88139  1  0  0  0  0
 93140  1  0  0  0  0
 96141  1  0  0  0  0
104142  1  0  0  0  0
105143  1  0  0  0  0
106144  1  0  0  0  0
107145  1  0  0  0  0
108146  1  0  0  0  0
109147  1  0  0  0  0
109148  1  0  0  0  0
110149  1  0  0  0  0
M  END
