
  xtb     02052201143D
 energy: -212.768110130639 gnorm: 0.000452631375 xtb: 6.4.1 (unknown)
110127  0     0  0            999 V2000
   -3.7611   -2.9747    6.0503 C   0  0  0  0  0  0  0  0  0  0  0  0
   -3.7917   -4.0627    5.2440 C   0  0  0  0  0  0  0  0  0  0  0  0
   -4.7014   -5.2089    5.5263 C   0  0  0  0  0  0  0  0  0  0  0  0
   -5.6713   -5.2073    6.2480 O   0  0  0  0  0  0  0  0  0  0  0  0
   -4.1153   -6.3460    4.7908 C   0  0  0  0  0  0  0  0  0  0  0  0
   -4.4953   -7.6852    4.8693 C   0  0  0  0  0  0  0  0  0  0  0  0
   -3.7328   -8.5298    4.0995 C   0  0  0  0  0  0  0  0  0  0  0  0
   -2.6618   -8.0836    3.3120 C   0  0  0  0  0  0  0  0  0  0  0  0
   -2.2781   -6.7671    3.2190 C   0  0  0  0  0  0  0  0  0  0  0  0
   -3.0478   -5.8897    3.9876 C   0  0  0  0  0  0  0  0  0  0  0  0
   -2.9456   -4.4411    4.1249 C   0  0  0  0  0  0  0  0  0  0  0  0
   -2.3719   -3.5901    3.2202 C   0  0  0  0  0  0  0  0  0  0  0  0
   -2.4981   -2.1863    3.2810 C   0  0  0  0  0  0  0  0  0  0  0  0
   -2.6307   -1.0456    3.2585 N   0  0  0  0  0  0  0  0  0  0  0  0
   -1.6638   -4.0097    2.0746 C   0  0  0  0  0  0  0  0  0  0  0  0
   -1.0982   -4.3100    1.1220 N   0  0  0  0  0  0  0  0  0  0  0  0
   -2.3388   -9.4737    2.8228 C   0  0  0  0  0  0  0  0  0  0  0  0
   -2.7929   -9.8238    1.3899 C   0  0  0  0  0  0  0  0  0  0  0  0
   -2.7836  -11.3353    1.3669 C   0  0  0  0  0  0  0  0  0  0  0  0
   -3.8002  -11.7564    2.1086 C   0  0  0  0  0  0  0  0  0  0  0  0
   -4.5134  -10.5365    2.6458 C   0  0  0  0  0  0  0  0  0  0  0  0
   -4.3037   -9.5703    1.4728 C   0  0  0  0  0  0  0  0  0  0  0  0
   -3.5352   -9.9702    3.6968 C   0  0  0  0  0  0  0  0  0  0  0  0
   -2.6869   -2.0350    6.1164 C   0  0  0  0  0  0  0  0  0  0  0  0
   -1.3474   -2.3995    5.8887 C   0  0  0  0  0  0  0  0  0  0  0  0
   -0.3191   -1.4052    5.7081 C   0  0  0  0  0  0  0  0  0  0  0  0
    0.8826   -1.9519    5.5361 N   0  0  0  0  0  0  0  0  0  0  0  0
    0.7224   -3.5396    5.4944 S   0  0  0  0  0  4  0  0  0  0  0  0
   -0.8518   -3.6360    5.7718 N   0  0  0  0  0  0  0  0  0  0  0  0
   -0.6045   -0.0268    5.6008 C   0  0  0  0  0  0  0  0  0  0  0  0
   -1.8844    0.3464    6.0544 C   0  0  0  0  0  0  0  0  0  0  0  0
   -2.3852    1.5782    6.1540 N   0  0  0  0  0  0  0  0  0  0  0  0
   -3.9305    1.4904    6.5811 S   0  0  0  0  0  0  0  0  0  0  0  0
   -4.0690   -0.1010    6.6457 N   0  0  0  0  0  0  0  0  0  0  0  0
   -2.8981   -0.6602    6.3397 C   0  0  0  0  0  0  0  0  0  0  0  0
    0.2492    0.7134    4.7292 C   0  0  0  0  0  0  0  0  0  0  0  0
    0.7832    0.1325    3.5732 C   0  0  0  0  0  0  0  0  0  0  0  0
    1.4332    1.1424    2.8301 C   0  0  0  0  0  0  0  0  0  0  0  0
    1.3319    2.3818    3.5795 C   0  0  0  0  0  0  0  0  0  0  0  0
    1.7420    3.5034    3.3876 O   0  0  0  0  0  0  0  0  0  0  0  0
    0.5761    2.0300    4.7282 N   0  0  0  0  0  0  0  0  0  0  0  0
    0.3150    2.9810    5.7750 C   0  0  0  0  0  0  0  0  0  0  0  0
    1.7431    0.6195    1.5720 C   0  0  0  0  0  0  0  0  0  0  0  0
    1.3183   -0.6790    1.5424 N   0  0  0  0  0  0  0  0  0  0  0  0
    1.5327   -1.6458    0.4988 C   0  0  0  0  0  0  0  0  0  0  0  0
    0.7164   -1.0562    2.7555 C   0  0  0  0  0  0  0  0  0  0  0  0
    0.2792   -2.1763    2.9605 O   0  0  0  0  0  0  0  0  0  0  0  0
    2.3615    1.3753    0.5267 C   0  0  0  0  0  0  0  0  0  0  0  0
    3.3218    2.3397    0.8977 C   0  0  0  0  0  0  0  0  0  0  0  0
    3.8347    3.3334   -0.0175 C   0  0  0  0  0  0  0  0  0  0  0  0
    4.7036    4.1507    0.5829 N   0  0  0  0  0  0  0  0  0  0  0  0
    4.8683    3.6985    2.1113 S   0  0  0  0  0  4  0  0  0  0  0  0
    3.8813    2.4458    2.1046 N   0  0  0  0  0  0  0  0  0  0  0  0
    3.4054    3.4206   -1.3576 C   0  0  0  0  0  0  0  0  0  0  0  0
    2.5340    2.3859   -1.7582 C   0  0  0  0  0  0  0  0  0  0  0  0
    2.0583    2.2061   -2.9930 N   0  0  0  0  0  0  0  0  0  0  0  0
    1.0448    0.9640   -2.9975 S   0  0  0  0  0  0  0  0  0  0  0  0
    1.1609    0.5633   -1.4523 N   0  0  0  0  0  0  0  0  0  0  0  0
    2.0200    1.3824   -0.8393 C   0  0  0  0  0  0  0  0  0  0  0  0
    3.8928    4.4715   -2.1830 C   0  0  0  0  0  0  0  0  0  0  0  0
    3.3902    5.0087   -3.3251 C   0  0  0  0  0  0  0  0  0  0  0  0
    4.2876    5.8263   -4.1947 C   0  0  0  0  0  0  0  0  0  0  0  0
    5.3766    6.2622   -3.9004 O   0  0  0  0  0  0  0  0  0  0  0  0
    3.5869    5.9341   -5.4875 C   0  0  0  0  0  0  0  0  0  0  0  0
    4.0673    6.5092   -6.6622 C   0  0  0  0  0  0  0  0  0  0  0  0
    3.1892    6.4453   -7.7172 C   0  0  0  0  0  0  0  0  0  0  0  0
    1.9311    5.8345   -7.6210 C   0  0  0  0  0  0  0  0  0  0  0  0
    1.4422    5.2662   -6.4690 C   0  0  0  0  0  0  0  0  0  0  0  0
    2.3109    5.3416   -5.3777 C   0  0  0  0  0  0  0  0  0  0  0  0
    2.1155    4.9053   -3.9976 C   0  0  0  0  0  0  0  0  0  0  0  0
    0.9014    4.6744   -3.4067 C   0  0  0  0  0  0  0  0  0  0  0  0
    0.7188    4.5089   -2.0193 C   0  0  0  0  0  0  0  0  0  0  0  0
    0.5067    4.3834   -0.8981 N   0  0  0  0  0  0  0  0  0  0  0  0
   -0.3250    4.6360   -4.0994 C   0  0  0  0  0  0  0  0  0  0  0  0
   -1.3528    4.5658   -4.6069 N   0  0  0  0  0  0  0  0  0  0  0  0
    1.5888    6.1307   -9.0594 C   0  0  0  0  0  0  0  0  0  0  0  0
    0.6055    7.2944   -9.3368 C   0  0  0  0  0  0  0  0  0  0  0  0
    0.7300    8.2454   -8.1721 C   0  0  0  0  0  0  0  0  0  0  0  0
    1.9154    8.8343   -8.2560 C   0  0  0  0  0  0  0  0  0  0  0  0
    2.6136    8.2928   -9.4791 C   0  0  0  0  0  0  0  0  0  0  0  0
    1.4052    8.0630  -10.4008 C   0  0  0  0  0  0  0  0  0  0  0  0
    2.9849    6.8221   -9.1630 C   0  0  0  0  0  0  0  0  0  0  0  0
   -4.5980   -2.8203    6.7212 H   0  0  0  0  0  0  0  0  0  0  0  0
   -5.3180   -7.9926    5.4956 H   0  0  0  0  0  0  0  0  0  0  0  0
   -1.4456   -6.4295    2.6237 H   0  0  0  0  0  0  0  0  0  0  0  0
   -1.3393   -9.8374    3.0537 H   0  0  0  0  0  0  0  0  0  0  0  0
   -2.2421   -9.3177    0.6019 H   0  0  0  0  0  0  0  0  0  0  0  0
   -2.0309  -11.9236    0.8757 H   0  0  0  0  0  0  0  0  0  0  0  0
   -4.0660  -12.7663    2.3606 H   0  0  0  0  0  0  0  0  0  0  0  0
   -5.5301  -10.6812    3.0010 H   0  0  0  0  0  0  0  0  0  0  0  0
   -4.5685   -8.5382    1.6944 H   0  0  0  0  0  0  0  0  0  0  0  0
   -4.8252   -9.8953    0.5742 H   0  0  0  0  0  0  0  0  0  0  0  0
   -3.3338  -10.6665    4.5089 H   0  0  0  0  0  0  0  0  0  0  0  0
    0.8766    2.7224    6.6756 H   0  0  0  0  0  0  0  0  0  0  0  0
   -0.7493    3.0033    6.0077 H   0  0  0  0  0  0  0  0  0  0  0  0
    0.6437    3.9538    5.4106 H   0  0  0  0  0  0  0  0  0  0  0  0
    2.5999   -1.8393    0.3705 H   0  0  0  0  0  0  0  0  0  0  0  0
    1.0279   -2.5628    0.8036 H   0  0  0  0  0  0  0  0  0  0  0  0
    1.1137   -1.2895   -0.4412 H   0  0  0  0  0  0  0  0  0  0  0  0
    4.8430    4.8868   -1.8590 H   0  0  0  0  0  0  0  0  0  0  0  0
    5.0467    6.9600   -6.6984 H   0  0  0  0  0  0  0  0  0  0  0  0
    0.4759    4.7934   -6.4075 H   0  0  0  0  0  0  0  0  0  0  0  0
    1.4004    5.2663   -9.6930 H   0  0  0  0  0  0  0  0  0  0  0  0
   -0.4025    6.9818   -9.5954 H   0  0  0  0  0  0  0  0  0  0  0  0
   -0.0097    8.3452   -7.3996 H   0  0  0  0  0  0  0  0  0  0  0  0
    2.3644    9.5256   -7.5671 H   0  0  0  0  0  0  0  0  0  0  0  0
    3.4333    8.8911   -9.8681 H   0  0  0  0  0  0  0  0  0  0  0  0
    0.9221    8.9915  -10.7011 H   0  0  0  0  0  0  0  0  0  0  0  0
    1.6387    7.4677  -11.2825 H   0  0  0  0  0  0  0  0  0  0  0  0
    3.7055    6.4163   -9.8705 H   0  0  0  0  0  0  0  0  0  0  0  0
  1  2  2  0  0  0  0
  2  3  1  0  0  0  0
  3  4  2  0  0  0  0
  3  5  1  0  0  0  0
  5  6  2  0  0  0  0
  6  7  1  0  0  0  0
  7  8  2  0  0  0  0
  8  9  1  0  0  0  0
  9 10  2  0  0  0  0
 10 11  1  0  0  0  0
 11 12  2  0  0  0  0
 12 13  1  0  0  0  0
 13 14  3  0  0  0  0
 12 15  1  0  0  0  0
 15 16  3  0  0  0  0
  8 17  1  0  0  0  0
 17 18  1  0  0  0  0
 18 19  1  0  0  0  0
 19 20  2  0  0  0  0
 20 21  1  0  0  0  0
 21 22  1  0  0  0  0
 21 23  1  0  0  0  0
  1 24  1  0  0  0  0
 24 25  2  0  0  0  0
 25 26  1  0  0  0  0
 26 27  1  0  0  0  0
 27 28  2  0  0  0  0
 28 29  2  0  0  0  0
 26 30  2  0  0  0  0
 30 31  1  0  0  0  0
 31 32  2  0  0  0  0
 32 33  1  0  0  0  0
 33 34  1  0  0  0  0
 34 35  2  0  0  0  0
 30 36  1  0  0  0  0
 36 37  2  0  0  0  0
 37 38  1  0  0  0  0
 38 39  1  0  0  0  0
 39 40  2  0  0  0  0
 39 41  1  0  0  0  0
 41 42  1  0  0  0  0
 38 43  2  0  0  0  0
 43 44  1  0  0  0  0
 44 45  1  0  0  0  0
 44 46  1  0  0  0  0
 46 47  2  0  0  0  0
 43 48  1  0  0  0  0
 48 49  2  0  0  0  0
 49 50  1  0  0  0  0
 50 51  1  0  0  0  0
 51 52  2  0  0  0  0
 52 53  2  0  0  0  0
 50 54  2  0  0  0  0
 54 55  1  0  0  0  0
 55 56  2  0  0  0  0
 56 57  1  0  0  0  0
 57 58  1  0  0  0  0
 58 59  2  0  0  0  0
 54 60  1  0  0  0  0
 60 61  2  0  0  0  0
 61 62  1  0  0  0  0
 62 63  2  0  0  0  0
 62 64  1  0  0  0  0
 64 65  2  0  0  0  0
 65 66  1  0  0  0  0
 66 67  2  0  0  0  0
 67 68  1  0  0  0  0
 68 69  2  0  0  0  0
 69 70  1  0  0  0  0
 70 71  2  0  0  0  0
 71 72  1  0  0  0  0
 72 73  3  0  0  0  0
 71 74  1  0  0  0  0
 74 75  3  0  0  0  0
 67 76  1  0  0  0  0
 76 77  1  0  0  0  0
 77 78  1  0  0  0  0
 78 79  2  0  0  0  0
 79 80  1  0  0  0  0
 80 81  1  0  0  0  0
 80 82  1  0  0  0  0
 11  2  1  0  0  0  0
 23 17  1  0  0  0  0
 35 24  1  0  0  0  0
 41 36  1  0  0  0  0
 59 48  1  0  0  0  0
 70 61  1  0  0  0  0
 82 76  1  0  0  0  0
 10  5  1  0  0  0  0
 22 18  1  0  0  0  0
 29 25  1  0  0  0  0
 35 31  1  0  0  0  0
 46 37  1  0  0  0  0
 53 49  1  0  0  0  0
 59 55  1  0  0  0  0
 69 64  1  0  0  0  0
 81 77  1  0  0  0  0
 23  7  1  0  0  0  0
 82 66  1  0  0  0  0
  1 83  1  0  0  0  0
  6 84  1  0  0  0  0
  9 85  1  0  0  0  0
 17 86  1  0  0  0  0
 18 87  1  0  0  0  0
 19 88  1  0  0  0  0
 20 89  1  0  0  0  0
 21 90  1  0  0  0  0
 22 91  1  0  0  0  0
 22 92  1  0  0  0  0
 23 93  1  0  0  0  0
 42 94  1  0  0  0  0
 42 95  1  0  0  0  0
 42 96  1  0  0  0  0
 45 97  1  0  0  0  0
 45 98  1  0  0  0  0
 45 99  1  0  0  0  0
 60100  1  0  0  0  0
 65101  1  0  0  0  0
 68102  1  0  0  0  0
 76103  1  0  0  0  0
 77104  1  0  0  0  0
 78105  1  0  0  0  0
 79106  1  0  0  0  0
 80107  1  0  0  0  0
 81108  1  0  0  0  0
 81109  1  0  0  0  0
 82110  1  0  0  0  0
M  END
