218

C          4.86180        6.78960       -4.52210
C          5.51640        7.81650       -3.93610
C          5.29310        8.24470       -2.51970
O          4.56780        7.72920       -1.70010
C          6.05420        9.49360       -2.35950
C          6.14000       10.26840       -1.20430
C          6.91510       11.39380       -1.34110
C          7.55560       11.73020       -2.54300
C          7.47800       10.97760       -3.68940
C          6.69500        9.82350       -3.57200
C          6.39670        8.79460       -4.56000
C          6.90990        8.72620       -5.82700
C          6.67460        7.67940       -6.74230
N          6.55680        6.86100       -7.53920
C          7.77720        9.68380       -6.39560
N          8.48200       10.41910       -6.92480
C          8.15030       12.98960       -1.96530
C          7.48700       14.33820       -2.33990
C          6.04340       14.03380       -2.65550
C          5.43880       13.71480       -1.51880
C          6.46280       13.79790       -0.41370
C          7.33440       14.95010       -0.93820
C          7.43880       12.61410       -0.62720
C          4.09090        5.80720       -3.78350
C          4.59880        5.17630       -2.64330
F          5.87130        5.41280       -2.27320
C          3.87830        4.25070       -1.92690
C          2.58570        3.89640       -2.32430
C          2.07940        4.52970       -3.46440
F          0.84750        4.20460       -3.90460
C          2.80930        5.44000       -4.19430
C          1.85180        2.87820       -1.60440
C          2.36220        1.67870       -1.12860
N          3.63940        1.20010       -1.38540
C          4.36560        0.59910       -0.35370
C          4.20840        1.02330        0.96620
C          4.96210        0.46070        1.97090
C          5.87730       -0.54840        1.68420
S          6.80130       -1.20380        3.04400
C          8.10890       -2.18380        2.26000
C          6.02020       -0.99210        0.37690
C          5.27380       -0.41850       -0.63280
C          4.23600        1.49170       -2.62100
C          5.56790        1.88760       -2.70300
C          6.09730        2.33070       -3.89950
C          5.29760        2.39890       -5.03210
S          5.82380        3.08380       -6.56910
C          7.31770        4.01070       -6.12390
C          3.98990        1.91860       -4.97320
C          3.46770        1.46270       -3.78590
C          1.37200        0.94460       -0.43580
S          1.33550       -0.58570        0.37920
C         -0.37940       -0.38310        0.71770
C         -0.85590        0.84590        0.27900
N         -2.14380        1.30300        0.56320
C         -2.46890        1.48830        1.91570
C         -3.76730        1.27040        2.37520
C         -4.06580        1.42400        3.70980
C         -3.07950        1.80190        4.61960
S         -3.57630        1.96340        6.30610
C         -2.01950        2.26280        7.19150
C         -1.78970        2.03280        4.16430
C         -1.48740        1.86990        2.82590
C         -2.96170        1.73280       -0.47880
C         -3.91800        2.73200       -0.29960
C         -4.71200        3.12820       -1.35290
C         -4.56650        2.54260       -2.60570
S         -5.65100        3.08020       -3.90360
C         -4.61870        2.87730       -5.38450
C         -3.61580        1.54980       -2.79280
C         -2.81960        1.15360       -1.73930
C          0.13690        1.57770       -0.40030
S          0.14710        3.07790       -1.25090
C         -1.20070       -1.45530        1.15280
C         -0.84980       -2.65740        1.76070
N          0.37690       -2.94610        2.32740
C          0.75650       -4.30480        2.36970
C          0.72300       -5.06510        1.20490
C          0.99540       -6.41790        1.24360
C          1.30440       -7.02700        2.45140
S          1.60500       -8.76140        2.58550
C          0.49150       -9.42180        1.30890
C          1.39300       -6.25980        3.60850
C          1.11840       -4.91090        3.57100
C          1.10300       -2.01490        3.07390
C          2.47610       -2.19700        3.23830
C          3.22040       -1.33130        4.01140
C          2.60640       -0.24340        4.61670
S          3.47310        0.94660        5.59680
C          4.95610        0.04580        6.13240
C          1.24170       -0.04240        4.43740
C          0.49250       -0.91950        3.68530
C         -1.92930       -3.57550        1.73800
S         -2.08640       -5.23980        2.17780
C         -3.75810       -5.24870        1.61220
C         -4.11630       -4.01340        1.01260
N         -5.27950       -3.76410        0.33670
C         -5.93150       -4.73200       -0.44530
C         -5.21070       -5.70760       -1.12980
C         -5.86210       -6.66560       -1.87980
C         -7.24880       -6.65410       -1.97160
S         -8.18630       -7.83100       -2.89180
C         -6.97760       -9.12280       -3.30410
C         -7.96900       -5.65500       -1.32090
C         -7.32130       -4.70630       -0.56210
C         -5.77440       -2.44330        0.30960
C         -5.97150       -1.75150        1.50300
C         -6.49820       -0.47970        1.47990
C         -6.80790        0.13770        0.26800
S         -7.44790        1.77570        0.35890
C         -8.18760        2.04100       -1.27590
C         -6.58910       -0.54300       -0.92330
C         -6.08980       -1.83000       -0.89860
C         -3.08160       -3.07430        1.14510
S         -2.89510       -1.42380        0.65530
C         -4.66310       -6.28390        1.82870
C         -4.46390       -7.53780        2.36600
C         -3.17230       -8.14490        2.67590
O         -2.05990       -7.66050        2.51940
C         -3.45420       -9.50530        3.16250
C         -2.53030      -10.44180        3.61830
C         -3.09420      -11.62640        4.02840
C         -4.47380      -11.86140        3.98350
C         -5.39540      -10.94370        3.53480
C         -4.84460       -9.73030        3.11690
C         -5.49480       -8.51590        2.61840
C         -6.84930       -8.35910        2.44160
C         -7.49700       -7.16980        2.05550
N         -8.10990       -6.23810        1.77420
C         -7.80060       -9.38000        2.63710
N         -8.62970      -10.16610        2.75820
C         -4.33790      -13.24580        4.56690
C         -4.70410      -13.43660        6.05960
C         -4.48880      -12.10140        6.72800
C         -3.18230      -11.87690        6.77230
C         -2.49070      -13.05640        6.13470
C         -3.45120      -14.18540        6.54120
C         -2.79970      -12.98260        4.61880
H          4.86890        6.67410       -5.59870
H          5.63070        9.97040       -0.30130
H          7.97380       11.25250       -4.60530
H          9.23680       13.04700       -1.96730
H          8.02930       14.91620       -3.08320
H          5.63650       14.02720       -3.64970
H          4.42590       13.38800       -1.37340
H          6.07270       13.88460        0.59690
H          6.80870       15.90360       -0.95020
H          8.27860       15.05720       -0.40610
H          8.06040       12.42570        0.24590
H          4.31620        3.81510       -1.04350
H          2.37320        5.88330       -5.07580
H          3.51190        1.81500        1.19910
H          4.85990        0.82080        2.98160
H          8.77840       -2.47560        3.06340
H          8.64030       -1.57120        1.53780
H          7.68630       -3.06980        1.79460
H          6.70770       -1.78480        0.12860
H          5.39330       -0.75980       -1.65020
H          6.18620        1.87990       -1.81770
H          7.12740        2.64700       -3.92670
H          7.51430        4.66660       -6.96680
H          7.12500        4.60390       -5.23440
H          8.15360        3.33340       -5.97300
H          3.38800        1.92610       -5.86860
H          2.44740        1.11200       -3.74380
H         -4.53160        0.96900        1.67770
H         -5.06870        1.25030        4.06790
H         -1.59780        3.21980        6.89830
H         -1.32490        1.44910        7.00380
H         -2.28340        2.28630        8.24420
H         -1.01130        2.35510        4.83630
H         -0.47790        2.05160        2.48720
H         -4.02950        3.20790        0.66190
H         -5.44720        3.90550       -1.21310
H         -3.61890        3.24310       -5.17230
H         -4.59820        1.83610       -5.69380
H         -5.08300        3.47990       -6.15880
H         -3.49540        1.07370       -3.75320
H         -2.08840        0.37260       -1.88670
H          0.46760       -4.58980        0.26880
H          0.95660       -6.99050        0.33080
H          0.93420       -9.31600        0.32250
H          0.35670      -10.47490        1.53590
H         -0.45360       -8.89140        1.38110
H          1.64840       -6.73950        4.54070
H          1.15190       -4.32330        4.47640
H          2.96250       -3.03130        2.75620
H          4.27670       -1.50950        4.12730
H          5.40610        0.65640        6.90900
H          4.66230       -0.91740        6.53760
H          5.65330       -0.07450        5.30790
H          0.77040        0.80350        4.91200
H         -0.57140       -0.76200        3.58800
H         -4.13240       -5.72060       -1.06940
H         -5.27550       -7.40820       -2.39640
H         -6.49350       -9.47460       -2.39790
H         -7.55240       -9.92750       -3.75170
H         -6.25250       -8.74810       -4.02100
H         -9.04450       -5.64680       -1.39790
H         -7.88850       -3.95350       -0.03850
H         -5.73340       -2.22760        2.44230
H         -6.69170        0.04740        2.40120
H         -8.76210        2.95810       -1.19160
H         -7.41610        2.16390       -2.03030
H         -8.84690        1.21140       -1.51210
H         -6.79980       -0.07770       -1.87240
H         -5.93360       -2.36570       -1.82320
H         -5.67980       -6.04520        1.54530
H         -1.47580      -10.21560        3.64680
H         -6.45410      -11.14100        3.51310
H         -4.69470      -14.06420        3.94450
H         -5.66750      -13.90930        6.23090
H         -5.28620      -11.45140        7.03760
H         -2.66980      -11.00130        7.12570
H         -1.43820      -13.18300        6.37520
H         -3.45630      -14.36810        7.61480
H         -3.27270      -15.11950        6.01000
H         -2.15150      -13.63080        4.03170
