235

C         -0.12730       -2.94420       11.09300
C          0.77140       -2.02660       11.57840
C          1.46980       -1.00860       10.78690
O          1.40580       -0.83110        9.58230
C          2.27610       -0.22460       11.73940
C          3.09370        0.86420       11.44890
C          3.71630        1.40470       12.54860
C          3.54280        0.89440       13.84130
C          2.74270       -0.18310       14.14010
C          2.09430       -0.74420       13.03670
C          1.16760       -1.87410       12.96210
C          0.76530       -2.63650       14.03100
C          1.18790       -2.43690       15.36130
N          1.47920       -2.34030       16.46830
C         -0.12030       -3.73210       13.98000
N         -0.83510       -4.63060       14.03820
C          4.45250        1.92710       14.45800
C          3.79440        3.11030       15.20990
C          2.42660        3.29780       14.60200
C          2.59040        3.78200       13.37820
C          4.07220        3.93060       13.13650
C          4.54400        4.28240       14.55640
C          4.64560        2.49660       13.01730
C         -0.59950       -3.15900        9.79310
S         -0.12730       -2.30670        8.33670
C         -1.23180       -3.24520        7.41780
C         -1.54170       -3.18390        6.04150
C         -2.55000       -4.01020        5.55330
Ge        -3.19690       -5.15750        7.01990
C         -2.68280       -7.07620        6.75340
C         -3.48130       -7.74250        5.64480
C         -5.12930       -4.86770        7.47710
C         -5.54540       -5.61490        8.73470
C         -1.94390       -4.18030        8.18540
C         -1.57380       -4.12680        9.50950
C         -2.78420       -3.82100        4.19690
C         -1.95320       -2.87310        3.62210
S         -0.86570       -2.18800        4.80740
C         -1.90790       -2.38940        2.28700
C         -2.67960       -2.72970        1.17970
N         -3.70340       -3.67640        1.11340
C         -4.90460       -3.21850        0.54930
C         -5.37340       -1.95660        0.90860
C         -6.53350       -1.44950        0.36060
C         -7.26180       -2.21190       -0.54140
S         -8.76230       -1.65260       -1.28470
C         -9.30770       -0.31490       -0.18100
C         -6.79820       -3.47330       -0.90680
C         -5.62510       -3.96700       -0.38050
C         -3.47140       -5.02120        1.38830
C         -4.52520       -5.86710        1.73560
C         -4.29860       -7.19600        2.03390
C         -3.00810       -7.70780        2.00420
S         -2.59510       -9.38230        2.38730
C         -4.20780      -10.19760        2.56320
C         -1.94990       -6.86430        1.67340
C         -2.17550       -5.54190        1.36580
C         -2.35550       -1.92480        0.06580
S         -2.92780       -1.85300       -1.56600
C         -1.80920       -0.55290       -1.92070
C         -1.03420       -0.20490       -0.82050
N         -0.02800        0.78190       -0.82370
C          1.26350        0.41430       -1.23560
C          1.44580       -0.53630       -2.23680
C          2.70050       -0.81350       -2.74140
C          3.81050       -0.14890       -2.24440
S          5.43770       -0.35400       -2.90240
C          5.11700       -1.05680       -4.54650
C          3.65260        0.71310       -1.16230
C          2.40020        0.98130       -0.65530
C         -0.33110        2.05340       -0.33870
C         -1.44330        2.26200        0.47710
C         -1.72960        3.51360        0.98540
C         -0.91070        4.59120        0.68800
S         -1.14960        6.20690        1.37510
C         -2.95410        6.29240        1.56080
C          0.17130        4.40260       -0.16360
C          0.44420        3.16140       -0.69110
C         -1.34690       -1.00090        0.29600
S         -0.75340       -1.11050        1.91440
C         -1.61430       -0.05160       -3.24110
C         -1.69980       -0.73870       -4.44810
N         -2.23620       -2.01110       -4.63360
C         -1.46670       -2.89090       -5.41870
C         -2.01880       -3.61040       -6.47370
C         -1.23410       -4.44270       -7.24770
C          0.12450       -4.56140       -6.98820
S          1.22990       -5.57890       -7.91370
C          0.17710       -6.32960       -9.18710
C          0.68310       -3.83890       -5.93580
C         -0.10170       -3.01810       -5.15900
C         -3.59830       -2.25830       -4.43290
C         -4.53480       -1.22850       -4.43050
C         -5.88600       -1.50300       -4.32730
C         -6.32570       -2.81490       -4.23770
S         -8.02680       -3.29040       -4.23220
C         -8.88520       -1.80920       -4.82600
C         -5.38720       -3.84330       -4.16310
C         -4.04310       -3.57060       -4.25070
C         -1.04690       -0.02060       -5.47640
S         -0.61260       -0.40450       -7.10270
C          0.41360        1.04450       -7.18200
C          0.22060        1.88310       -6.06460
N          0.64360        3.16290       -5.92320
C          0.01600        4.00880       -4.96820
C          0.76420        4.80620       -4.11490
C          0.14230        5.69220       -3.25520
C         -1.24270        5.78030       -3.22530
S         -2.13930        6.87050       -2.17470
C         -0.88980        8.06400       -1.62140
C         -1.99700        4.97020       -4.07150
C         -1.37540        4.10560       -4.94290
C          1.30850        3.85230       -6.97550
C          2.58980        4.36460       -6.80080
C          3.23350        4.98380       -7.85150
C          2.60660        5.11450       -9.08940
S          3.55660        5.84520      -10.37740
C          2.50380        5.69690      -11.84720
C          1.30110        4.66090       -9.24380
C          0.66370        4.03150       -8.19340
C         -0.56190        1.21940       -5.09010
S         -0.89070        1.53610       -3.42390
C          1.36140        1.10050       -8.20870
C          2.63970        1.58420       -8.03700
C          3.29680        1.65640       -6.72170
O          2.80950        1.44030       -5.62480
C          4.72240        1.91670       -7.00190
C          5.75080        2.02890       -6.07010
C          6.98580        2.25550       -6.62990
C          7.18580        2.36370       -8.01150
C          6.17580        2.26530       -8.94110
C          4.91340        2.03080       -8.39280
C          3.61830        1.86530       -9.04820
C          3.35320        2.06470      -10.38130
C          2.05650        2.04170      -10.92700
N          1.02860        2.09180      -11.44010
C          4.31460        2.39940      -11.35270
N          5.03730        2.67240      -12.20320
C          8.67540        2.55430       -7.86080
C          9.55870        1.32690       -8.16970
C         10.86950        1.64120       -7.48550
C         10.67640        1.53990       -6.17660
C          9.23140        1.15690       -5.95360
C          8.99630        0.28480       -7.19400
C          8.44990        2.43690       -6.31900
H         -0.57310       -3.61620       11.81640
H          3.20010        1.22230       10.43680
H          2.62280       -0.56190       15.14110
H          5.32890        1.54270       14.97630
H          3.83140        3.03320       16.29320
H          1.51160        3.01310       15.08770
H          1.83950        3.98250       12.63640
H          4.36240        4.60140       12.33190
H          4.18250        5.25330       14.89210
H          5.62480        4.22920       14.68030
H          5.64860        2.48490       12.59490
H         -2.82020       -7.60890        7.69410
H         -1.61970       -7.10410        6.51530
H         -3.14610       -8.76810        5.50000
H         -3.35080       -7.20390        4.70830
H         -4.54270       -7.75600        5.88750
H         -5.73500       -5.18740        6.62900
H         -5.28810       -3.79720        7.60550
H         -6.59340       -5.42780        8.96260
H         -4.94770       -5.29380        9.58490
H         -5.40960       -6.68730        8.60940
H         -1.98460       -4.75510       10.28170
H         -3.54290       -4.35110        3.65390
H         -4.81950       -1.36800        1.62570
H         -6.86010       -0.46330        0.64950
H         -8.68670        0.56670       -0.31280
H        -10.32840       -0.09000       -0.47420
H         -9.28550       -0.66120        0.84780
H         -7.36360       -4.05510       -1.61730
H         -5.25970       -4.93410       -0.69000
H         -5.53090       -5.47640        1.78450
H         -5.13870       -7.81610        2.30150
H         -3.98730      -11.24910        2.71810
H         -4.78540      -10.07230        1.65210
H         -4.73660       -9.80170        3.42550
H         -0.94750       -7.26320        1.65430
H         -1.34680       -4.90370        1.10010
H          0.59660       -1.06380       -2.64010
H          2.79370       -1.54070       -3.53200
H          4.86540       -2.11080       -4.46460
H          4.31720       -0.49500       -5.01970
H          6.03950       -0.94340       -5.10800
H          4.52440        1.17740       -0.72690
H          2.29710        1.64370        0.19040
H         -2.09080        1.43790        0.73390
H         -2.58650        3.63250        1.62980
H         -3.41890        5.93790        0.64590
H         -3.18990        7.34000        1.71820
H         -3.27500        5.71170        2.42080
H          0.80500        5.24110       -0.40620
H          1.25890        3.04830       -1.38830
H         -3.06960       -3.50920       -6.69980
H         -1.69590       -4.98040       -8.05970
H         -0.25150       -5.55620       -9.81780
H          0.83650       -6.96070       -9.77490
H         -0.59470       -6.93600       -8.72210
H          1.73980       -3.93420       -5.73770
H          0.34170       -2.46160       -4.34740
H         -4.20680       -0.20440       -4.53430
H         -6.58680       -0.68380       -4.33830
H         -8.41730       -1.46100       -5.74200
H         -9.90560       -2.12220       -5.02300
H         -8.88030       -1.04380       -4.05580
H         -5.73110       -4.86000       -4.05190
H         -3.32240       -4.37250       -4.19920
H          1.83940        4.73410       -4.11400
H          0.74950        6.30790       -2.61240
H         -0.22660        7.60420       -0.89520
H         -1.44380        8.86660       -1.14460
H         -0.34840        8.44600       -2.48150
H         -3.07320        5.04610       -4.05100
H         -1.96760        3.50880       -5.62130
H          3.09730        4.24940       -5.85670
H          4.23880        5.35780       -7.73140
H          2.22320        4.65970      -12.00440
H          1.62960        6.33350      -11.74570
H          3.11720        6.03890      -12.67490
H          0.77510        4.77950      -10.17630
H         -0.34250        3.66340       -8.32780
H          1.09650        0.62070       -9.14370
H          5.56190        1.94230       -5.01120
H          6.33920        2.35190      -10.00270
H          9.08020        3.48210       -8.26050
H          9.60800        1.05460       -9.22060
H         11.75830        1.94870       -8.00470
H         11.37150        1.74580       -5.38380
H          8.97980        0.73180       -4.98550
H          7.95190        0.03250       -7.36970
H          9.59260       -0.62600       -7.17590
H          8.70490        3.28610       -5.68810
