
  xtb     02152218003D
 energy: -376.731545594803 gnorm: 0.000553535151 xtb: 6.4.1 (unknown)
225245  0     0  0            999 V2000
    6.9801    0.9913    3.8695 C   0  0  0  0  0  0  0  0  0  0  0  0
    7.6598    2.1069    4.3030 C   0  0  0  0  0  0  0  0  0  0  0  0
    7.3359    3.5039    4.0089 C   0  0  0  0  0  0  0  0  0  0  0  0
    6.3475    3.9418    3.4395 O   0  0  0  0  0  0  0  0  0  0  0  0
    8.4536    4.3078    4.5374 C   0  0  0  0  0  0  0  0  0  0  0  0
    8.6032    5.6915    4.4745 C   0  0  0  0  0  0  0  0  0  0  0  0
    9.7492    6.1592    5.0720 C   0  0  0  0  0  0  0  0  0  0  0  0
   10.6805    5.3142    5.6880 C   0  0  0  0  0  0  0  0  0  0  0  0
   10.5478    3.9470    5.7534 C   0  0  0  0  0  0  0  0  0  0  0  0
    9.3901    3.4504    5.1485 C   0  0  0  0  0  0  0  0  0  0  0  0
    8.9016    2.0764    5.0389 C   0  0  0  0  0  0  0  0  0  0  0  0
    9.5235    0.9724    5.5716 C   0  0  0  0  0  0  0  0  0  0  0  0
    8.9964   -0.3318    5.6144 C   0  0  0  0  0  0  0  0  0  0  0  0
    8.6403   -1.4185    5.7421 N   0  0  0  0  0  0  0  0  0  0  0  0
   10.7862    0.9839    6.1968 C   0  0  0  0  0  0  0  0  0  0  0  0
   11.8166    0.8938    6.6971 N   0  0  0  0  0  0  0  0  0  0  0  0
   11.5820    6.4589    6.0788 C   0  0  0  0  0  0  0  0  0  0  0  0
   12.8504    6.6631    5.2240 C   0  0  0  0  0  0  0  0  0  0  0  0
   13.2583    8.0888    5.5176 C   0  0  0  0  0  0  0  0  0  0  0  0
   12.3769    8.8894    4.9321 C   0  0  0  0  0  0  0  0  0  0  0  0
   11.3583    8.0184    4.2328 C   0  0  0  0  0  0  0  0  0  0  0  0
   12.2541    6.8427    3.8219 C   0  0  0  0  0  0  0  0  0  0  0  0
   10.5439    7.4018    5.3898 C   0  0  0  0  0  0  0  0  0  0  0  0
    5.7958    0.8685    3.1452 C   0  0  0  0  0  0  0  0  0  0  0  0
    5.2469   -0.3815    2.7639 C   0  0  0  0  0  0  0  0  0  0  0  0
    5.8538   -1.6038    2.8878 N   0  0  0  0  0  0  0  0  0  0  0  0
    7.2231   -1.8039    2.6673 C   0  0  0  0  0  0  0  0  0  0  0  0
    7.9115   -2.7780    3.3853 C   0  0  0  0  0  0  0  0  0  0  0  0
    9.2700   -2.9519    3.2063 C   0  0  0  0  0  0  0  0  0  0  0  0
    9.9649   -2.1402    2.3216 C   0  0  0  0  0  0  0  0  0  0  0  0
   11.7107   -2.2264    2.0833 S   0  0  0  0  0  0  0  0  0  0  0  0
   12.2875   -3.1008    3.5665 C   0  0  0  0  0  0  0  0  0  0  0  0
    9.2688   -1.1988    1.5630 C   0  0  0  0  0  0  0  0  0  0  0  0
    7.9126   -1.0378    1.7244 C   0  0  0  0  0  0  0  0  0  0  0  0
    5.0417   -2.7065    3.2240 C   0  0  0  0  0  0  0  0  0  0  0  0
    4.1775   -2.6137    4.3138 C   0  0  0  0  0  0  0  0  0  0  0  0
    3.3998   -3.6920    4.6699 C   0  0  0  0  0  0  0  0  0  0  0  0
    3.4538   -4.8771    3.9351 C   0  0  0  0  0  0  0  0  0  0  0  0
    2.4120   -6.1858    4.4851 S   0  0  0  0  0  0  0  0  0  0  0  0
    2.5038   -7.4068    3.1486 C   0  0  0  0  0  0  0  0  0  0  0  0
    4.3118   -4.9669    2.8461 C   0  0  0  0  0  0  0  0  0  0  0  0
    5.1043   -3.8906    2.4988 C   0  0  0  0  0  0  0  0  0  0  0  0
    3.9577   -0.2226    2.2258 C   0  0  0  0  0  0  0  0  0  0  0  0
    2.8029   -1.3129    1.5317 S   0  0  0  0  0  0  0  0  0  0  0  0
    1.7484    0.0331    1.1505 C   0  0  0  0  0  0  0  0  0  0  0  0
    2.2870    1.2593    1.5003 C   0  0  0  0  0  0  0  0  0  0  0  0
    1.7399    2.5026    1.2397 N   0  0  0  0  0  0  0  0  0  0  0  0
    0.9212    2.7352    0.1330 C   0  0  0  0  0  0  0  0  0  0  0  0
   -0.1828    3.5833    0.2385 C   0  0  0  0  0  0  0  0  0  0  0  0
   -1.0723    3.6994   -0.8055 C   0  0  0  0  0  0  0  0  0  0  0  0
   -0.8796    2.9773   -1.9809 C   0  0  0  0  0  0  0  0  0  0  0  0
   -2.1302    3.1144   -3.2197 S   0  0  0  0  0  0  0  0  0  0  0  0
   -1.8956    1.6546   -4.2682 C   0  0  0  0  0  0  0  0  0  0  0  0
    0.2679    2.2115   -2.1302 C   0  0  0  0  0  0  0  0  0  0  0  0
    1.1619    2.0987   -1.0837 C   0  0  0  0  0  0  0  0  0  0  0  0
    2.0021    3.5201    2.1699 C   0  0  0  0  0  0  0  0  0  0  0  0
    1.9608    3.2388    3.5348 C   0  0  0  0  0  0  0  0  0  0  0  0
    2.3433    4.1945    4.4524 C   0  0  0  0  0  0  0  0  0  0  0  0
    2.7725    5.4388    4.0145 C   0  0  0  0  0  0  0  0  0  0  0  0
    3.3887    6.6046    5.2022 S   0  0  0  0  0  0  0  0  0  0  0  0
    4.9895    6.9835    4.4205 C   0  0  0  0  0  0  0  0  0  0  0  0
    2.7476    5.7474    2.6610 C   0  0  0  0  0  0  0  0  0  0  0  0
    2.3642    4.7941    1.7414 C   0  0  0  0  0  0  0  0  0  0  0  0
    3.5476    1.0994    2.1304 C   0  0  0  0  0  0  0  0  0  0  0  0
    4.7320    2.2117    2.7201 S   0  0  0  0  0  0  0  0  0  0  0  0
    0.4873   -0.1783    0.4691 C   0  0  0  0  0  0  0  0  0  0  0  0
    0.4076   -0.8664   -0.7280 C   0  0  0  0  0  0  0  0  0  0  0  0
    1.5155   -1.4117   -1.2584 F   0  0  0  0  0  0  0  0  0  0  0  0
   -0.7686   -0.9337   -1.4748 C   0  0  0  0  0  0  0  0  0  0  0  0
   -0.6868   -1.4418   -2.7220 F   0  0  0  0  0  0  0  0  0  0  0  0
   -1.9652   -0.3979   -1.0207 C   0  0  0  0  0  0  0  0  0  0  0  0
   -1.8984    0.3565    0.1840 C   0  0  0  0  0  0  0  0  0  0  0  0
   -2.9986    0.9976    0.5952 N   0  0  0  0  0  0  0  0  0  0  0  0
   -2.9631    1.7207    1.6870 C   0  0  0  0  0  0  0  0  0  0  0  0
   -4.2151    2.4683    2.0233 C   0  0  0  0  0  0  0  0  0  0  0  0
   -4.1688    3.8650    1.3992 C   0  0  0  0  0  0  0  0  0  0  0  0
   -1.7685    1.7857    2.4593 C   0  0  0  0  0  0  0  0  0  0  0  0
   -0.6869    1.1494    2.0797 N   0  0  0  0  0  0  0  0  0  0  0  0
   -0.7010    0.4515    0.9308 C   0  0  0  0  0  0  0  0  0  0  0  0
   -1.6756    2.5314    3.7561 C   0  0  0  0  0  0  0  0  0  0  0  0
   -2.0103    1.6053    4.9279 C   0  0  0  0  0  0  0  0  0  0  0  0
   -3.2156   -0.5508   -1.7026 C   0  0  0  0  0  0  0  0  0  0  0  0
   -3.6283   -1.6232   -2.4928 C   0  0  0  0  0  0  0  0  0  0  0  0
   -2.9901   -2.8391   -2.6301 N   0  0  0  0  0  0  0  0  0  0  0  0
   -2.2348   -3.3803   -1.5838 C   0  0  0  0  0  0  0  0  0  0  0  0
   -2.5812   -3.1363   -0.2561 C   0  0  0  0  0  0  0  0  0  0  0  0
   -1.7384   -3.5074    0.7710 C   0  0  0  0  0  0  0  0  0  0  0  0
   -0.5339   -4.1378    0.4876 C   0  0  0  0  0  0  0  0  0  0  0  0
    0.6635   -4.5120    1.7291 S   0  0  0  0  0  0  0  0  0  0  0  0
    0.2504   -3.3283    3.0391 C   0  0  0  0  0  0  0  0  0  0  0  0
   -0.2368   -4.4835   -0.8282 C   0  0  0  0  0  0  0  0  0  0  0  0
   -1.0787   -4.1147   -1.8538 C   0  0  0  0  0  0  0  0  0  0  0  0
   -3.1738   -3.5426   -3.8325 C   0  0  0  0  0  0  0  0  0  0  0  0
   -3.4987   -4.8945   -3.8221 C   0  0  0  0  0  0  0  0  0  0  0  0
   -3.7831   -5.5550   -5.0016 C   0  0  0  0  0  0  0  0  0  0  0  0
   -3.7379   -4.8713   -6.2099 C   0  0  0  0  0  0  0  0  0  0  0  0
   -4.1522   -5.5838   -7.7686 S   0  0  0  0  0  0  0  0  0  0  0  0
   -4.8772   -7.1918   -7.3317 C   0  0  0  0  0  0  0  0  0  0  0  0
   -3.3469   -3.5335   -6.2281 C   0  0  0  0  0  0  0  0  0  0  0  0
   -3.0748   -2.8723   -5.0523 C   0  0  0  0  0  0  0  0  0  0  0  0
   -4.8905   -1.3518   -3.0655 C   0  0  0  0  0  0  0  0  0  0  0  0
   -5.9110   -2.2345   -4.1374 S   0  0  0  0  0  0  0  0  0  0  0  0
   -7.1418   -0.9700   -4.0394 C   0  0  0  0  0  0  0  0  0  0  0  0
   -6.7808    0.0424   -3.1350 C   0  0  0  0  0  0  0  0  0  0  0  0
   -7.5402    1.1263   -2.7910 N   0  0  0  0  0  0  0  0  0  0  0  0
   -8.9367    1.0595   -2.7392 C   0  0  0  0  0  0  0  0  0  0  0  0
   -9.5697   -0.0848   -2.2538 C   0  0  0  0  0  0  0  0  0  0  0  0
  -10.9431   -0.2018   -2.3064 C   0  0  0  0  0  0  0  0  0  0  0  0
  -11.7077    0.8305   -2.8365 C   0  0  0  0  0  0  0  0  0  0  0  0
  -13.4562    0.6954   -3.0347 S   0  0  0  0  0  0  0  0  0  0  0  0
  -13.6346   -1.0690   -3.4424 C   0  0  0  0  0  0  0  0  0  0  0  0
  -11.0862    2.0106   -3.2360 C   0  0  0  0  0  0  0  0  0  0  0  0
   -9.7140    2.1261   -3.1913 C   0  0  0  0  0  0  0  0  0  0  0  0
   -6.9021    2.3571   -2.5352 C   0  0  0  0  0  0  0  0  0  0  0  0
   -7.2678    3.1140   -1.4245 C   0  0  0  0  0  0  0  0  0  0  0  0
   -6.6352    4.3102   -1.1729 C   0  0  0  0  0  0  0  0  0  0  0  0
   -5.6360    4.7741   -2.0283 C   0  0  0  0  0  0  0  0  0  0  0  0
   -4.8657    6.2941   -1.5767 S   0  0  0  0  0  0  0  0  0  0  0  0
   -3.6236    6.5655   -2.8706 C   0  0  0  0  0  0  0  0  0  0  0  0
   -5.3000    4.0372   -3.1563 C   0  0  0  0  0  0  0  0  0  0  0  0
   -5.9231    2.8299   -3.4019 C   0  0  0  0  0  0  0  0  0  0  0  0
   -5.4633   -0.1594   -2.6529 C   0  0  0  0  0  0  0  0  0  0  0  0
   -4.4508    0.6768   -1.5194 S   0  0  0  0  0  0  0  0  0  0  0  0
   -8.2927   -1.1000   -4.8321 C   0  0  0  0  0  0  0  0  0  0  0  0
   -8.4008   -1.7930   -6.0085 C   0  0  0  0  0  0  0  0  0  0  0  0
   -9.7175   -2.2973   -6.4483 C   0  0  0  0  0  0  0  0  0  0  0  0
  -10.8011   -2.0372   -5.9625 O   0  0  0  0  0  0  0  0  0  0  0  0
   -9.4194   -3.2393   -7.5501 C   0  0  0  0  0  0  0  0  0  0  0  0
  -10.2871   -4.0729   -8.2252 C   0  0  0  0  0  0  0  0  0  0  0  0
   -9.7584   -4.9148   -9.2060 C   0  0  0  0  0  0  0  0  0  0  0  0
  -10.4841   -5.7828   -9.9487 O   0  0  0  0  0  0  0  0  0  0  0  0
  -11.8771   -5.8504   -9.7460 C   0  0  0  0  0  0  0  0  0  0  0  0
   -8.3818   -4.8982   -9.4682 C   0  0  0  0  0  0  0  0  0  0  0  0
   -7.5209   -4.0508   -8.7986 C   0  0  0  0  0  0  0  0  0  0  0  0
   -8.0428   -3.2040   -7.8307 C   0  0  0  0  0  0  0  0  0  0  0  0
   -7.4128   -2.2059   -6.9754 C   0  0  0  0  0  0  0  0  0  0  0  0
   -6.2141   -1.5872   -7.2365 C   0  0  0  0  0  0  0  0  0  0  0  0
   -5.4049   -1.9021   -8.3457 C   0  0  0  0  0  0  0  0  0  0  0  0
   -4.7136   -2.0932   -9.2427 N   0  0  0  0  0  0  0  0  0  0  0  0
   -5.7123   -0.4834   -6.5226 C   0  0  0  0  0  0  0  0  0  0  0  0
   -5.2671    0.4429   -6.0058 N   0  0  0  0  0  0  0  0  0  0  0  0
    7.4319    0.0418    4.1278 H   0  0  0  0  0  0  0  0  0  0  0  0
    7.8636    6.3118    3.9932 H   0  0  0  0  0  0  0  0  0  0  0  0
   11.2721    3.3100    6.2327 H   0  0  0  0  0  0  0  0  0  0  0  0
   11.7640    6.5760    7.1455 H   0  0  0  0  0  0  0  0  0  0  0  0
   13.6127    5.8994    5.3508 H   0  0  0  0  0  0  0  0  0  0  0  0
   14.0862    8.3586    6.1466 H   0  0  0  0  0  0  0  0  0  0  0  0
   12.3215    9.9615    4.9745 H   0  0  0  0  0  0  0  0  0  0  0  0
   10.7623    8.4900    3.4560 H   0  0  0  0  0  0  0  0  0  0  0  0
   13.0052    7.1340    3.0895 H   0  0  0  0  0  0  0  0  0  0  0  0
   11.7079    5.9745    3.4579 H   0  0  0  0  0  0  0  0  0  0  0  0
   10.0356    8.1484    5.9976 H   0  0  0  0  0  0  0  0  0  0  0  0
    7.3858   -3.3868    4.1035 H   0  0  0  0  0  0  0  0  0  0  0  0
    9.7758   -3.7066    3.7849 H   0  0  0  0  0  0  0  0  0  0  0  0
   11.8419   -2.6494    4.4480 H   0  0  0  0  0  0  0  0  0  0  0  0
   12.0481   -4.1583    3.4995 H   0  0  0  0  0  0  0  0  0  0  0  0
   13.3648   -2.9691    3.5856 H   0  0  0  0  0  0  0  0  0  0  0  0
    9.8090   -0.5965    0.8488 H   0  0  0  0  0  0  0  0  0  0  0  0
    7.3810   -0.3043    1.1370 H   0  0  0  0  0  0  0  0  0  0  0  0
    4.1357   -1.6974    4.8841 H   0  0  0  0  0  0  0  0  0  0  0  0
    2.7508   -3.6373    5.5314 H   0  0  0  0  0  0  0  0  0  0  0  0
    2.2208   -6.9333    2.2133 H   0  0  0  0  0  0  0  0  0  0  0  0
    1.7842   -8.1771    3.4078 H   0  0  0  0  0  0  0  0  0  0  0  0
    3.5001   -7.8366    3.0998 H   0  0  0  0  0  0  0  0  0  0  0  0
    4.3713   -5.8688    2.2600 H   0  0  0  0  0  0  0  0  0  0  0  0
    5.7756   -3.9636    1.6563 H   0  0  0  0  0  0  0  0  0  0  0  0
   -0.3538    4.1204    1.1596 H   0  0  0  0  0  0  0  0  0  0  0  0
   -1.9420    4.3308   -0.7115 H   0  0  0  0  0  0  0  0  0  0  0  0
   -1.0501    1.7983   -4.9350 H   0  0  0  0  0  0  0  0  0  0  0  0
   -1.7567    0.7794   -3.6426 H   0  0  0  0  0  0  0  0  0  0  0  0
   -2.8102    1.5550   -4.8463 H   0  0  0  0  0  0  0  0  0  0  0  0
    0.4728    1.6962   -3.0556 H   0  0  0  0  0  0  0  0  0  0  0  0
    2.0540    1.5027   -1.2071 H   0  0  0  0  0  0  0  0  0  0  0  0
    1.6583    2.2547    3.8615 H   0  0  0  0  0  0  0  0  0  0  0  0
    2.3370    3.9765    5.5092 H   0  0  0  0  0  0  0  0  0  0  0  0
    4.8618    7.7229    3.6349 H   0  0  0  0  0  0  0  0  0  0  0  0
    5.3995    6.0586    4.0241 H   0  0  0  0  0  0  0  0  0  0  0  0
    5.6261    7.3824    5.2042 H   0  0  0  0  0  0  0  0  0  0  0  0
    3.0509    6.7260    2.3228 H   0  0  0  0  0  0  0  0  0  0  0  0
    2.3699    5.0200    0.6853 H   0  0  0  0  0  0  0  0  0  0  0  0
   -5.0583    1.9234    1.5976 H   0  0  0  0  0  0  0  0  0  0  0  0
   -4.3451    2.5416    3.1029 H   0  0  0  0  0  0  0  0  0  0  0  0
   -3.2980    4.4191    1.7425 H   0  0  0  0  0  0  0  0  0  0  0  0
   -5.0613    4.4244    1.6653 H   0  0  0  0  0  0  0  0  0  0  0  0
   -4.1250    3.7794    0.3171 H   0  0  0  0  0  0  0  0  0  0  0  0
   -0.6521    2.8912    3.8693 H   0  0  0  0  0  0  0  0  0  0  0  0
   -2.3492    3.3874    3.7555 H   0  0  0  0  0  0  0  0  0  0  0  0
   -3.0257    1.2231    4.8442 H   0  0  0  0  0  0  0  0  0  0  0  0
   -1.3250    0.7612    4.9420 H   0  0  0  0  0  0  0  0  0  0  0  0
   -1.9185    2.1447    5.8671 H   0  0  0  0  0  0  0  0  0  0  0  0
   -3.5063   -2.6289   -0.0256 H   0  0  0  0  0  0  0  0  0  0  0  0
   -2.0270   -3.2917    1.7874 H   0  0  0  0  0  0  0  0  0  0  0  0
   -0.6029   -3.6810    3.6115 H   0  0  0  0  0  0  0  0  0  0  0  0
    0.0559   -2.3562    2.5948 H   0  0  0  0  0  0  0  0  0  0  0  0
    1.1269   -3.2759    3.6769 H   0  0  0  0  0  0  0  0  0  0  0  0
    0.6830   -5.0057   -1.0404 H   0  0  0  0  0  0  0  0  0  0  0  0
   -0.8185   -4.3367   -2.8774 H   0  0  0  0  0  0  0  0  0  0  0  0
   -3.5490   -5.4235   -2.8815 H   0  0  0  0  0  0  0  0  0  0  0  0
   -4.0499   -6.5987   -4.9620 H   0  0  0  0  0  0  0  0  0  0  0  0
   -5.2498   -7.6058   -8.2633 H   0  0  0  0  0  0  0  0  0  0  0  0
   -5.6990   -7.0471   -6.6367 H   0  0  0  0  0  0  0  0  0  0  0  0
   -4.1180   -7.8486   -6.9171 H   0  0  0  0  0  0  0  0  0  0  0  0
   -3.2685   -3.0221   -7.1746 H   0  0  0  0  0  0  0  0  0  0  0  0
   -2.7899   -1.8308   -5.0677 H   0  0  0  0  0  0  0  0  0  0  0  0
   -8.9747   -0.8930   -1.8542 H   0  0  0  0  0  0  0  0  0  0  0  0
  -11.4115   -1.1021   -1.9425 H   0  0  0  0  0  0  0  0  0  0  0  0
  -12.8523   -1.3536   -4.1404 H   0  0  0  0  0  0  0  0  0  0  0  0
  -13.5998   -1.6742   -2.5410 H   0  0  0  0  0  0  0  0  0  0  0  0
  -14.6088   -1.1688   -3.9105 H   0  0  0  0  0  0  0  0  0  0  0  0
  -11.6899    2.8201   -3.6155 H   0  0  0  0  0  0  0  0  0  0  0  0
   -9.2318    3.0259   -3.5419 H   0  0  0  0  0  0  0  0  0  0  0  0
   -8.0415    2.7543   -0.7627 H   0  0  0  0  0  0  0  0  0  0  0  0
   -6.9030    4.8998   -0.3099 H   0  0  0  0  0  0  0  0  0  0  0  0
   -4.1141    6.7218   -3.8266 H   0  0  0  0  0  0  0  0  0  0  0  0
   -2.9396    5.7229   -2.9108 H   0  0  0  0  0  0  0  0  0  0  0  0
   -3.0908    7.4650   -2.5781 H   0  0  0  0  0  0  0  0  0  0  0  0
   -4.5565    4.3891   -3.8505 H   0  0  0  0  0  0  0  0  0  0  0  0
   -5.6603    2.2534   -4.2765 H   0  0  0  0  0  0  0  0  0  0  0  0
   -9.2230   -0.6876   -4.4596 H   0  0  0  0  0  0  0  0  0  0  0  0
  -11.3372   -4.0513   -7.9812 H   0  0  0  0  0  0  0  0  0  0  0  0
  -12.3589   -4.8899   -9.9520 H   0  0  0  0  0  0  0  0  0  0  0  0
  -12.1188   -6.1690   -8.7273 H   0  0  0  0  0  0  0  0  0  0  0  0
  -12.2405   -6.5948  -10.4523 H   0  0  0  0  0  0  0  0  0  0  0  0
   -8.0083   -5.5735  -10.2216 H   0  0  0  0  0  0  0  0  0  0  0  0
   -6.4652   -4.0725   -9.0175 H   0  0  0  0  0  0  0  0  0  0  0  0
  1  2  2  0  0  0  0
  2  3  1  0  0  0  0
  3  4  2  0  0  0  0
  3  5  1  0  0  0  0
  5  6  2  0  0  0  0
  6  7  1  0  0  0  0
  7  8  2  0  0  0  0
  8  9  1  0  0  0  0
  9 10  2  0  0  0  0
 10 11  1  0  0  0  0
 11 12  2  0  0  0  0
 12 13  1  0  0  0  0
 13 14  3  0  0  0  0
 12 15  1  0  0  0  0
 15 16  3  0  0  0  0
  8 17  1  0  0  0  0
 17 18  1  0  0  0  0
 18 19  1  0  0  0  0
 19 20  2  0  0  0  0
 20 21  1  0  0  0  0
 21 22  1  0  0  0  0
 21 23  1  0  0  0  0
  1 24  1  0  0  0  0
 24 25  2  0  0  0  0
 25 26  1  0  0  0  0
 26 27  1  0  0  0  0
 27 28  2  0  0  0  0
 28 29  1  0  0  0  0
 29 30  2  0  0  0  0
 30 31  1  0  0  0  0
 31 32  1  0  0  0  0
 30 33  1  0  0  0  0
 33 34  2  0  0  0  0
 26 35  1  0  0  0  0
 35 36  2  0  0  0  0
 36 37  1  0  0  0  0
 37 38  2  0  0  0  0
 38 39  1  0  0  0  0
 39 40  1  0  0  0  0
 38 41  1  0  0  0  0
 41 42  2  0  0  0  0
 25 43  1  0  0  0  0
 43 44  1  0  0  0  0
 44 45  1  0  0  0  0
 45 46  2  0  0  0  0
 46 47  1  0  0  0  0
 47 48  1  0  0  0  0
 48 49  2  0  0  0  0
 49 50  1  0  0  0  0
 50 51  2  0  0  0  0
 51 52  1  0  0  0  0
 52 53  1  0  0  0  0
 51 54  1  0  0  0  0
 54 55  2  0  0  0  0
 47 56  1  0  0  0  0
 56 57  2  0  0  0  0
 57 58  1  0  0  0  0
 58 59  2  0  0  0  0
 59 60  1  0  0  0  0
 60 61  1  0  0  0  0
 59 62  1  0  0  0  0
 62 63  2  0  0  0  0
 46 64  1  0  0  0  0
 64 65  1  0  0  0  0
 45 66  1  0  0  0  0
 66 67  2  0  0  0  0
 67 68  1  0  0  0  0
 67 69  1  0  0  0  0
 69 70  1  0  0  0  0
 69 71  2  0  0  0  0
 71 72  1  0  0  0  0
 72 73  2  0  0  0  0
 73 74  1  0  0  0  0
 74 75  1  0  0  0  0
 75 76  1  0  0  0  0
 74 77  2  0  0  0  0
 77 78  1  0  0  0  0
 78 79  2  0  0  0  0
 77 80  1  0  0  0  0
 80 81  1  0  0  0  0
 71 82  1  0  0  0  0
 82 83  2  0  0  0  0
 83 84  1  0  0  0  0
 84 85  1  0  0  0  0
 85 86  2  0  0  0  0
 86 87  1  0  0  0  0
 87 88  2  0  0  0  0
 88 89  1  0  0  0  0
 89 90  1  0  0  0  0
 88 91  1  0  0  0  0
 91 92  2  0  0  0  0
 84 93  1  0  0  0  0
 93 94  2  0  0  0  0
 94 95  1  0  0  0  0
 95 96  2  0  0  0  0
 96 97  1  0  0  0  0
 97 98  1  0  0  0  0
 96 99  1  0  0  0  0
 99100  2  0  0  0  0
 83101  1  0  0  0  0
101102  1  0  0  0  0
102103  1  0  0  0  0
103104  2  0  0  0  0
104105  1  0  0  0  0
105106  1  0  0  0  0
106107  2  0  0  0  0
107108  1  0  0  0  0
108109  2  0  0  0  0
109110  1  0  0  0  0
110111  1  0  0  0  0
109112  1  0  0  0  0
112113  2  0  0  0  0
105114  1  0  0  0  0
114115  2  0  0  0  0
115116  1  0  0  0  0
116117  2  0  0  0  0
117118  1  0  0  0  0
118119  1  0  0  0  0
117120  1  0  0  0  0
120121  2  0  0  0  0
104122  1  0  0  0  0
122123  1  0  0  0  0
103124  1  0  0  0  0
124125  2  0  0  0  0
125126  1  0  0  0  0
126127  2  0  0  0  0
126128  1  0  0  0  0
128129  2  0  0  0  0
129130  1  0  0  0  0
130131  1  0  0  0  0
131132  1  0  0  0  0
130133  2  0  0  0  0
133134  1  0  0  0  0
134135  2  0  0  0  0
135136  1  0  0  0  0
136137  2  0  0  0  0
137138  1  0  0  0  0
138139  3  0  0  0  0
137140  1  0  0  0  0
140141  3  0  0  0  0
 11  2  1  0  0  0  0
 23 17  1  0  0  0  0
 65 24  1  0  0  0  0
 79 66  1  0  0  0  0
123 82  1  0  0  0  0
136125  1  0  0  0  0
 10  5  1  0  0  0  0
 22 18  1  0  0  0  0
 34 27  1  0  0  0  0
 42 35  1  0  0  0  0
 64 43  2  0  0  0  0
 79 72  1  0  0  0  0
 92 85  1  0  0  0  0
100 93  1  0  0  0  0
122101  2  0  0  0  0
135128  1  0  0  0  0
 23  7  1  0  0  0  0
 55 48  1  0  0  0  0
 63 56  1  0  0  0  0
113106  1  0  0  0  0
121114  1  0  0  0  0
  1142  1  0  0  0  0
  6143  1  0  0  0  0
  9144  1  0  0  0  0
 17145  1  0  0  0  0
 18146  1  0  0  0  0
 19147  1  0  0  0  0
 20148  1  0  0  0  0
 21149  1  0  0  0  0
 22150  1  0  0  0  0
 22151  1  0  0  0  0
 23152  1  0  0  0  0
 28153  1  0  0  0  0
 29154  1  0  0  0  0
 32155  1  0  0  0  0
 32156  1  0  0  0  0
 32157  1  0  0  0  0
 33158  1  0  0  0  0
 34159  1  0  0  0  0
 36160  1  0  0  0  0
 37161  1  0  0  0  0
 40162  1  0  0  0  0
 40163  1  0  0  0  0
 40164  1  0  0  0  0
 41165  1  0  0  0  0
 42166  1  0  0  0  0
 49167  1  0  0  0  0
 50168  1  0  0  0  0
 53169  1  0  0  0  0
 53170  1  0  0  0  0
 53171  1  0  0  0  0
 54172  1  0  0  0  0
 55173  1  0  0  0  0
 57174  1  0  0  0  0
 58175  1  0  0  0  0
 61176  1  0  0  0  0
 61177  1  0  0  0  0
 61178  1  0  0  0  0
 62179  1  0  0  0  0
 63180  1  0  0  0  0
 75181  1  0  0  0  0
 75182  1  0  0  0  0
 76183  1  0  0  0  0
 76184  1  0  0  0  0
 76185  1  0  0  0  0
 80186  1  0  0  0  0
 80187  1  0  0  0  0
 81188  1  0  0  0  0
 81189  1  0  0  0  0
 81190  1  0  0  0  0
 86191  1  0  0  0  0
 87192  1  0  0  0  0
 90193  1  0  0  0  0
 90194  1  0  0  0  0
 90195  1  0  0  0  0
 91196  1  0  0  0  0
 92197  1  0  0  0  0
 94198  1  0  0  0  0
 95199  1  0  0  0  0
 98200  1  0  0  0  0
 98201  1  0  0  0  0
 98202  1  0  0  0  0
 99203  1  0  0  0  0
100204  1  0  0  0  0
107205  1  0  0  0  0
108206  1  0  0  0  0
111207  1  0  0  0  0
111208  1  0  0  0  0
111209  1  0  0  0  0
112210  1  0  0  0  0
113211  1  0  0  0  0
115212  1  0  0  0  0
116213  1  0  0  0  0
119214  1  0  0  0  0
119215  1  0  0  0  0
119216  1  0  0  0  0
120217  1  0  0  0  0
121218  1  0  0  0  0
124219  1  0  0  0  0
129220  1  0  0  0  0
132221  1  0  0  0  0
132222  1  0  0  0  0
132223  1  0  0  0  0
133224  1  0  0  0  0
134225  1  0  0  0  0
M  END
