
  xtb     02142212553D
 energy: -240.913410281253 gnorm: 0.000339353271 xtb: 6.4.1 (unknown)
122136  0     0  0            999 V2000
   -5.4747   -2.1667    3.1713 C   0  0  0  0  0  0  0  0  0  0  0  0
   -4.9239   -3.0346    4.0593 C   0  0  0  0  0  0  0  0  0  0  0  0
   -3.4653   -3.3056    4.1912 C   0  0  0  0  0  0  0  0  0  0  0  0
   -2.5415   -2.7400    3.6455 O   0  0  0  0  0  0  0  0  0  0  0  0
   -3.3634   -4.5158    5.0265 C   0  0  0  0  0  0  0  0  0  0  0  0
   -2.1915   -5.1813    5.3809 C   0  0  0  0  0  0  0  0  0  0  0  0
   -2.3945   -6.3151    6.1289 C   0  0  0  0  0  0  0  0  0  0  0  0
   -3.6719   -6.7599    6.4979 C   0  0  0  0  0  0  0  0  0  0  0  0
   -4.8356   -6.1122    6.1591 C   0  0  0  0  0  0  0  0  0  0  0  0
   -4.6509   -4.9549    5.3960 C   0  0  0  0  0  0  0  0  0  0  0  0
   -5.6338   -4.0278    4.8470 C   0  0  0  0  0  0  0  0  0  0  0  0
   -6.9803   -4.0393    5.0925 C   0  0  0  0  0  0  0  0  0  0  0  0
   -7.6413   -5.0101    5.8741 C   0  0  0  0  0  0  0  0  0  0  0  0
   -8.2403   -5.7726    6.4887 N   0  0  0  0  0  0  0  0  0  0  0  0
   -7.8901   -3.0644    4.6278 C   0  0  0  0  0  0  0  0  0  0  0  0
   -8.6896   -2.3037    4.3122 N   0  0  0  0  0  0  0  0  0  0  0  0
   -3.1300   -7.9733    7.2104 C   0  0  0  0  0  0  0  0  0  0  0  0
   -3.2372   -9.3389    6.4868 C   0  0  0  0  0  0  0  0  0  0  0  0
   -3.2602   -9.0411    5.0081 C   0  0  0  0  0  0  0  0  0  0  0  0
   -2.0516   -8.6193    4.6610 C   0  0  0  0  0  0  0  0  0  0  0  0
   -1.1893   -8.6241    5.8993 C   0  0  0  0  0  0  0  0  0  0  0  0
   -1.7886   -9.8293    6.6414 C   0  0  0  0  0  0  0  0  0  0  0  0
   -1.7074   -7.4766    6.8019 C   0  0  0  0  0  0  0  0  0  0  0  0
   -4.7475   -1.1440    2.4866 C   0  0  0  0  0  0  0  0  0  0  0  0
   -4.9732   -0.8714    1.1260 C   0  0  0  0  0  0  0  0  0  0  0  0
   -4.1033   -0.0002    0.3553 C   0  0  0  0  0  0  0  0  0  0  0  0
   -4.4316   -0.0099   -0.9424 N   0  0  0  0  0  0  0  0  0  0  0  0
   -5.6987   -0.9551   -1.1569 S   0  0  0  0  0  4  0  0  0  0  0  0
   -5.8962   -1.4521    0.3531 N   0  0  0  0  0  0  0  0  0  0  0  0
   -3.0173    0.6698    0.9354 C   0  0  0  0  0  0  0  0  0  0  0  0
   -2.9000    0.5320    2.3258 C   0  0  0  0  0  0  0  0  0  0  0  0
   -2.0339    1.1796    3.1148 N   0  0  0  0  0  0  0  0  0  0  0  0
   -2.2632    0.7116    4.6233 S   0  0  0  0  0  0  0  0  0  0  0  0
   -3.4674   -0.3139    4.3948 N   0  0  0  0  0  0  0  0  0  0  0  0
   -3.7479   -0.3621    3.0903 C   0  0  0  0  0  0  0  0  0  0  0  0
   -1.9882    1.3222    0.1433 C   0  0  0  0  0  0  0  0  0  0  0  0
   -2.2486    2.1649   -0.9181 C   0  0  0  0  0  0  0  0  0  0  0  0
   -3.5032    2.5414   -1.1957 F   0  0  0  0  0  0  0  0  0  0  0  0
   -1.2234    2.6781   -1.7288 C   0  0  0  0  0  0  0  0  0  0  0  0
   -1.5801    3.3855   -2.8109 F   0  0  0  0  0  0  0  0  0  0  0  0
    0.1107    2.4057   -1.4869 C   0  0  0  0  0  0  0  0  0  0  0  0
    0.4062    1.5293   -0.4020 C   0  0  0  0  0  0  0  0  0  0  0  0
    1.6838    1.2108   -0.1496 N   0  0  0  0  0  0  0  0  0  0  0  0
    1.9708    0.3689    0.8105 C   0  0  0  0  0  0  0  0  0  0  0  0
    3.4191    0.0421    0.9952 C   0  0  0  0  0  0  0  0  0  0  0  0
    3.8148   -1.1089    0.0651 C   0  0  0  0  0  0  0  0  0  0  0  0
    0.9228   -0.2283    1.5722 C   0  0  0  0  0  0  0  0  0  0  0  0
   -0.3239    0.0948    1.3496 N   0  0  0  0  0  0  0  0  0  0  0  0
   -0.6273    0.9875    0.3961 C   0  0  0  0  0  0  0  0  0  0  0  0
    1.1503   -1.1932    2.6948 C   0  0  0  0  0  0  0  0  0  0  0  0
    1.4118   -0.4263    3.9946 C   0  0  0  0  0  0  0  0  0  0  0  0
    1.1930    2.8613   -2.3182 C   0  0  0  0  0  0  0  0  0  0  0  0
    2.4548    1.7378   -2.6752 S   0  0  0  0  0  0  0  0  0  0  0  0
    3.2460    2.8556   -3.7716 C   0  0  0  0  0  0  0  0  0  0  0  0
    2.5414    4.0612   -3.7697 C   0  0  0  0  0  0  0  0  0  0  0  0
    2.8261    5.5620   -4.5647 S   0  0  0  0  0  0  0  0  0  0  0  0
    1.4499    6.2908   -3.7352 C   0  0  0  0  0  0  0  0  0  0  0  0
    1.1166    7.6575   -3.9608 C   0  0  0  0  0  0  0  0  0  0  0  0
    1.7453    8.5617   -4.8055 C   0  0  0  0  0  0  0  0  0  0  0  0
    1.1563    9.8325   -4.8181 C   0  0  0  0  0  0  0  0  0  0  0  0
    0.0736    9.9115   -3.9827 C   0  0  0  0  0  0  0  0  0  0  0  0
   -0.7830   11.0758   -3.7561 C   0  0  0  0  0  0  0  0  0  0  0  0
   -0.6397   12.1422   -4.3011 O   0  0  0  0  0  0  0  0  0  0  0  0
   -1.7359   10.7956   -2.8581 O   0  0  0  0  0  0  0  0  0  0  0  0
   -2.6770   11.8290   -2.5679 C   0  0  0  0  0  0  0  0  0  0  0  0
   -3.8007   11.8551   -3.5939 C   0  0  0  0  0  0  0  0  0  0  0  0
   -0.2313    8.4220   -3.1692 S   0  0  0  0  0  0  0  0  0  0  0  0
    3.1171    8.1805   -5.7618 Cl  0  0  0  0  0  0  0  0  0  0  0  0
    0.8180    5.3888   -2.9083 C   0  0  0  0  0  0  0  0  0  0  0  0
    1.3981    4.0908   -2.9409 C   0  0  0  0  0  0  0  0  0  0  0  0
   -0.4563    5.8287   -1.8570 Cl  0  0  0  0  0  0  0  0  0  0  0  0
    4.4011    2.6558   -4.5351 C   0  0  0  0  0  0  0  0  0  0  0  0
    5.2265    1.5612   -4.6081 C   0  0  0  0  0  0  0  0  0  0  0  0
    5.0497    0.3176   -3.8563 C   0  0  0  0  0  0  0  0  0  0  0  0
    4.1523    0.0396   -3.0771 O   0  0  0  0  0  0  0  0  0  0  0  0
    6.1768   -0.5529   -4.2299 C   0  0  0  0  0  0  0  0  0  0  0  0
    6.4640   -1.8284   -3.7853 C   0  0  0  0  0  0  0  0  0  0  0  0
    7.5874   -2.4847   -4.2753 C   0  0  0  0  0  0  0  0  0  0  0  0
    7.9618   -3.8640   -3.8421 C   0  0  0  0  0  0  0  0  0  0  0  0
    8.3746   -1.8042   -5.2064 C   0  0  0  0  0  0  0  0  0  0  0  0
    9.4634   -2.4317   -5.6874 F   0  0  0  0  0  0  0  0  0  0  0  0
    8.1084   -0.5244   -5.6672 C   0  0  0  0  0  0  0  0  0  0  0  0
    6.9854    0.1140   -5.1662 C   0  0  0  0  0  0  0  0  0  0  0  0
    6.4185    1.4378   -5.4244 C   0  0  0  0  0  0  0  0  0  0  0  0
    6.9420    2.3666   -6.2847 C   0  0  0  0  0  0  0  0  0  0  0  0
    6.4077    3.6469   -6.5432 C   0  0  0  0  0  0  0  0  0  0  0  0
    6.0426    4.7028   -6.8092 N   0  0  0  0  0  0  0  0  0  0  0  0
    8.1131    2.1620   -7.0455 C   0  0  0  0  0  0  0  0  0  0  0  0
    9.0580    2.0573   -7.6886 N   0  0  0  0  0  0  0  0  0  0  0  0
   -6.5122   -2.2734    2.8800 H   0  0  0  0  0  0  0  0  0  0  0  0
   -1.2279   -4.8073    5.0717 H   0  0  0  0  0  0  0  0  0  0  0  0
   -5.8111   -6.4695    6.4441 H   0  0  0  0  0  0  0  0  0  0  0  0
   -3.3603   -8.0472    8.2712 H   0  0  0  0  0  0  0  0  0  0  0  0
   -4.0275   -9.9852    6.8584 H   0  0  0  0  0  0  0  0  0  0  0  0
   -4.1406   -9.1116    4.3967 H   0  0  0  0  0  0  0  0  0  0  0  0
   -1.7209   -8.2662    3.7017 H   0  0  0  0  0  0  0  0  0  0  0  0
   -0.1147   -8.6206    5.7361 H   0  0  0  0  0  0  0  0  0  0  0  0
   -1.6066  -10.7723    6.1283 H   0  0  0  0  0  0  0  0  0  0  0  0
   -1.4644   -9.9059    7.6783 H   0  0  0  0  0  0  0  0  0  0  0  0
   -1.0077   -7.2249    7.5964 H   0  0  0  0  0  0  0  0  0  0  0  0
    3.6258   -0.2258    2.0308 H   0  0  0  0  0  0  0  0  0  0  0  0
    4.0046    0.9230    0.7303 H   0  0  0  0  0  0  0  0  0  0  0  0
    3.6900   -0.8056   -0.9708 H   0  0  0  0  0  0  0  0  0  0  0  0
    3.1986   -1.9864    0.2505 H   0  0  0  0  0  0  0  0  0  0  0  0
    4.8564   -1.3742    0.2306 H   0  0  0  0  0  0  0  0  0  0  0  0
    0.2418   -1.7858    2.8129 H   0  0  0  0  0  0  0  0  0  0  0  0
    1.9873   -1.8562    2.4754 H   0  0  0  0  0  0  0  0  0  0  0  0
    1.5122   -1.1215    4.8240 H   0  0  0  0  0  0  0  0  0  0  0  0
    0.5809    0.2447    4.1994 H   0  0  0  0  0  0  0  0  0  0  0  0
    2.3210    0.1675    3.9263 H   0  0  0  0  0  0  0  0  0  0  0  0
    1.5061   10.6560   -5.4124 H   0  0  0  0  0  0  0  0  0  0  0  0
   -3.0563   11.5940   -1.5715 H   0  0  0  0  0  0  0  0  0  0  0  0
   -2.1531   12.7904   -2.5537 H   0  0  0  0  0  0  0  0  0  0  0  0
   -4.2830   10.8819   -3.6465 H   0  0  0  0  0  0  0  0  0  0  0  0
   -3.4027   12.1068   -4.5740 H   0  0  0  0  0  0  0  0  0  0  0  0
   -4.5359   12.6023   -3.3102 H   0  0  0  0  0  0  0  0  0  0  0  0
    4.6556    3.5143   -5.1462 H   0  0  0  0  0  0  0  0  0  0  0  0
    5.8162   -2.3046   -3.0649 H   0  0  0  0  0  0  0  0  0  0  0  0
    7.2471   -4.2503   -3.1213 H   0  0  0  0  0  0  0  0  0  0  0  0
    7.9978   -4.5311   -4.7026 H   0  0  0  0  0  0  0  0  0  0  0  0
    8.9552   -3.8606   -3.3947 H   0  0  0  0  0  0  0  0  0  0  0  0
    8.7723   -0.0764   -6.3876 H   0  0  0  0  0  0  0  0  0  0  0  0
  1  2  2  0  0  0  0
  2  3  1  0  0  0  0
  3  4  2  0  0  0  0
  3  5  1  0  0  0  0
  5  6  2  0  0  0  0
  6  7  1  0  0  0  0
  7  8  2  0  0  0  0
  8  9  1  0  0  0  0
  9 10  2  0  0  0  0
 10 11  1  0  0  0  0
 11 12  2  0  0  0  0
 12 13  1  0  0  0  0
 13 14  3  0  0  0  0
 12 15  1  0  0  0  0
 15 16  3  0  0  0  0
  8 17  1  0  0  0  0
 17 18  1  0  0  0  0
 18 19  1  0  0  0  0
 19 20  2  0  0  0  0
 20 21  1  0  0  0  0
 21 22  1  0  0  0  0
 21 23  1  0  0  0  0
  1 24  1  0  0  0  0
 24 25  2  0  0  0  0
 25 26  1  0  0  0  0
 26 27  1  0  0  0  0
 27 28  2  0  0  0  0
 28 29  2  0  0  0  0
 26 30  2  0  0  0  0
 30 31  1  0  0  0  0
 31 32  2  0  0  0  0
 32 33  1  0  0  0  0
 33 34  1  0  0  0  0
 34 35  2  0  0  0  0
 30 36  1  0  0  0  0
 36 37  2  0  0  0  0
 37 38  1  0  0  0  0
 37 39  1  0  0  0  0
 39 40  1  0  0  0  0
 39 41  2  0  0  0  0
 41 42  1  0  0  0  0
 42 43  2  0  0  0  0
 43 44  1  0  0  0  0
 44 45  1  0  0  0  0
 45 46  1  0  0  0  0
 44 47  2  0  0  0  0
 47 48  1  0  0  0  0
 48 49  2  0  0  0  0
 47 50  1  0  0  0  0
 50 51  1  0  0  0  0
 41 52  1  0  0  0  0
 52 53  1  0  0  0  0
 53 54  1  0  0  0  0
 54 55  2  0  0  0  0
 55 56  1  0  0  0  0
 56 57  1  0  0  0  0
 57 58  1  0  0  0  0
 58 59  2  0  0  0  0
 59 60  1  0  0  0  0
 60 61  2  0  0  0  0
 61 62  1  0  0  0  0
 62 63  2  0  0  0  0
 62 64  1  0  0  0  0
 64 65  1  0  0  0  0
 65 66  1  0  0  0  0
 61 67  1  0  0  0  0
 59 68  1  0  0  0  0
 57 69  2  0  0  0  0
 69 70  1  0  0  0  0
 69 71  1  0  0  0  0
 54 72  1  0  0  0  0
 72 73  2  0  0  0  0
 73 74  1  0  0  0  0
 74 75  2  0  0  0  0
 74 76  1  0  0  0  0
 76 77  2  0  0  0  0
 77 78  1  0  0  0  0
 78 79  1  0  0  0  0
 78 80  2  0  0  0  0
 80 81  1  0  0  0  0
 80 82  1  0  0  0  0
 82 83  2  0  0  0  0
 83 84  1  0  0  0  0
 84 85  2  0  0  0  0
 85 86  1  0  0  0  0
 86 87  3  0  0  0  0
 85 88  1  0  0  0  0
 88 89  3  0  0  0  0
 11  2  1  0  0  0  0
 23 17  1  0  0  0  0
 35 24  1  0  0  0  0
 49 36  1  0  0  0  0
 70 52  2  0  0  0  0
 84 73  1  0  0  0  0
 10  5  1  0  0  0  0
 22 18  1  0  0  0  0
 29 25  1  0  0  0  0
 35 31  1  0  0  0  0
 49 42  1  0  0  0  0
 70 55  1  0  0  0  0
 83 76  1  0  0  0  0
 23  7  1  0  0  0  0
 67 58  1  0  0  0  0
  1 90  1  0  0  0  0
  6 91  1  0  0  0  0
  9 92  1  0  0  0  0
 17 93  1  0  0  0  0
 18 94  1  0  0  0  0
 19 95  1  0  0  0  0
 20 96  1  0  0  0  0
 21 97  1  0  0  0  0
 22 98  1  0  0  0  0
 22 99  1  0  0  0  0
 23100  1  0  0  0  0
 45101  1  0  0  0  0
 45102  1  0  0  0  0
 46103  1  0  0  0  0
 46104  1  0  0  0  0
 46105  1  0  0  0  0
 50106  1  0  0  0  0
 50107  1  0  0  0  0
 51108  1  0  0  0  0
 51109  1  0  0  0  0
 51110  1  0  0  0  0
 60111  1  0  0  0  0
 65112  1  0  0  0  0
 65113  1  0  0  0  0
 66114  1  0  0  0  0
 66115  1  0  0  0  0
 66116  1  0  0  0  0
 72117  1  0  0  0  0
 77118  1  0  0  0  0
 79119  1  0  0  0  0
 79120  1  0  0  0  0
 79121  1  0  0  0  0
 82122  1  0  0  0  0
M  END
