
  xtb     02142217273D
 energy: -311.961379921012 gnorm: 0.000468663331 xtb: 6.4.1 (unknown)
189209  0     0  0            999 V2000
   -8.0485   -2.0430   -3.5149 C   0  0  0  0  0  0  0  0  0  0  0  0
   -8.8997   -1.1624   -2.9298 C   0  0  0  0  0  0  0  0  0  0  0  0
   -8.5464   -0.3446   -1.7360 C   0  0  0  0  0  0  0  0  0  0  0  0
   -7.5039   -0.3519   -1.1189 O   0  0  0  0  0  0  0  0  0  0  0  0
   -9.7839    0.3592   -1.3564 C   0  0  0  0  0  0  0  0  0  0  0  0
   -9.9415    1.2505   -0.2971 C   0  0  0  0  0  0  0  0  0  0  0  0
  -11.2175    1.7417   -0.1639 C   0  0  0  0  0  0  0  0  0  0  0  0
  -12.2668    1.3634   -1.0131 C   0  0  0  0  0  0  0  0  0  0  0  0
  -12.1288    0.4760   -2.0531 C   0  0  0  0  0  0  0  0  0  0  0  0
  -10.8333   -0.0288   -2.2140 C   0  0  0  0  0  0  0  0  0  0  0  0
  -10.3130   -0.9742   -3.1963 C   0  0  0  0  0  0  0  0  0  0  0  0
  -11.0237   -1.5356   -4.2252 C   0  0  0  0  0  0  0  0  0  0  0  0
  -12.3947   -1.3137   -4.4704 C   0  0  0  0  0  0  0  0  0  0  0  0
  -13.5052   -1.1836   -4.7321 N   0  0  0  0  0  0  0  0  0  0  0  0
  -10.4852   -2.4010   -5.1989 C   0  0  0  0  0  0  0  0  0  0  0  0
  -10.1263   -3.0928   -6.0431 N   0  0  0  0  0  0  0  0  0  0  0  0
  -13.2652    2.2429   -0.3019 C   0  0  0  0  0  0  0  0  0  0  0  0
  -13.6356    3.5688   -0.9998 C   0  0  0  0  0  0  0  0  0  0  0  0
  -14.2227    4.4101    0.1106 C   0  0  0  0  0  0  0  0  0  0  0  0
  -13.2292    4.7687    0.9137 C   0  0  0  0  0  0  0  0  0  0  0  0
  -11.9539    4.1757    0.3598 C   0  0  0  0  0  0  0  0  0  0  0  0
  -12.2632    4.2398   -1.1415 C   0  0  0  0  0  0  0  0  0  0  0  0
  -12.0951    2.6649    0.6437 C   0  0  0  0  0  0  0  0  0  0  0  0
   -6.6294   -2.0235   -3.3013 C   0  0  0  0  0  0  0  0  0  0  0  0
   -5.8918   -0.8162   -3.2685 C   0  0  0  0  0  0  0  0  0  0  0  0
   -4.4611   -0.8295   -3.1350 C   0  0  0  0  0  0  0  0  0  0  0  0
   -4.0502    0.4215   -3.1884 N   0  0  0  0  0  0  0  0  0  0  0  0
   -5.1419    1.1623   -3.3750 O   0  0  0  0  0  0  0  0  0  0  0  0
   -6.2589    0.4369   -3.4402 N   0  0  0  0  0  0  0  0  0  0  0  0
   -3.7446   -2.0363   -2.9455 C   0  0  0  0  0  0  0  0  0  0  0  0
   -4.5015   -3.2063   -2.8926 C   0  0  0  0  0  0  0  0  0  0  0  0
   -3.8125   -4.3616   -2.6575 O   0  0  0  0  0  0  0  0  0  0  0  0
   -4.3214   -5.2765   -1.6868 C   0  0  0  0  0  0  0  0  0  0  0  0
   -4.4325   -4.6639   -0.2987 C   0  0  0  0  0  0  0  0  0  0  0  0
   -5.8961   -3.2007   -3.1874 C   0  0  0  0  0  0  0  0  0  0  0  0
   -6.5875   -4.3754   -3.3218 O   0  0  0  0  0  0  0  0  0  0  0  0
   -6.2468   -5.1345   -4.4867 C   0  0  0  0  0  0  0  0  0  0  0  0
   -7.1344   -6.3654   -4.5168 C   0  0  0  0  0  0  0  0  0  0  0  0
   -2.3188   -2.0259   -2.7873 C   0  0  0  0  0  0  0  0  0  0  0  0
   -1.3925   -1.2501   -3.4765 C   0  0  0  0  0  0  0  0  0  0  0  0
   -1.6636   -0.5065   -4.6075 N   0  0  0  0  0  0  0  0  0  0  0  0
   -2.7134   -0.9003   -5.4484 C   0  0  0  0  0  0  0  0  0  0  0  0
   -2.9216   -2.2547   -5.7136 C   0  0  0  0  0  0  0  0  0  0  0  0
   -4.0619   -2.6675   -6.3614 C   0  0  0  0  0  0  0  0  0  0  0  0
   -5.0226   -1.7380   -6.7561 C   0  0  0  0  0  0  0  0  0  0  0  0
   -6.5330   -2.3823   -7.4041 S   0  0  0  0  0  0  0  0  0  0  0  0
   -7.6859   -0.9954   -7.2233 C   0  0  0  0  0  0  0  0  0  0  0  0
   -4.7578   -0.3825   -6.6092 C   0  0  0  0  0  0  0  0  0  0  0  0
   -3.6064    0.0333   -5.9681 C   0  0  0  0  0  0  0  0  0  0  0  0
   -0.9426    0.6644   -4.8555 C   0  0  0  0  0  0  0  0  0  0  0  0
   -0.5919    1.0149   -6.1595 C   0  0  0  0  0  0  0  0  0  0  0  0
    0.1779    2.1324   -6.3914 C   0  0  0  0  0  0  0  0  0  0  0  0
    0.6160    2.9208   -5.3295 C   0  0  0  0  0  0  0  0  0  0  0  0
    1.6364    4.3073   -5.7278 S   0  0  0  0  0  0  0  0  0  0  0  0
    2.4454    4.6852   -4.1445 C   0  0  0  0  0  0  0  0  0  0  0  0
    0.2290    2.6021   -4.0352 C   0  0  0  0  0  0  0  0  0  0  0  0
   -0.5463    1.4841   -3.8020 C   0  0  0  0  0  0  0  0  0  0  0  0
   -0.0925   -1.4374   -2.9430 C   0  0  0  0  0  0  0  0  0  0  0  0
    1.4602   -0.7412   -3.2482 S   0  0  0  0  0  0  0  0  0  0  0  0
    2.1828   -1.7207   -1.9806 C   0  0  0  0  0  0  0  0  0  0  0  0
    1.2549   -2.5213   -1.3388 C   0  0  0  0  0  0  0  0  0  0  0  0
    1.4756   -3.3218   -0.2275 N   0  0  0  0  0  0  0  0  0  0  0  0
    0.6911   -4.4732   -0.0773 C   0  0  0  0  0  0  0  0  0  0  0  0
    0.1481   -4.8074    1.1638 C   0  0  0  0  0  0  0  0  0  0  0  0
   -0.6777   -5.9016    1.2855 C   0  0  0  0  0  0  0  0  0  0  0  0
   -0.9815   -6.6879    0.1751 C   0  0  0  0  0  0  0  0  0  0  0  0
   -2.1059   -8.0259    0.4396 S   0  0  0  0  0  0  0  0  0  0  0  0
   -1.9950   -8.9953   -1.0929 C   0  0  0  0  0  0  0  0  0  0  0  0
   -0.4203   -6.3784   -1.0549 C   0  0  0  0  0  0  0  0  0  0  0  0
    0.4133   -5.2835   -1.1755 C   0  0  0  0  0  0  0  0  0  0  0  0
    2.4090   -2.9672    0.7553 C   0  0  0  0  0  0  0  0  0  0  0  0
    3.1911   -3.9526    1.3596 C   0  0  0  0  0  0  0  0  0  0  0  0
    4.2056   -3.6012    2.2194 C   0  0  0  0  0  0  0  0  0  0  0  0
    4.4678   -2.2608    2.4999 C   0  0  0  0  0  0  0  0  0  0  0  0
    5.8756   -1.9323    3.5102 S   0  0  0  0  0  0  0  0  0  0  0  0
    6.0457   -0.1300    3.4734 C   0  0  0  0  0  0  0  0  0  0  0  0
    3.6354   -1.2841    1.9698 C   0  0  0  0  0  0  0  0  0  0  0  0
    2.6131   -1.6371    1.1111 C   0  0  0  0  0  0  0  0  0  0  0  0
   -0.0333   -2.3610   -1.9135 C   0  0  0  0  0  0  0  0  0  0  0  0
   -1.5747   -3.0710   -1.5984 S   0  0  0  0  0  0  0  0  0  0  0  0
    3.5687   -1.4977   -1.6169 C   0  0  0  0  0  0  0  0  0  0  0  0
    4.0449   -0.1916   -1.5658 C   0  0  0  0  0  0  0  0  0  0  0  0
    5.2895    0.0320   -1.0059 C   0  0  0  0  0  0  0  0  0  0  0  0
    5.9235    1.2222   -0.7431 N   0  0  0  0  0  0  0  0  0  0  0  0
    5.4730    2.5198   -1.1705 C   0  0  0  0  0  0  0  0  0  0  0  0
    5.9373    2.8397   -2.5905 C   0  0  0  0  0  0  0  0  0  0  0  0
    7.0922    0.9516   -0.0719 C   0  0  0  0  0  0  0  0  0  0  0  0
    7.2160   -0.4528    0.1095 C   0  0  0  0  0  0  0  0  0  0  0  0
    6.0699   -1.0414   -0.5075 C   0  0  0  0  0  0  0  0  0  0  0  0
    5.6274   -2.3513   -0.6665 C   0  0  0  0  0  0  0  0  0  0  0  0
    4.3911   -2.5698   -1.2261 C   0  0  0  0  0  0  0  0  0  0  0  0
    8.2936   -0.9683    0.8235 C   0  0  0  0  0  0  0  0  0  0  0  0
    9.2030   -0.0973    1.3759 C   0  0  0  0  0  0  0  0  0  0  0  0
    9.0864    1.2934    1.1954 C   0  0  0  0  0  0  0  0  0  0  0  0
    8.0442    1.8195    0.4267 C   0  0  0  0  0  0  0  0  0  0  0  0
   10.0555    2.2077    1.7472 C   0  0  0  0  0  0  0  0  0  0  0  0
   10.6349    2.1325    2.9713 C   0  0  0  0  0  0  0  0  0  0  0  0
   10.1418    1.3056    4.1057 C   0  0  0  0  0  0  0  0  0  0  0  0
    9.2275    0.5087    4.1078 O   0  0  0  0  0  0  0  0  0  0  0  0
   10.9179    1.7367    5.2811 C   0  0  0  0  0  0  0  0  0  0  0  0
   10.7877    1.2542    6.5820 C   0  0  0  0  0  0  0  0  0  0  0  0
   11.6365    1.8453    7.4854 C   0  0  0  0  0  0  0  0  0  0  0  0
   12.5470    2.8488    7.1240 C   0  0  0  0  0  0  0  0  0  0  0  0
   12.6847    3.3346    5.8463 C   0  0  0  0  0  0  0  0  0  0  0  0
   11.8303    2.7446    4.9087 C   0  0  0  0  0  0  0  0  0  0  0  0
   11.6914    2.9958    3.4790 C   0  0  0  0  0  0  0  0  0  0  0  0
   12.4660    3.8463    2.7362 C   0  0  0  0  0  0  0  0  0  0  0  0
   13.4922    4.6600    3.2615 C   0  0  0  0  0  0  0  0  0  0  0  0
   14.3335    5.3550    3.6181 N   0  0  0  0  0  0  0  0  0  0  0  0
   12.3687    4.0269    1.3397 C   0  0  0  0  0  0  0  0  0  0  0  0
   12.3663    4.2268    0.2088 N   0  0  0  0  0  0  0  0  0  0  0  0
   13.0665    2.9948    8.5320 C   0  0  0  0  0  0  0  0  0  0  0  0
   12.5797    4.2113    9.3580 C   0  0  0  0  0  0  0  0  0  0  0  0
   11.2287    4.5930    8.8058 C   0  0  0  0  0  0  0  0  0  0  0  0
   10.3685    3.6429    9.1472 C   0  0  0  0  0  0  0  0  0  0  0  0
   11.1223    2.6014    9.9368 C   0  0  0  0  0  0  0  0  0  0  0  0
   12.1516    3.4940   10.6484 C   0  0  0  0  0  0  0  0  0  0  0  0
   12.0540    1.8764    8.9340 C   0  0  0  0  0  0  0  0  0  0  0  0
   -8.4248   -2.8368   -4.1470 H   0  0  0  0  0  0  0  0  0  0  0  0
   -9.1075    1.5071    0.3370 H   0  0  0  0  0  0  0  0  0  0  0  0
  -12.9485    0.1851   -2.6887 H   0  0  0  0  0  0  0  0  0  0  0  0
  -14.1253    1.7334    0.1283 H   0  0  0  0  0  0  0  0  0  0  0  0
  -14.2350    3.4575   -1.8991 H   0  0  0  0  0  0  0  0  0  0  0  0
  -15.2729    4.6049    0.2246 H   0  0  0  0  0  0  0  0  0  0  0  0
  -13.2837    5.3226    1.8325 H   0  0  0  0  0  0  0  0  0  0  0  0
  -11.0207    4.6174    0.6988 H   0  0  0  0  0  0  0  0  0  0  0  0
  -12.3415    5.2642   -1.5018 H   0  0  0  0  0  0  0  0  0  0  0  0
  -11.5607    3.6880   -1.7632 H   0  0  0  0  0  0  0  0  0  0  0  0
  -12.1743    2.4370    1.7050 H   0  0  0  0  0  0  0  0  0  0  0  0
   -3.5822   -6.0803   -1.6866 H   0  0  0  0  0  0  0  0  0  0  0  0
   -5.2924   -5.6756   -1.9931 H   0  0  0  0  0  0  0  0  0  0  0  0
   -5.1582   -3.8527   -0.2968 H   0  0  0  0  0  0  0  0  0  0  0  0
   -4.7558   -5.4280    0.4026 H   0  0  0  0  0  0  0  0  0  0  0  0
   -3.4686   -4.2777    0.0238 H   0  0  0  0  0  0  0  0  0  0  0  0
   -6.4236   -4.5180   -5.3780 H   0  0  0  0  0  0  0  0  0  0  0  0
   -5.1864   -5.4161   -4.4616 H   0  0  0  0  0  0  0  0  0  0  0  0
   -6.9042   -6.9558   -5.3987 H   0  0  0  0  0  0  0  0  0  0  0  0
   -6.9766   -6.9720   -3.6285 H   0  0  0  0  0  0  0  0  0  0  0  0
   -8.1784   -6.0671   -4.5536 H   0  0  0  0  0  0  0  0  0  0  0  0
   -2.2002   -2.9831   -5.3751 H   0  0  0  0  0  0  0  0  0  0  0  0
   -4.2351   -3.7157   -6.5497 H   0  0  0  0  0  0  0  0  0  0  0  0
   -7.4965   -0.2433   -7.9840 H   0  0  0  0  0  0  0  0  0  0  0  0
   -7.5967   -0.5783   -6.2234 H   0  0  0  0  0  0  0  0  0  0  0  0
   -8.6742   -1.4239   -7.3615 H   0  0  0  0  0  0  0  0  0  0  0  0
   -5.4548    0.3596   -6.9644 H   0  0  0  0  0  0  0  0  0  0  0  0
   -3.4227    1.0868   -5.8201 H   0  0  0  0  0  0  0  0  0  0  0  0
   -0.9118    0.3941   -6.9831 H   0  0  0  0  0  0  0  0  0  0  0  0
    0.4645    2.3993   -7.3970 H   0  0  0  0  0  0  0  0  0  0  0  0
    2.8461    3.7698   -3.7196 H   0  0  0  0  0  0  0  0  0  0  0  0
    3.2519    5.3718   -4.3818 H   0  0  0  0  0  0  0  0  0  0  0  0
    1.7466    5.1637   -3.4642 H   0  0  0  0  0  0  0  0  0  0  0  0
    0.5150    3.2226   -3.2011 H   0  0  0  0  0  0  0  0  0  0  0  0
   -0.8660    1.2487   -2.7984 H   0  0  0  0  0  0  0  0  0  0  0  0
    0.3703   -4.1936    2.0238 H   0  0  0  0  0  0  0  0  0  0  0  0
   -1.1124   -6.1534    2.2406 H   0  0  0  0  0  0  0  0  0  0  0  0
   -0.9600   -9.2634   -1.2826 H   0  0  0  0  0  0  0  0  0  0  0  0
   -2.4178   -8.4407   -1.9259 H   0  0  0  0  0  0  0  0  0  0  0  0
   -2.5819   -9.8909   -0.9149 H   0  0  0  0  0  0  0  0  0  0  0  0
   -0.6242   -6.9748   -1.9295 H   0  0  0  0  0  0  0  0  0  0  0  0
    0.8482   -5.0477   -2.1358 H   0  0  0  0  0  0  0  0  0  0  0  0
    3.0160   -4.9915    1.1223 H   0  0  0  0  0  0  0  0  0  0  0  0
    4.8308   -4.3595    2.6648 H   0  0  0  0  0  0  0  0  0  0  0  0
    5.2719    0.3316    4.0809 H   0  0  0  0  0  0  0  0  0  0  0  0
    7.0280    0.0772    3.8880 H   0  0  0  0  0  0  0  0  0  0  0  0
    6.0061    0.2184    2.4463 H   0  0  0  0  0  0  0  0  0  0  0  0
    3.7764   -0.2432    2.2135 H   0  0  0  0  0  0  0  0  0  0  0  0
    1.9765   -0.8700    0.6957 H   0  0  0  0  0  0  0  0  0  0  0  0
    3.4173    0.6189   -1.9053 H   0  0  0  0  0  0  0  0  0  0  0  0
    5.8585    3.2671   -0.4721 H   0  0  0  0  0  0  0  0  0  0  0  0
    4.3805    2.5407   -1.1189 H   0  0  0  0  0  0  0  0  0  0  0  0
    5.5379    2.1100   -3.2913 H   0  0  0  0  0  0  0  0  0  0  0  0
    5.5986    3.8303   -2.8823 H   0  0  0  0  0  0  0  0  0  0  0  0
    7.0229    2.8117   -2.6458 H   0  0  0  0  0  0  0  0  0  0  0  0
    6.2372   -3.1773   -0.3360 H   0  0  0  0  0  0  0  0  0  0  0  0
    4.0298   -3.5774   -1.3591 H   0  0  0  0  0  0  0  0  0  0  0  0
    8.3965   -2.0332    0.9597 H   0  0  0  0  0  0  0  0  0  0  0  0
   10.0425   -0.4809    1.9321 H   0  0  0  0  0  0  0  0  0  0  0  0
    7.9734    2.8873    0.2809 H   0  0  0  0  0  0  0  0  0  0  0  0
   10.3048    3.0499    1.1123 H   0  0  0  0  0  0  0  0  0  0  0  0
   10.0735    0.4799    6.8154 H   0  0  0  0  0  0  0  0  0  0  0  0
   13.3869    4.1088    5.5859 H   0  0  0  0  0  0  0  0  0  0  0  0
   14.1274    2.7972    8.6710 H   0  0  0  0  0  0  0  0  0  0  0  0
   13.3057    5.0147    9.4481 H   0  0  0  0  0  0  0  0  0  0  0  0
   11.0550    5.4588    8.1940 H   0  0  0  0  0  0  0  0  0  0  0  0
    9.3323    3.5558    8.8772 H   0  0  0  0  0  0  0  0  0  0  0  0
   10.5213    1.9393   10.5545 H   0  0  0  0  0  0  0  0  0  0  0  0
   12.9574    2.9347   11.1217 H   0  0  0  0  0  0  0  0  0  0  0  0
   11.6958    4.1670   11.3730 H   0  0  0  0  0  0  0  0  0  0  0  0
   12.4536    0.9473    9.3358 H   0  0  0  0  0  0  0  0  0  0  0  0
  1  2  2  0  0  0  0
  2  3  1  0  0  0  0
  3  4  2  0  0  0  0
  3  5  1  0  0  0  0
  5  6  2  0  0  0  0
  6  7  1  0  0  0  0
  7  8  2  0  0  0  0
  8  9  1  0  0  0  0
  9 10  2  0  0  0  0
 10 11  1  0  0  0  0
 11 12  2  0  0  0  0
 12 13  1  0  0  0  0
 13 14  3  0  0  0  0
 12 15  1  0  0  0  0
 15 16  3  0  0  0  0
  8 17  1  0  0  0  0
 17 18  1  0  0  0  0
 18 19  1  0  0  0  0
 19 20  2  0  0  0  0
 20 21  1  0  0  0  0
 21 22  1  0  0  0  0
 21 23  1  0  0  0  0
  1 24  1  0  0  0  0
 24 25  1  0  0  0  0
 25 26  1  0  0  0  0
 26 27  2  0  0  0  0
 27 28  1  0  0  0  0
 28 29  1  0  0  0  0
 26 30  1  0  0  0  0
 30 31  2  0  0  0  0
 31 32  1  0  0  0  0
 32 33  1  0  0  0  0
 33 34  1  0  0  0  0
 31 35  1  0  0  0  0
 35 36  1  0  0  0  0
 36 37  1  0  0  0  0
 37 38  1  0  0  0  0
 30 39  1  0  0  0  0
 39 40  2  0  0  0  0
 40 41  1  0  0  0  0
 41 42  1  0  0  0  0
 42 43  2  0  0  0  0
 43 44  1  0  0  0  0
 44 45  2  0  0  0  0
 45 46  1  0  0  0  0
 46 47  1  0  0  0  0
 45 48  1  0  0  0  0
 48 49  2  0  0  0  0
 41 50  1  0  0  0  0
 50 51  2  0  0  0  0
 51 52  1  0  0  0  0
 52 53  2  0  0  0  0
 53 54  1  0  0  0  0
 54 55  1  0  0  0  0
 53 56  1  0  0  0  0
 56 57  2  0  0  0  0
 40 58  1  0  0  0  0
 58 59  1  0  0  0  0
 59 60  1  0  0  0  0
 60 61  2  0  0  0  0
 61 62  1  0  0  0  0
 62 63  1  0  0  0  0
 63 64  2  0  0  0  0
 64 65  1  0  0  0  0
 65 66  2  0  0  0  0
 66 67  1  0  0  0  0
 67 68  1  0  0  0  0
 66 69  1  0  0  0  0
 69 70  2  0  0  0  0
 62 71  1  0  0  0  0
 71 72  2  0  0  0  0
 72 73  1  0  0  0  0
 73 74  2  0  0  0  0
 74 75  1  0  0  0  0
 75 76  1  0  0  0  0
 74 77  1  0  0  0  0
 77 78  2  0  0  0  0
 61 79  1  0  0  0  0
 79 80  1  0  0  0  0
 60 81  1  0  0  0  0
 81 82  2  0  0  0  0
 82 83  1  0  0  0  0
 83 84  1  0  0  0  0
 84 85  1  0  0  0  0
 85 86  1  0  0  0  0
 84 87  1  0  0  0  0
 87 88  2  0  0  0  0
 88 89  1  0  0  0  0
 89 90  1  0  0  0  0
 90 91  2  0  0  0  0
 88 92  1  0  0  0  0
 92 93  2  0  0  0  0
 93 94  1  0  0  0  0
 94 95  2  0  0  0  0
 94 96  1  0  0  0  0
 96 97  2  0  0  0  0
 97 98  1  0  0  0  0
 98 99  2  0  0  0  0
 98100  1  0  0  0  0
100101  2  0  0  0  0
101102  1  0  0  0  0
102103  2  0  0  0  0
103104  1  0  0  0  0
104105  2  0  0  0  0
105106  1  0  0  0  0
106107  2  0  0  0  0
107108  1  0  0  0  0
108109  3  0  0  0  0
107110  1  0  0  0  0
110111  3  0  0  0  0
103112  1  0  0  0  0
112113  1  0  0  0  0
113114  1  0  0  0  0
114115  2  0  0  0  0
115116  1  0  0  0  0
116117  1  0  0  0  0
116118  1  0  0  0  0
 11  2  1  0  0  0  0
 23 17  1  0  0  0  0
 35 24  2  0  0  0  0
 80 39  1  0  0  0  0
 91 81  1  0  0  0  0
106 97  1  0  0  0  0
118112  1  0  0  0  0
 10  5  1  0  0  0  0
 22 18  1  0  0  0  0
 29 25  2  0  0  0  0
 49 42  1  0  0  0  0
 57 50  1  0  0  0  0
 79 58  2  0  0  0  0
 89 83  2  0  0  0  0
105100  1  0  0  0  0
117113  1  0  0  0  0
 23  7  1  0  0  0  0
 70 63  1  0  0  0  0
 78 71  1  0  0  0  0
 95 87  1  0  0  0  0
118102  1  0  0  0  0
  1119  1  0  0  0  0
  6120  1  0  0  0  0
  9121  1  0  0  0  0
 17122  1  0  0  0  0
 18123  1  0  0  0  0
 19124  1  0  0  0  0
 20125  1  0  0  0  0
 21126  1  0  0  0  0
 22127  1  0  0  0  0
 22128  1  0  0  0  0
 23129  1  0  0  0  0
 33130  1  0  0  0  0
 33131  1  0  0  0  0
 34132  1  0  0  0  0
 34133  1  0  0  0  0
 34134  1  0  0  0  0
 37135  1  0  0  0  0
 37136  1  0  0  0  0
 38137  1  0  0  0  0
 38138  1  0  0  0  0
 38139  1  0  0  0  0
 43140  1  0  0  0  0
 44141  1  0  0  0  0
 47142  1  0  0  0  0
 47143  1  0  0  0  0
 47144  1  0  0  0  0
 48145  1  0  0  0  0
 49146  1  0  0  0  0
 51147  1  0  0  0  0
 52148  1  0  0  0  0
 55149  1  0  0  0  0
 55150  1  0  0  0  0
 55151  1  0  0  0  0
 56152  1  0  0  0  0
 57153  1  0  0  0  0
 64154  1  0  0  0  0
 65155  1  0  0  0  0
 68156  1  0  0  0  0
 68157  1  0  0  0  0
 68158  1  0  0  0  0
 69159  1  0  0  0  0
 70160  1  0  0  0  0
 72161  1  0  0  0  0
 73162  1  0  0  0  0
 76163  1  0  0  0  0
 76164  1  0  0  0  0
 76165  1  0  0  0  0
 77166  1  0  0  0  0
 78167  1  0  0  0  0
 82168  1  0  0  0  0
 85169  1  0  0  0  0
 85170  1  0  0  0  0
 86171  1  0  0  0  0
 86172  1  0  0  0  0
 86173  1  0  0  0  0
 90174  1  0  0  0  0
 91175  1  0  0  0  0
 92176  1  0  0  0  0
 93177  1  0  0  0  0
 95178  1  0  0  0  0
 96179  1  0  0  0  0
101180  1  0  0  0  0
104181  1  0  0  0  0
112182  1  0  0  0  0
113183  1  0  0  0  0
114184  1  0  0  0  0
115185  1  0  0  0  0
116186  1  0  0  0  0
117187  1  0  0  0  0
117188  1  0  0  0  0
118189  1  0  0  0  0
M  END
