
  xtb     02082220473D
 energy: -358.891672721034 gnorm: 0.000523171994 xtb: 6.4.1 (unknown)
216239  0     0  0            999 V2000
   -2.8974    0.1425  -10.0026 C   0  0  0  0  0  0  0  0  0  0  0  0
   -2.9101    0.9925  -11.0854 C   0  0  0  0  0  0  0  0  0  0  0  0
   -1.8267    1.9339  -11.4062 C   0  0  0  0  0  0  0  0  0  0  0  0
   -0.8073    2.1336  -10.7706 O   0  0  0  0  0  0  0  0  0  0  0  0
   -2.1601    2.4894  -12.7363 C   0  0  0  0  0  0  0  0  0  0  0  0
   -1.4297    3.4245  -13.4639 C   0  0  0  0  0  0  0  0  0  0  0  0
   -1.9969    3.7647  -14.6697 C   0  0  0  0  0  0  0  0  0  0  0  0
   -3.1973    3.2067  -15.1251 C   0  0  0  0  0  0  0  0  0  0  0  0
   -3.9253    2.2766  -14.4195 C   0  0  0  0  0  0  0  0  0  0  0  0
   -3.3688    1.9252  -13.1870 C   0  0  0  0  0  0  0  0  0  0  0  0
   -3.8655    1.0123  -12.1595 C   0  0  0  0  0  0  0  0  0  0  0  0
   -5.1020    0.4151  -12.1422 C   0  0  0  0  0  0  0  0  0  0  0  0
   -5.6009   -0.3214  -11.0497 C   0  0  0  0  0  0  0  0  0  0  0  0
   -6.0803   -0.9026  -10.1824 N   0  0  0  0  0  0  0  0  0  0  0  0
   -6.0498    0.5164  -13.1779 C   0  0  0  0  0  0  0  0  0  0  0  0
   -6.8572    0.5604  -13.9940 N   0  0  0  0  0  0  0  0  0  0  0  0
   -3.1692    3.9918  -16.4137 C   0  0  0  0  0  0  0  0  0  0  0  0
   -2.7322    3.2239  -17.6785 C   0  0  0  0  0  0  0  0  0  0  0  0
   -2.3377    4.3158  -18.6467 C   0  0  0  0  0  0  0  0  0  0  0  0
   -1.1997    4.8449  -18.2159 C   0  0  0  0  0  0  0  0  0  0  0  0
   -0.8059    4.1193  -16.9495 C   0  0  0  0  0  0  0  0  0  0  0  0
   -1.3425    2.7183  -17.2704 C   0  0  0  0  0  0  0  0  0  0  0  0
   -1.8291    4.6149  -15.9059 C   0  0  0  0  0  0  0  0  0  0  0  0
   -2.2067    0.3422   -8.8023 C   0  0  0  0  0  0  0  0  0  0  0  0
   -1.7715    1.5158   -8.1561 C   0  0  0  0  0  0  0  0  0  0  0  0
   -2.0515    2.8053   -8.5153 N   0  0  0  0  0  0  0  0  0  0  0  0
   -1.1758    3.8326   -8.1098 C   0  0  0  0  0  0  0  0  0  0  0  0
    0.2025    3.6875   -8.2620 C   0  0  0  0  0  0  0  0  0  0  0  0
    1.0485    4.6904   -7.8474 C   0  0  0  0  0  0  0  0  0  0  0  0
    0.5385    5.8559   -7.2755 C   0  0  0  0  0  0  0  0  0  0  0  0
    1.7224    7.0613   -6.7714 S   0  0  0  0  0  0  0  0  0  0  0  0
    0.7264    8.3546   -5.9762 C   0  0  0  0  0  0  0  0  0  0  0  0
   -0.8355    6.0104   -7.1451 C   0  0  0  0  0  0  0  0  0  0  0  0
   -1.6855    5.0033   -7.5603 C   0  0  0  0  0  0  0  0  0  0  0  0
   -3.1851    3.1529   -9.2578 C   0  0  0  0  0  0  0  0  0  0  0  0
   -4.4147    2.5280   -9.0376 C   0  0  0  0  0  0  0  0  0  0  0  0
   -5.4981    2.8312   -9.8279 C   0  0  0  0  0  0  0  0  0  0  0  0
   -5.3846    3.7626  -10.8624 C   0  0  0  0  0  0  0  0  0  0  0  0
   -6.8083    3.9955  -11.8704 S   0  0  0  0  0  0  0  0  0  0  0  0
   -6.1857    4.9597  -13.2767 C   0  0  0  0  0  0  0  0  0  0  0  0
   -4.1841    4.4375  -11.0393 C   0  0  0  0  0  0  0  0  0  0  0  0
   -3.0966    4.1351  -10.2426 C   0  0  0  0  0  0  0  0  0  0  0  0
   -1.0837    1.1954   -6.9608 C   0  0  0  0  0  0  0  0  0  0  0  0
   -0.3825    2.1461   -5.6925 S   0  0  0  0  0  0  0  0  0  0  0  0
    0.0088    0.6922   -4.7938 C   0  0  0  0  0  0  0  0  0  0  0  0
   -0.4330   -0.4641   -5.4176 C   0  0  0  0  0  0  0  0  0  0  0  0
   -0.3760   -1.7437   -4.8930 N   0  0  0  0  0  0  0  0  0  0  0  0
   -0.2093   -2.8282   -5.7677 C   0  0  0  0  0  0  0  0  0  0  0  0
    0.6471   -2.7311   -6.8644 C   0  0  0  0  0  0  0  0  0  0  0  0
    0.7877   -3.7928   -7.7294 C   0  0  0  0  0  0  0  0  0  0  0  0
    0.0869   -4.9779   -7.5151 C   0  0  0  0  0  0  0  0  0  0  0  0
    0.3524   -6.2694   -8.6885 S   0  0  0  0  0  0  0  0  0  0  0  0
   -0.7879   -7.5808   -8.1635 C   0  0  0  0  0  0  0  0  0  0  0  0
   -0.7542   -5.0835   -6.4153 C   0  0  0  0  0  0  0  0  0  0  0  0
   -0.9030   -4.0151   -5.5536 C   0  0  0  0  0  0  0  0  0  0  0  0
   -0.4905   -1.9694   -3.5145 C   0  0  0  0  0  0  0  0  0  0  0  0
   -1.3499   -1.2040   -2.7314 C   0  0  0  0  0  0  0  0  0  0  0  0
   -1.3666   -1.3416   -1.3560 C   0  0  0  0  0  0  0  0  0  0  0  0
   -0.5288   -2.2588   -0.7394 C   0  0  0  0  0  0  0  0  0  0  0  0
   -0.3810   -2.4532    1.0089 S   0  0  0  0  0  0  0  0  0  0  0  0
   -1.5567   -1.2511    1.6885 C   0  0  0  0  0  0  0  0  0  0  0  0
    0.2768   -3.0817   -1.5253 C   0  0  0  0  0  0  0  0  0  0  0  0
    0.2971   -2.9416   -2.8934 C   0  0  0  0  0  0  0  0  0  0  0  0
   -1.0405   -0.1578   -6.6612 C   0  0  0  0  0  0  0  0  0  0  0  0
   -1.8514   -1.1068   -7.8488 S   0  0  0  0  0  0  0  0  0  0  0  0
    0.6192    0.7841   -3.4984 C   0  0  0  0  0  0  0  0  0  0  0  0
    0.1971    1.5310   -2.4435 C   0  0  0  0  0  0  0  0  0  0  0  0
    0.8371    1.1976   -1.2205 C   0  0  0  0  0  0  0  0  0  0  0  0
    0.5159    1.6387    0.0688 C   0  0  0  0  0  0  0  0  0  0  0  0
   -0.4913    2.7234    0.3099 C   0  0  0  0  0  0  0  0  0  0  0  0
    0.1307    4.1005    0.0725 C   0  0  0  0  0  0  0  0  0  0  0  0
    1.1776    1.0156    1.1105 C   0  0  0  0  0  0  0  0  0  0  0  0
    2.1535    0.0022    0.9296 C   0  0  0  0  0  0  0  0  0  0  0  0
    2.5002   -0.4137   -0.3629 C   0  0  0  0  0  0  0  0  0  0  0  0
    3.5366   -1.4658   -0.6099 C   0  0  0  0  0  0  0  0  0  0  0  0
    4.9428   -0.8642   -0.5756 C   0  0  0  0  0  0  0  0  0  0  0  0
    1.8196    0.1914   -1.4006 C   0  0  0  0  0  0  0  0  0  0  0  0
    1.9671   -0.2549   -3.0805 S   0  0  0  0  0  0  0  0  0  0  0  0
    2.6054   -0.5209    2.1671 C   0  0  0  0  0  0  0  0  0  0  0  0
    1.9971    0.0373    3.2529 C   0  0  0  0  0  0  0  0  0  0  0  0
    0.8646    1.2946    2.8055 S   0  0  0  0  0  0  0  0  0  0  0  0
    2.1471   -0.3341    4.6231 C   0  0  0  0  0  0  0  0  0  0  0  0
    3.0990   -1.1456    5.1723 C   0  0  0  0  0  0  0  0  0  0  0  0
    2.9185   -1.3768    6.5571 C   0  0  0  0  0  0  0  0  0  0  0  0
    3.7105   -2.1660    7.4113 C   0  0  0  0  0  0  0  0  0  0  0  0
    4.9549   -2.7897    6.9468 C   0  0  0  0  0  0  0  0  0  0  0  0
    5.2222   -4.1335    7.1886 C   0  0  0  0  0  0  0  0  0  0  0  0
    6.4039   -4.7164    6.7733 C   0  0  0  0  0  0  0  0  0  0  0  0
    7.3660   -3.9742    6.0981 C   0  0  0  0  0  0  0  0  0  0  0  0
    8.9228   -4.5676    5.5319 S   0  0  0  0  0  0  0  0  0  0  0  0
    8.8946   -6.3550    5.9017 C   0  0  0  0  0  0  0  0  0  0  0  0
    8.0512   -7.1388    4.9134 C   0  0  0  0  0  0  0  0  0  0  0  0
    7.0844   -2.6260    5.8632 C   0  0  0  0  0  0  0  0  0  0  0  0
    7.9959   -1.8714    5.2154 F   0  0  0  0  0  0  0  0  0  0  0  0
    5.9120   -2.0332    6.2711 C   0  0  0  0  0  0  0  0  0  0  0  0
    3.2615   -2.3138    8.7155 C   0  0  0  0  0  0  0  0  0  0  0  0
    2.0938   -1.6683    9.2039 C   0  0  0  0  0  0  0  0  0  0  0  0
    1.3313   -0.8324    8.3623 C   0  0  0  0  0  0  0  0  0  0  0  0
    0.1455   -0.1571    8.8957 C   0  0  0  0  0  0  0  0  0  0  0  0
    0.2211    0.5526   10.0929 C   0  0  0  0  0  0  0  0  0  0  0  0
   -0.9061    1.0974   10.6701 C   0  0  0  0  0  0  0  0  0  0  0  0
   -2.1546    0.9405   10.0779 C   0  0  0  0  0  0  0  0  0  0  0  0
   -3.6636    1.5228   10.7741 S   0  0  0  0  0  0  0  0  0  0  0  0
   -3.2975    1.5905   12.5639 C   0  0  0  0  0  0  0  0  0  0  0  0
   -2.9886    0.2258   13.1497 C   0  0  0  0  0  0  0  0  0  0  0  0
   -2.2060    0.2860    8.8468 C   0  0  0  0  0  0  0  0  0  0  0  0
   -1.0868   -0.2558    8.2544 C   0  0  0  0  0  0  0  0  0  0  0  0
   -3.3932    0.1485    8.2236 F   0  0  0  0  0  0  0  0  0  0  0  0
    1.7542   -0.7286    7.0507 C   0  0  0  0  0  0  0  0  0  0  0  0
    0.9698    0.2009    5.8021 S   0  0  0  0  0  0  0  0  0  0  0  0
    1.8140   -2.0013   10.5420 C   0  0  0  0  0  0  0  0  0  0  0  0
    2.7331   -2.8475   11.1088 C   0  0  0  0  0  0  0  0  0  0  0  0
    4.0151   -3.2615    9.9650 S   0  0  0  0  0  0  0  0  0  0  0  0
    2.8076   -3.4350   12.3916 C   0  0  0  0  0  0  0  0  0  0  0  0
    1.9606   -3.3779   13.4625 C   0  0  0  0  0  0  0  0  0  0  0  0
    0.6544   -2.6881   13.5989 C   0  0  0  0  0  0  0  0  0  0  0  0
    0.1385   -1.8648   12.8670 O   0  0  0  0  0  0  0  0  0  0  0  0
    0.0665   -3.1788   14.8565 C   0  0  0  0  0  0  0  0  0  0  0  0
   -1.1971   -2.8676   15.3551 C   0  0  0  0  0  0  0  0  0  0  0  0
   -1.4938   -3.4812   16.5473 C   0  0  0  0  0  0  0  0  0  0  0  0
   -0.5967   -4.3395   17.1986 C   0  0  0  0  0  0  0  0  0  0  0  0
    0.6543   -4.6483   16.7211 C   0  0  0  0  0  0  0  0  0  0  0  0
    0.9759   -4.0350   15.5061 C   0  0  0  0  0  0  0  0  0  0  0  0
    2.1885   -4.1194   14.6978 C   0  0  0  0  0  0  0  0  0  0  0  0
    3.3424   -4.7503   15.0817 C   0  0  0  0  0  0  0  0  0  0  0  0
    4.5577   -4.7946   14.3637 C   0  0  0  0  0  0  0  0  0  0  0  0
    5.5939   -4.8764   13.8746 N   0  0  0  0  0  0  0  0  0  0  0  0
    3.5058   -5.4389   16.3034 C   0  0  0  0  0  0  0  0  0  0  0  0
    3.7194   -6.0189   17.2709 N   0  0  0  0  0  0  0  0  0  0  0  0
   -1.5552   -4.6119   18.3302 C   0  0  0  0  0  0  0  0  0  0  0  0
   -2.3099   -5.9644   18.3249 C   0  0  0  0  0  0  0  0  0  0  0  0
   -2.4016   -6.3999   16.8834 C   0  0  0  0  0  0  0  0  0  0  0  0
   -3.2505   -5.5877   16.2680 C   0  0  0  0  0  0  0  0  0  0  0  0
   -3.7482   -4.5878   17.2824 C   0  0  0  0  0  0  0  0  0  0  0  0
   -3.7452   -5.4612   18.5472 C   0  0  0  0  0  0  0  0  0  0  0  0
   -2.5541   -3.6555   17.6054 C   0  0  0  0  0  0  0  0  0  0  0  0
   -3.4389   -0.7932  -10.0758 H   0  0  0  0  0  0  0  0  0  0  0  0
   -0.5073    3.8303  -13.0783 H   0  0  0  0  0  0  0  0  0  0  0  0
   -4.8445    1.8481  -14.7836 H   0  0  0  0  0  0  0  0  0  0  0  0
   -4.0174    4.6519  -16.5891 H   0  0  0  0  0  0  0  0  0  0  0  0
   -3.4489    2.4889  -18.0348 H   0  0  0  0  0  0  0  0  0  0  0  0
   -2.9356    4.6178  -19.4866 H   0  0  0  0  0  0  0  0  0  0  0  0
   -0.6570    5.6775  -18.6240 H   0  0  0  0  0  0  0  0  0  0  0  0
    0.2335    4.1996  -16.6424 H   0  0  0  0  0  0  0  0  0  0  0  0
   -0.8128    2.2551  -18.1011 H   0  0  0  0  0  0  0  0  0  0  0  0
   -1.3491    2.0400  -16.4193 H   0  0  0  0  0  0  0  0  0  0  0  0
   -1.7840    5.6907  -15.7438 H   0  0  0  0  0  0  0  0  0  0  0  0
    0.5886    2.7967   -8.7314 H   0  0  0  0  0  0  0  0  0  0  0  0
    2.1163    4.5882   -7.9643 H   0  0  0  0  0  0  0  0  0  0  0  0
    0.0671    8.8205   -6.7027 H   0  0  0  0  0  0  0  0  0  0  0  0
    0.1675    7.9322   -5.1464 H   0  0  0  0  0  0  0  0  0  0  0  0
    1.4396    9.0849   -5.6066 H   0  0  0  0  0  0  0  0  0  0  0  0
   -1.2592    6.9049   -6.7181 H   0  0  0  0  0  0  0  0  0  0  0  0
   -2.7538    5.1225   -7.4524 H   0  0  0  0  0  0  0  0  0  0  0  0
   -4.5139    1.7938   -8.2527 H   0  0  0  0  0  0  0  0  0  0  0  0
   -6.4439    2.3371   -9.6667 H   0  0  0  0  0  0  0  0  0  0  0  0
   -6.9968    4.9737  -13.9980 H   0  0  0  0  0  0  0  0  0  0  0  0
   -5.9513    5.9738  -12.9659 H   0  0  0  0  0  0  0  0  0  0  0  0
   -5.3185    4.4635  -13.7034 H   0  0  0  0  0  0  0  0  0  0  0  0
   -4.0748    5.1871  -11.8062 H   0  0  0  0  0  0  0  0  0  0  0  0
   -2.1596    4.6488  -10.3962 H   0  0  0  0  0  0  0  0  0  0  0  0
    1.2051   -1.8214   -7.0296 H   0  0  0  0  0  0  0  0  0  0  0  0
    1.4475   -3.7196   -8.5801 H   0  0  0  0  0  0  0  0  0  0  0  0
   -0.6809   -8.3715   -8.8997 H   0  0  0  0  0  0  0  0  0  0  0  0
   -0.5057   -7.9518   -7.1824 H   0  0  0  0  0  0  0  0  0  0  0  0
   -1.8077   -7.2077   -8.1686 H   0  0  0  0  0  0  0  0  0  0  0  0
   -1.3077   -5.9876   -6.2203 H   0  0  0  0  0  0  0  0  0  0  0  0
   -1.5670   -4.0983   -4.7059 H   0  0  0  0  0  0  0  0  0  0  0  0
   -2.0013   -0.4825   -3.2020 H   0  0  0  0  0  0  0  0  0  0  0  0
   -2.0315   -0.7183   -0.7804 H   0  0  0  0  0  0  0  0  0  0  0  0
   -1.4474   -1.3112    2.7670 H   0  0  0  0  0  0  0  0  0  0  0  0
   -1.3019   -0.2521    1.3479 H   0  0  0  0  0  0  0  0  0  0  0  0
   -2.5697   -1.5210    1.4046 H   0  0  0  0  0  0  0  0  0  0  0  0
    0.9070   -3.8126   -1.0426 H   0  0  0  0  0  0  0  0  0  0  0  0
    0.9502   -3.5577   -3.4926 H   0  0  0  0  0  0  0  0  0  0  0  0
   -0.6116    2.2347   -2.5283 H   0  0  0  0  0  0  0  0  0  0  0  0
   -1.3483    2.5916   -0.3539 H   0  0  0  0  0  0  0  0  0  0  0  0
   -0.8455    2.6630    1.3420 H   0  0  0  0  0  0  0  0  0  0  0  0
    0.9664    4.2564    0.7506 H   0  0  0  0  0  0  0  0  0  0  0  0
    0.4962    4.1823   -0.9487 H   0  0  0  0  0  0  0  0  0  0  0  0
   -0.6056    4.8817    0.2448 H   0  0  0  0  0  0  0  0  0  0  0  0
    3.4522   -2.2509    0.1432 H   0  0  0  0  0  0  0  0  0  0  0  0
    3.3588   -1.9133   -1.5905 H   0  0  0  0  0  0  0  0  0  0  0  0
    5.6875   -1.6365   -0.7507 H   0  0  0  0  0  0  0  0  0  0  0  0
    5.0445   -0.1039   -1.3464 H   0  0  0  0  0  0  0  0  0  0  0  0
    5.1388   -0.4036    0.3900 H   0  0  0  0  0  0  0  0  0  0  0  0
    3.3240   -1.3149    2.2488 H   0  0  0  0  0  0  0  0  0  0  0  0
    3.8989   -1.5798    4.6018 H   0  0  0  0  0  0  0  0  0  0  0  0
    4.4884   -4.7425    7.6934 H   0  0  0  0  0  0  0  0  0  0  0  0
    6.5673   -5.7591    6.9891 H   0  0  0  0  0  0  0  0  0  0  0  0
    9.9424   -6.6471    5.8296 H   0  0  0  0  0  0  0  0  0  0  0  0
    8.5686   -6.4890    6.9321 H   0  0  0  0  0  0  0  0  0  0  0  0
    8.4350   -7.0041    3.9049 H   0  0  0  0  0  0  0  0  0  0  0  0
    7.0148   -6.8089    4.9306 H   0  0  0  0  0  0  0  0  0  0  0  0
    8.0833   -8.1986    5.1591 H   0  0  0  0  0  0  0  0  0  0  0  0
    5.7628   -0.9809    6.0859 H   0  0  0  0  0  0  0  0  0  0  0  0
    1.1781    0.6886   10.5727 H   0  0  0  0  0  0  0  0  0  0  0  0
   -0.8077    1.6410   11.5953 H   0  0  0  0  0  0  0  0  0  0  0  0
   -4.2156    1.9970   12.9890 H   0  0  0  0  0  0  0  0  0  0  0  0
   -2.4932    2.3053   12.7333 H   0  0  0  0  0  0  0  0  0  0  0  0
   -2.8577    0.3162   14.2271 H   0  0  0  0  0  0  0  0  0  0  0  0
   -3.8102   -0.4601   12.9536 H   0  0  0  0  0  0  0  0  0  0  0  0
   -2.0785   -0.1933   12.7244 H   0  0  0  0  0  0  0  0  0  0  0  0
   -1.1926   -0.7885    7.3226 H   0  0  0  0  0  0  0  0  0  0  0  0
    0.9505   -1.6489   11.0737 H   0  0  0  0  0  0  0  0  0  0  0  0
    3.6835   -4.0615   12.5120 H   0  0  0  0  0  0  0  0  0  0  0  0
   -1.8558   -2.2039   14.8168 H   0  0  0  0  0  0  0  0  0  0  0  0
    1.3280   -5.3126   17.2351 H   0  0  0  0  0  0  0  0  0  0  0  0
   -1.2111   -4.3331   19.3240 H   0  0  0  0  0  0  0  0  0  0  0  0
   -1.9222   -6.6998   19.0246 H   0  0  0  0  0  0  0  0  0  0  0  0
   -1.8151   -7.1938   16.4594 H   0  0  0  0  0  0  0  0  0  0  0  0
   -3.5148   -5.5671   15.2269 H   0  0  0  0  0  0  0  0  0  0  0  0
   -4.6710   -4.0703   17.0336 H   0  0  0  0  0  0  0  0  0  0  0  0
   -4.4827   -6.2613   18.5080 H   0  0  0  0  0  0  0  0  0  0  0  0
   -3.8678   -4.8924   19.4679 H   0  0  0  0  0  0  0  0  0  0  0  0
   -2.8625   -2.7511   18.1263 H   0  0  0  0  0  0  0  0  0  0  0  0
  1  2  2  0  0  0  0
  2  3  1  0  0  0  0
  3  4  2  0  0  0  0
  3  5  1  0  0  0  0
  5  6  2  0  0  0  0
  6  7  1  0  0  0  0
  7  8  2  0  0  0  0
  8  9  1  0  0  0  0
  9 10  2  0  0  0  0
 10 11  1  0  0  0  0
 11 12  2  0  0  0  0
 12 13  1  0  0  0  0
 13 14  3  0  0  0  0
 12 15  1  0  0  0  0
 15 16  3  0  0  0  0
  8 17  1  0  0  0  0
 17 18  1  0  0  0  0
 18 19  1  0  0  0  0
 19 20  2  0  0  0  0
 20 21  1  0  0  0  0
 21 22  1  0  0  0  0
 21 23  1  0  0  0  0
  1 24  1  0  0  0  0
 24 25  2  0  0  0  0
 25 26  1  0  0  0  0
 26 27  1  0  0  0  0
 27 28  2  0  0  0  0
 28 29  1  0  0  0  0
 29 30  2  0  0  0  0
 30 31  1  0  0  0  0
 31 32  1  0  0  0  0
 30 33  1  0  0  0  0
 33 34  2  0  0  0  0
 26 35  1  0  0  0  0
 35 36  2  0  0  0  0
 36 37  1  0  0  0  0
 37 38  2  0  0  0  0
 38 39  1  0  0  0  0
 39 40  1  0  0  0  0
 38 41  1  0  0  0  0
 41 42  2  0  0  0  0
 25 43  1  0  0  0  0
 43 44  1  0  0  0  0
 44 45  1  0  0  0  0
 45 46  2  0  0  0  0
 46 47  1  0  0  0  0
 47 48  1  0  0  0  0
 48 49  2  0  0  0  0
 49 50  1  0  0  0  0
 50 51  2  0  0  0  0
 51 52  1  0  0  0  0
 52 53  1  0  0  0  0
 51 54  1  0  0  0  0
 54 55  2  0  0  0  0
 47 56  1  0  0  0  0
 56 57  2  0  0  0  0
 57 58  1  0  0  0  0
 58 59  2  0  0  0  0
 59 60  1  0  0  0  0
 60 61  1  0  0  0  0
 59 62  1  0  0  0  0
 62 63  2  0  0  0  0
 46 64  1  0  0  0  0
 64 65  1  0  0  0  0
 45 66  1  0  0  0  0
 66 67  2  0  0  0  0
 67 68  1  0  0  0  0
 68 69  2  0  0  0  0
 69 70  1  0  0  0  0
 70 71  1  0  0  0  0
 69 72  1  0  0  0  0
 72 73  2  0  0  0  0
 73 74  1  0  0  0  0
 74 75  1  0  0  0  0
 75 76  1  0  0  0  0
 74 77  2  0  0  0  0
 77 78  1  0  0  0  0
 73 79  1  0  0  0  0
 79 80  2  0  0  0  0
 80 81  1  0  0  0  0
 80 82  1  0  0  0  0
 82 83  2  0  0  0  0
 83 84  1  0  0  0  0
 84 85  2  0  0  0  0
 85 86  1  0  0  0  0
 86 87  2  0  0  0  0
 87 88  1  0  0  0  0
 88 89  2  0  0  0  0
 89 90  1  0  0  0  0
 90 91  1  0  0  0  0
 91 92  1  0  0  0  0
 89 93  1  0  0  0  0
 93 94  1  0  0  0  0
 93 95  2  0  0  0  0
 85 96  1  0  0  0  0
 96 97  2  0  0  0  0
 97 98  1  0  0  0  0
 98 99  1  0  0  0  0
 99100  2  0  0  0  0
100101  1  0  0  0  0
101102  2  0  0  0  0
102103  1  0  0  0  0
103104  1  0  0  0  0
104105  1  0  0  0  0
102106  1  0  0  0  0
106107  2  0  0  0  0
106108  1  0  0  0  0
 98109  2  0  0  0  0
109110  1  0  0  0  0
 97111  1  0  0  0  0
111112  2  0  0  0  0
112113  1  0  0  0  0
112114  1  0  0  0  0
114115  2  0  0  0  0
115116  1  0  0  0  0
116117  2  0  0  0  0
116118  1  0  0  0  0
118119  2  0  0  0  0
119120  1  0  0  0  0
120121  2  0  0  0  0
121122  1  0  0  0  0
122123  2  0  0  0  0
123124  1  0  0  0  0
124125  2  0  0  0  0
125126  1  0  0  0  0
126127  3  0  0  0  0
125128  1  0  0  0  0
128129  3  0  0  0  0
121130  1  0  0  0  0
130131  1  0  0  0  0
131132  1  0  0  0  0
132133  2  0  0  0  0
133134  1  0  0  0  0
134135  1  0  0  0  0
134136  1  0  0  0  0
 11  2  1  0  0  0  0
 23 17  1  0  0  0  0
 65 24  1  0  0  0  0
 78 66  1  0  0  0  0
110 82  1  0  0  0  0
124115  1  0  0  0  0
136130  1  0  0  0  0
 10  5  1  0  0  0  0
 22 18  1  0  0  0  0
 34 27  1  0  0  0  0
 42 35  1  0  0  0  0
 64 43  2  0  0  0  0
 77 68  1  0  0  0  0
109 84  1  0  0  0  0
123118  1  0  0  0  0
135131  1  0  0  0  0
 23  7  1  0  0  0  0
 55 48  1  0  0  0  0
 63 56  1  0  0  0  0
 81 72  1  0  0  0  0
 95 86  1  0  0  0  0
113 96  1  0  0  0  0
136120  1  0  0  0  0
107 99  1  0  0  0  0
  1137  1  0  0  0  0
  6138  1  0  0  0  0
  9139  1  0  0  0  0
 17140  1  0  0  0  0
 18141  1  0  0  0  0
 19142  1  0  0  0  0
 20143  1  0  0  0  0
 21144  1  0  0  0  0
 22145  1  0  0  0  0
 22146  1  0  0  0  0
 23147  1  0  0  0  0
 28148  1  0  0  0  0
 29149  1  0  0  0  0
 32150  1  0  0  0  0
 32151  1  0  0  0  0
 32152  1  0  0  0  0
 33153  1  0  0  0  0
 34154  1  0  0  0  0
 36155  1  0  0  0  0
 37156  1  0  0  0  0
 40157  1  0  0  0  0
 40158  1  0  0  0  0
 40159  1  0  0  0  0
 41160  1  0  0  0  0
 42161  1  0  0  0  0
 49162  1  0  0  0  0
 50163  1  0  0  0  0
 53164  1  0  0  0  0
 53165  1  0  0  0  0
 53166  1  0  0  0  0
 54167  1  0  0  0  0
 55168  1  0  0  0  0
 57169  1  0  0  0  0
 58170  1  0  0  0  0
 61171  1  0  0  0  0
 61172  1  0  0  0  0
 61173  1  0  0  0  0
 62174  1  0  0  0  0
 63175  1  0  0  0  0
 67176  1  0  0  0  0
 70177  1  0  0  0  0
 70178  1  0  0  0  0
 71179  1  0  0  0  0
 71180  1  0  0  0  0
 71181  1  0  0  0  0
 75182  1  0  0  0  0
 75183  1  0  0  0  0
 76184  1  0  0  0  0
 76185  1  0  0  0  0
 76186  1  0  0  0  0
 79187  1  0  0  0  0
 83188  1  0  0  0  0
 87189  1  0  0  0  0
 88190  1  0  0  0  0
 91191  1  0  0  0  0
 91192  1  0  0  0  0
 92193  1  0  0  0  0
 92194  1  0  0  0  0
 92195  1  0  0  0  0
 95196  1  0  0  0  0
100197  1  0  0  0  0
101198  1  0  0  0  0
104199  1  0  0  0  0
104200  1  0  0  0  0
105201  1  0  0  0  0
105202  1  0  0  0  0
105203  1  0  0  0  0
107204  1  0  0  0  0
111205  1  0  0  0  0
114206  1  0  0  0  0
119207  1  0  0  0  0
122208  1  0  0  0  0
130209  1  0  0  0  0
131210  1  0  0  0  0
132211  1  0  0  0  0
133212  1  0  0  0  0
134213  1  0  0  0  0
135214  1  0  0  0  0
135215  1  0  0  0  0
136216  1  0  0  0  0
M  END
