169

C         -6.04580       -1.33910       -4.66330
C         -7.34450       -1.16420       -4.32800
C         -8.42400       -1.73590       -5.18970
O         -8.30740       -2.12250       -6.32870
C         -9.62190       -1.77480       -4.33010
C        -10.85160       -2.36400       -4.61720
C        -11.76920       -2.27180       -3.59800
C        -11.48390       -1.65620       -2.37070
C        -10.27910       -1.06600       -2.07430
C         -9.33960       -1.13060       -3.10590
C         -7.98570       -0.59560       -3.16110
C         -7.50380        0.43280       -2.39690
C         -6.26260        1.06070       -2.62030
N         -5.27410        1.62650       -2.76540
C         -8.21780        1.03760       -1.34740
N         -8.74480        1.57610       -0.48000
C        -12.85520       -1.94630       -1.81540
C        -13.86850       -0.77670       -1.75880
C        -13.46740        0.18850       -2.84700
C        -13.73950       -0.38150       -4.01330
C        -14.32950       -1.74200       -3.73500
C        -15.07900       -1.44930       -2.42530
C        -13.17740       -2.62060       -3.18620
C         -4.88220       -1.20750       -3.83270
C         -3.63900       -0.95110       -4.38710
C         -2.49770       -0.80070       -3.60000
F         -1.35310       -0.48930       -4.23620
C         -2.48100       -0.92120       -2.22110
C         -3.71580       -1.28470       -1.63920
C         -4.91210       -1.41080       -2.42720
N         -5.95080       -1.79320       -1.68480
S         -5.46710       -1.97940       -0.16150
N         -3.92620       -1.59570       -0.36170
C         -1.27470       -0.70150       -1.44160
C         -1.00790        0.31770       -0.55290
N         -1.86160        1.37390       -0.23220
C         -3.03070        1.12660        0.49930
C         -3.02500        0.18580        1.52880
C         -4.17230       -0.05580        2.25070
C         -5.34840        0.62950        1.95430
S         -6.77590        0.20210        2.90400
C         -7.89500        1.61120        2.65830
C         -5.35830        1.56680        0.92890
C         -4.20450        1.81620        0.21110
C         -1.37630        2.66690       -0.42730
C         -1.76430        3.72120        0.39680
C         -1.24970        4.98940        0.21210
C         -0.32820        5.22830       -0.79760
S          0.41930        6.79920       -1.10640
C         -0.53070        7.94500       -0.06590
C          0.06280        4.17930       -1.62660
C         -0.45740        2.91870       -1.45050
C          0.33100        0.24800       -0.08960
S          1.26690        1.21930        0.98500
C          2.64160        0.17590        0.73620
C          2.39180       -0.86120       -0.13260
N          3.35450       -1.78700       -0.51120
C          4.65650       -1.29660       -0.74340
C          4.84950       -0.28310       -1.67960
C          6.10110        0.26580       -1.85860
C          7.18100       -0.18520       -1.10250
S          8.73010        0.62150       -1.37360
C          9.76390        0.06400        0.00810
C          7.00030       -1.22900       -0.20610
C          5.74730       -1.78200       -0.03160
C          3.05160       -3.13690       -0.63280
C          3.83610       -3.96380       -1.43520
C          3.54140       -5.30630       -1.56930
C          2.44290       -5.84750       -0.91640
S          1.96640       -7.54730       -1.01750
C          3.00590       -8.20970       -2.35070
C          1.66030       -5.02830       -0.10650
C          1.96260       -3.69390        0.04340
C          1.05630       -0.80870       -0.60780
S          0.10450       -1.75080       -1.69790
C          3.89300        0.43520        1.45040
C          4.17420       -0.33980        2.59100
S          3.08770       -1.66510        2.96650
C          4.22650       -2.99240        3.53540
C          3.87600       -4.29680        2.84730
C          5.25440       -0.01080        3.41290
S          5.36190       -0.64760        5.06940
C          5.28200        0.91100        6.02430
C          4.02180        1.69660        5.72550
C          6.21410        0.88690        2.94860
C          5.99770        1.56650        1.74300
C          4.78990        1.42250        1.03900
C          4.50270        2.24990       -0.15740
O          3.43750        2.23120       -0.74390
C          5.61130        3.11200       -0.57960
C          6.86930        3.16550        0.09250
C          7.12440        2.37350        1.27980
O          8.19840        2.33720        1.87600
C          7.74770        4.02040       -0.51610
S          7.06500        4.76440       -1.89420
C          5.58370        3.93360       -1.67060
C          7.44200        1.15860        3.68960
C          8.35300        0.19900        3.99090
C          8.34380       -1.16270        3.40850
O          7.46800       -1.68970        2.75290
C          9.64500       -1.75320        3.77540
C         10.16050       -2.99090        3.44040
C         11.42760       -3.32590        3.89040
C         12.14670       -2.42180        4.66040
I         14.07850       -2.95670        5.32450
C         11.64200       -1.17760        5.01030
C         10.37400       -0.84270        4.56140
C          9.57020        0.35840        4.76690
C          9.87380        1.39940        5.60080
C          8.99480        2.46690        5.87920
N          8.29880        3.33090        6.17570
C         11.07460        1.50700        6.33340
N         12.03260        1.64430        6.95010
H         -5.86850       -1.68690       -5.67600
H        -11.03030       -2.84180       -5.56770
H        -10.06180       -0.60620       -1.12410
H        -12.88540       -2.56740       -0.92250
H        -14.01260       -0.35170       -0.76920
H        -12.98890        1.13250       -2.66300
H        -13.53410       -0.00830       -4.99950
H        -14.89510       -2.19480       -4.54500
H        -15.41620       -2.34660       -1.90820
H        -15.91650       -0.76730       -2.56300
H        -13.42740       -3.67970       -3.18890
H         -3.54090       -0.80650       -5.45210
H         -2.11610       -0.34850        1.75840
H         -4.17330       -0.77850        3.05190
H         -8.29320        1.60970        1.64720
H         -8.70040        1.47230        3.37280
H         -7.36200        2.53260        2.87250
H         -6.26070        2.09850        0.67240
H         -4.21570        2.53460       -0.59430
H         -2.46190        3.54440        1.20160
H         -1.56590        5.77720        0.87700
H         -0.17610        8.93820       -0.32280
H         -1.58810        7.85800       -0.29670
H         -0.33780        7.74660        0.98460
H          0.77690        4.36720       -2.41310
H         -0.15420        2.12160       -2.11150
H          4.00900        0.08040       -2.25110
H          6.25790        1.04550       -2.58830
H          9.95050       -1.00360       -0.06380
H          9.28590        0.32340        0.94850
H         10.69810        0.60840       -0.09030
H          7.81830       -1.61290        0.37940
H          5.61740       -2.58440        0.67780
H          4.68350       -3.54910       -1.96060
H          4.17490       -5.91520       -2.19400
H          2.87000       -7.61670       -3.25020
H          4.04740       -8.22810       -2.04280
H          2.65560       -9.22320       -2.51870
H          0.81630       -5.45570        0.41240
H          1.36920       -3.08100        0.70360
H          5.23800       -2.67140        3.29210
H          4.12020       -3.08050        4.61510
H          4.53180       -5.08360        3.21400
H          2.84660       -4.57850        3.05580
H          3.99400       -4.21770        1.76930
H          5.29670        0.56950        7.05920
H          6.18120        1.49510        5.83230
H          3.13980        1.08320        5.89530
H          3.97480        2.56710        6.37600
H          4.01030        2.03800        4.69160
H          8.75380        4.23690       -0.21590
H          4.76390        4.08140       -2.34550
H          7.56380        2.16330        4.07420
H          9.58210       -3.67800        2.84190
H         11.85500       -4.28540        3.64370
H         12.22800       -0.49910        5.60860
