
  xtb     02092210253D
 energy: -425.834822660632 gnorm: 0.000371804813 xtb: 6.4.1 (unknown)
260283  0     0  0            999 V2000
   -5.6040    1.9723    3.9907 C   0  0  0  0  0  0  0  0  0  0  0  0
   -4.6614    2.1931    4.9692 C   0  0  0  0  0  0  0  0  0  0  0  0
   -3.2108    2.0998    4.7198 C   0  0  0  0  0  0  0  0  0  0  0  0
   -2.6580    1.7726    3.6874 O   0  0  0  0  0  0  0  0  0  0  0  0
   -2.5607    2.5933    5.9486 C   0  0  0  0  0  0  0  0  0  0  0  0
   -1.1937    2.6675    6.1946 C   0  0  0  0  0  0  0  0  0  0  0  0
   -0.8819    3.0742    7.4706 C   0  0  0  0  0  0  0  0  0  0  0  0
   -1.8556    3.4112    8.4187 C   0  0  0  0  0  0  0  0  0  0  0  0
   -3.2088    3.3732    8.1753 C   0  0  0  0  0  0  0  0  0  0  0  0
   -3.5470    2.9411    6.8919 C   0  0  0  0  0  0  0  0  0  0  0  0
   -4.8596    2.7042    6.2954 C   0  0  0  0  0  0  0  0  0  0  0  0
   -6.0692    2.7986    6.9403 C   0  0  0  0  0  0  0  0  0  0  0  0
   -6.2447    3.2474    8.2619 C   0  0  0  0  0  0  0  0  0  0  0  0
   -6.4739    3.5939    9.3335 N   0  0  0  0  0  0  0  0  0  0  0  0
   -7.2897    2.3778    6.3785 C   0  0  0  0  0  0  0  0  0  0  0  0
   -8.3146    2.0048    6.0153 N   0  0  0  0  0  0  0  0  0  0  0  0
   -0.8303    3.6969    9.4877 C   0  0  0  0  0  0  0  0  0  0  0  0
   -0.6300    2.6280   10.5904 C   0  0  0  0  0  0  0  0  0  0  0  0
   -1.0308    1.3057    9.9849 C   0  0  0  0  0  0  0  0  0  0  0  0
   -0.1092    0.9782    9.0886 C   0  0  0  0  0  0  0  0  0  0  0  0
    0.9285    2.0734    9.0704 C   0  0  0  0  0  0  0  0  0  0  0  0
    0.9008    2.4942   10.5483 C   0  0  0  0  0  0  0  0  0  0  0  0
    0.2547    3.3141    8.4322 C   0  0  0  0  0  0  0  0  0  0  0  0
   -5.3906    1.1683    2.8626 C   0  0  0  0  0  0  0  0  0  0  0  0
   -4.5550    0.0500    2.6747 C   0  0  0  0  0  0  0  0  0  0  0  0
   -3.8660   -0.6447    3.6303 N   0  0  0  0  0  0  0  0  0  0  0  0
   -2.7072   -1.3783    3.2842 C   0  0  0  0  0  0  0  0  0  0  0  0
   -2.5385   -2.6612    3.7939 C   0  0  0  0  0  0  0  0  0  0  0  0
   -1.3964   -3.3859    3.5117 C   0  0  0  0  0  0  0  0  0  0  0  0
   -0.4103   -2.8391    2.6985 C   0  0  0  0  0  0  0  0  0  0  0  0
    1.0918   -3.6682    2.2776 S   0  0  0  0  0  0  0  0  0  0  0  0
    0.8814   -5.3374    2.9606 C   0  0  0  0  0  0  0  0  0  0  0  0
   -0.5806   -1.5549    2.1817 C   0  0  0  0  0  0  0  0  0  0  0  0
   -1.7104   -0.8255    2.4815 C   0  0  0  0  0  0  0  0  0  0  0  0
   -4.1830   -0.5840    4.9937 C   0  0  0  0  0  0  0  0  0  0  0  0
   -3.1572   -0.4727    5.9351 C   0  0  0  0  0  0  0  0  0  0  0  0
   -3.4503   -0.3502    7.2739 C   0  0  0  0  0  0  0  0  0  0  0  0
   -4.7743   -0.3469    7.7101 C   0  0  0  0  0  0  0  0  0  0  0  0
   -5.0279   -0.0966    9.4337 S   0  0  0  0  0  0  0  0  0  0  0  0
   -6.8304   -0.0923    9.6267 C   0  0  0  0  0  0  0  0  0  0  0  0
   -5.7966   -0.5224    6.7830 C   0  0  0  0  0  0  0  0  0  0  0  0
   -5.5014   -0.6356    5.4395 C   0  0  0  0  0  0  0  0  0  0  0  0
   -4.5413   -0.3187    1.3116 C   0  0  0  0  0  0  0  0  0  0  0  0
   -3.6878   -1.5313    0.4255 S   0  0  0  0  0  0  0  0  0  0  0  0
   -4.2180   -0.8099   -1.0958 C   0  0  0  0  0  0  0  0  0  0  0  0
   -5.1381    0.2080   -0.9138 C   0  0  0  0  0  0  0  0  0  0  0  0
   -5.8003    0.8866   -1.9184 N   0  0  0  0  0  0  0  0  0  0  0  0
   -6.1233    2.2373   -1.6839 C   0  0  0  0  0  0  0  0  0  0  0  0
   -7.3952    2.7274   -1.9586 C   0  0  0  0  0  0  0  0  0  0  0  0
   -7.7063    4.0521   -1.7217 C   0  0  0  0  0  0  0  0  0  0  0  0
   -6.7487    4.9072   -1.1926 C   0  0  0  0  0  0  0  0  0  0  0  0
   -7.0250    6.6181   -0.8587 S   0  0  0  0  0  0  0  0  0  0  0  0
   -8.8052    6.8384   -1.1394 C   0  0  0  0  0  0  0  0  0  0  0  0
   -5.4773    4.4164   -0.9037 C   0  0  0  0  0  0  0  0  0  0  0  0
   -5.1660    3.0973   -1.1458 C   0  0  0  0  0  0  0  0  0  0  0  0
   -6.1805    0.2585   -3.1082 C   0  0  0  0  0  0  0  0  0  0  0  0
   -6.4347    1.0160   -4.2535 C   0  0  0  0  0  0  0  0  0  0  0  0
   -6.8182    0.4083   -5.4270 C   0  0  0  0  0  0  0  0  0  0  0  0
   -6.9450   -0.9764   -5.5004 C   0  0  0  0  0  0  0  0  0  0  0  0
   -7.3958   -1.6495   -7.0706 S   0  0  0  0  0  0  0  0  0  0  0  0
   -7.7338   -3.3976   -6.7102 C   0  0  0  0  0  0  0  0  0  0  0  0
   -6.7006   -1.7367   -4.3664 C   0  0  0  0  0  0  0  0  0  0  0  0
   -6.3344   -1.1240   -3.1840 C   0  0  0  0  0  0  0  0  0  0  0  0
   -5.3185    0.4693    0.4723 C   0  0  0  0  0  0  0  0  0  0  0  0
   -6.2289    1.6266    1.3713 S   0  0  0  0  0  0  0  0  0  0  0  0
   -3.3163   -1.0985   -2.1739 C   0  0  0  0  0  0  0  0  0  0  0  0
   -2.4840   -0.1690   -2.7635 C   0  0  0  0  0  0  0  0  0  0  0  0
   -2.7026    1.2219   -2.8262 N   0  0  0  0  0  0  0  0  0  0  0  0
   -3.2241    1.7383   -4.0141 C   0  0  0  0  0  0  0  0  0  0  0  0
   -3.5776    3.0838   -4.0974 C   0  0  0  0  0  0  0  0  0  0  0  0
   -4.0907    3.6095   -5.2654 C   0  0  0  0  0  0  0  0  0  0  0  0
   -4.2681    2.7973   -6.3762 C   0  0  0  0  0  0  0  0  0  0  0  0
   -4.8994    3.3724   -7.9267 S   0  0  0  0  0  0  0  0  0  0  0  0
   -4.7252    5.1765   -7.8043 C   0  0  0  0  0  0  0  0  0  0  0  0
   -3.9582    1.4448   -6.2875 C   0  0  0  0  0  0  0  0  0  0  0  0
   -3.4396    0.9213   -5.1242 C   0  0  0  0  0  0  0  0  0  0  0  0
   -1.7535    1.9517   -2.0720 C   0  0  0  0  0  0  0  0  0  0  0  0
   -0.9254    2.9146   -2.6388 C   0  0  0  0  0  0  0  0  0  0  0  0
    0.0305    3.5555   -1.8736 C   0  0  0  0  0  0  0  0  0  0  0  0
    0.1849    3.2333   -0.5324 C   0  0  0  0  0  0  0  0  0  0  0  0
    1.3860    3.9717    0.5314 S   0  0  0  0  0  0  0  0  0  0  0  0
    2.4494    4.9140   -0.5996 C   0  0  0  0  0  0  0  0  0  0  0  0
   -0.6416    2.2696    0.0414 C   0  0  0  0  0  0  0  0  0  0  0  0
   -1.5979    1.6372   -0.7211 C   0  0  0  0  0  0  0  0  0  0  0  0
   -1.2494   -0.7504   -3.1275 C   0  0  0  0  0  0  0  0  0  0  0  0
    0.2605   -0.0321   -3.5331 S   0  0  0  0  0  0  0  0  0  0  0  0
    1.0692   -1.5661   -3.2608 C   0  0  0  0  0  0  0  0  0  0  0  0
    0.1863   -2.5896   -2.9717 C   0  0  0  0  0  0  0  0  0  0  0  0
    0.5914   -3.9069   -2.8044 N   0  0  0  0  0  0  0  0  0  0  0  0
    1.4894   -4.4600   -3.7289 C   0  0  0  0  0  0  0  0  0  0  0  0
    1.4489   -4.0860   -5.0697 C   0  0  0  0  0  0  0  0  0  0  0  0
    2.2766   -4.6841   -5.9988 C   0  0  0  0  0  0  0  0  0  0  0  0
    3.1583   -5.6797   -5.6036 C   0  0  0  0  0  0  0  0  0  0  0  0
    4.2087   -6.5625   -6.7134 S   0  0  0  0  0  0  0  0  0  0  0  0
    3.7811   -5.9091   -8.3498 C   0  0  0  0  0  0  0  0  0  0  0  0
    3.2349   -6.0276   -4.2564 C   0  0  0  0  0  0  0  0  0  0  0  0
    2.4171   -5.4215   -3.3281 C   0  0  0  0  0  0  0  0  0  0  0  0
   -0.0713   -4.7054   -1.8674 C   0  0  0  0  0  0  0  0  0  0  0  0
   -0.3101   -6.0574   -2.1042 C   0  0  0  0  0  0  0  0  0  0  0  0
   -0.9919   -6.8283   -1.1829 C   0  0  0  0  0  0  0  0  0  0  0  0
   -1.4883   -6.2474   -0.0251 C   0  0  0  0  0  0  0  0  0  0  0  0
   -2.3629   -7.1286    1.2373 S   0  0  0  0  0  0  0  0  0  0  0  0
   -2.7444   -8.7258    0.4664 C   0  0  0  0  0  0  0  0  0  0  0  0
   -1.2724   -4.8931    0.2066 C   0  0  0  0  0  0  0  0  0  0  0  0
   -0.5468   -4.1363   -0.6850 C   0  0  0  0  0  0  0  0  0  0  0  0
   -1.1434   -2.1083   -2.8771 C   0  0  0  0  0  0  0  0  0  0  0  0
   -2.6434   -2.7249   -2.2618 S   0  0  0  0  0  0  0  0  0  0  0  0
    2.4874   -1.5818   -2.9904 C   0  0  0  0  0  0  0  0  0  0  0  0
    3.5809   -1.4064   -3.8068 C   0  0  0  0  0  0  0  0  0  0  0  0
    3.5013   -1.2677   -5.1892 N   0  0  0  0  0  0  0  0  0  0  0  0
    2.6084   -0.2912   -5.6709 C   0  0  0  0  0  0  0  0  0  0  0  0
    1.6793   -0.5785   -6.6643 C   0  0  0  0  0  0  0  0  0  0  0  0
    0.7512    0.3689   -7.0542 C   0  0  0  0  0  0  0  0  0  0  0  0
    0.7474    1.6266   -6.4639 C   0  0  0  0  0  0  0  0  0  0  0  0
   -0.4401    2.8832   -6.8202 S   0  0  0  0  0  0  0  0  0  0  0  0
   -1.2767    2.2805   -8.3114 C   0  0  0  0  0  0  0  0  0  0  0  0
    1.7107    1.9351   -5.5056 C   0  0  0  0  0  0  0  0  0  0  0  0
    2.6270    0.9864   -5.1094 C   0  0  0  0  0  0  0  0  0  0  0  0
    4.3698   -1.9676   -6.0188 C   0  0  0  0  0  0  0  0  0  0  0  0
    4.6204   -1.5406   -7.3244 C   0  0  0  0  0  0  0  0  0  0  0  0
    5.4803   -2.2476   -8.1350 C   0  0  0  0  0  0  0  0  0  0  0  0
    6.1367   -3.3811   -7.6598 C   0  0  0  0  0  0  0  0  0  0  0  0
    7.2035   -4.2171   -8.7965 S   0  0  0  0  0  0  0  0  0  0  0  0
    7.8261   -5.6314   -7.8449 C   0  0  0  0  0  0  0  0  0  0  0  0
    5.9101   -3.7970   -6.3561 C   0  0  0  0  0  0  0  0  0  0  0  0
    5.0198   -3.1103   -5.5552 C   0  0  0  0  0  0  0  0  0  0  0  0
    4.7798   -1.3627   -3.0482 C   0  0  0  0  0  0  0  0  0  0  0  0
    6.4490   -1.2280   -3.4563 S   0  0  0  0  0  0  0  0  0  0  0  0
    6.8911   -1.1788   -1.7436 C   0  0  0  0  0  0  0  0  0  0  0  0
    5.7801   -1.3399   -0.9072 C   0  0  0  0  0  0  0  0  0  0  0  0
    5.7883   -1.4834    0.4585 N   0  0  0  0  0  0  0  0  0  0  0  0
    4.6983   -1.0037    1.2148 C   0  0  0  0  0  0  0  0  0  0  0  0
    4.0927    0.2128    0.9015 C   0  0  0  0  0  0  0  0  0  0  0  0
    3.0637    0.6953    1.6790 C   0  0  0  0  0  0  0  0  0  0  0  0
    2.6251   -0.0177    2.7942 C   0  0  0  0  0  0  0  0  0  0  0  0
    1.3324    0.7219    3.7420 S   0  0  0  0  0  0  0  0  0  0  0  0
    1.0983   -0.4179    5.1357 C   0  0  0  0  0  0  0  0  0  0  0  0
    3.2202   -1.2327    3.1039 C   0  0  0  0  0  0  0  0  0  0  0  0
    4.2410   -1.7239    2.3131 C   0  0  0  0  0  0  0  0  0  0  0  0
    6.8801   -2.0447    1.1256 C   0  0  0  0  0  0  0  0  0  0  0  0
    7.2710   -1.5626    2.3767 C   0  0  0  0  0  0  0  0  0  0  0  0
    8.3925   -2.0635    3.0002 C   0  0  0  0  0  0  0  0  0  0  0  0
    9.1611   -3.0484    2.3865 C   0  0  0  0  0  0  0  0  0  0  0  0
   10.6248   -3.5721    3.2175 S   0  0  0  0  0  0  0  0  0  0  0  0
   11.6638   -4.1579    1.8475 C   0  0  0  0  0  0  0  0  0  0  0  0
    8.7417   -3.5784    1.1715 C   0  0  0  0  0  0  0  0  0  0  0  0
    7.6121   -3.0848    0.5539 C   0  0  0  0  0  0  0  0  0  0  0  0
    4.5919   -1.4370   -1.6782 C   0  0  0  0  0  0  0  0  0  0  0  0
    2.9235   -1.6465   -1.2818 S   0  0  0  0  0  0  0  0  0  0  0  0
    8.2699   -1.0437   -1.4701 C   0  0  0  0  0  0  0  0  0  0  0  0
    8.8445   -0.4788   -0.3725 C   0  0  0  0  0  0  0  0  0  0  0  0
   10.5553   -0.6440   -0.0251 S   0  0  0  0  0  0  0  0  0  0  0  0
   10.4463    0.4950    1.3526 C   0  0  0  0  0  0  0  0  0  0  0  0
   11.3759    0.8048    2.0395 O   0  0  0  0  0  0  0  0  0  0  0  0
    9.1650    0.9428    1.4504 N   0  0  0  0  0  0  0  0  0  0  0  0
    8.8256    1.9912    2.4001 C   0  0  0  0  0  0  0  0  0  0  0  0
    8.8600    1.5080    3.8428 C   0  0  0  0  0  0  0  0  0  0  0  0
    8.2219    0.4507    0.5534 C   0  0  0  0  0  0  0  0  0  0  0  0
    7.0792    0.8581    0.5104 O   0  0  0  0  0  0  0  0  0  0  0  0
   -6.5541    2.4907    4.0399 H   0  0  0  0  0  0  0  0  0  0  0  0
   -0.4763    2.4102    5.4299 H   0  0  0  0  0  0  0  0  0  0  0  0
   -3.9475    3.6436    8.9116 H   0  0  0  0  0  0  0  0  0  0  0  0
   -0.8203    4.7099    9.8848 H   0  0  0  0  0  0  0  0  0  0  0  0
   -1.0861    2.8733   11.5455 H   0  0  0  0  0  0  0  0  0  0  0  0
   -1.9446    0.7929   10.2252 H   0  0  0  0  0  0  0  0  0  0  0  0
   -0.0922    0.1285    8.4297 H   0  0  0  0  0  0  0  0  0  0  0  0
    1.8929    1.8139    8.6411 H   0  0  0  0  0  0  0  0  0  0  0  0
    1.4234    3.4299   10.7425 H   0  0  0  0  0  0  0  0  0  0  0  0
    1.2747    1.7187   11.2153 H   0  0  0  0  0  0  0  0  0  0  0  0
    0.9774    4.0743    8.1421 H   0  0  0  0  0  0  0  0  0  0  0  0
   -3.3044   -3.0929    4.4214 H   0  0  0  0  0  0  0  0  0  0  0  0
   -1.2943   -4.3773    3.9225 H   0  0  0  0  0  0  0  0  0  0  0  0
    1.7633   -5.8881    2.6481 H   0  0  0  0  0  0  0  0  0  0  0  0
    0.8395   -5.2986    4.0453 H   0  0  0  0  0  0  0  0  0  0  0  0
   -0.0088   -5.8004    2.5453 H   0  0  0  0  0  0  0  0  0  0  0  0
    0.1935   -1.1312    1.5594 H   0  0  0  0  0  0  0  0  0  0  0  0
   -1.8170    0.1883    2.1324 H   0  0  0  0  0  0  0  0  0  0  0  0
   -2.1313   -0.4584    5.6007 H   0  0  0  0  0  0  0  0  0  0  0  0
   -2.6589   -0.2289    7.9969 H   0  0  0  0  0  0  0  0  0  0  0  0
   -7.0077    0.1060   10.6791 H   0  0  0  0  0  0  0  0  0  0  0  0
   -7.2700    0.7010    9.0293 H   0  0  0  0  0  0  0  0  0  0  0  0
   -7.2354   -1.0638    9.3585 H   0  0  0  0  0  0  0  0  0  0  0  0
   -6.8289   -0.5594    7.0906 H   0  0  0  0  0  0  0  0  0  0  0  0
   -6.3059   -0.7539    4.7293 H   0  0  0  0  0  0  0  0  0  0  0  0
   -8.1477    2.0646   -2.3596 H   0  0  0  0  0  0  0  0  0  0  0  0
   -8.7012    4.3998   -1.9474 H   0  0  0  0  0  0  0  0  0  0  0  0
   -9.0180    7.8670   -0.8658 H   0  0  0  0  0  0  0  0  0  0  0  0
   -9.3646    6.1625   -0.4997 H   0  0  0  0  0  0  0  0  0  0  0  0
   -9.0434    6.6807   -2.1874 H   0  0  0  0  0  0  0  0  0  0  0  0
   -4.7371    5.0830   -0.4879 H   0  0  0  0  0  0  0  0  0  0  0  0
   -4.1787    2.7254   -0.9167 H   0  0  0  0  0  0  0  0  0  0  0  0
   -6.3187    2.0877   -4.2246 H   0  0  0  0  0  0  0  0  0  0  0  0
   -7.0101    1.0022   -6.3072 H   0  0  0  0  0  0  0  0  0  0  0  0
   -8.4872   -3.4732   -5.9317 H   0  0  0  0  0  0  0  0  0  0  0  0
   -8.1145   -3.8188   -7.6354 H   0  0  0  0  0  0  0  0  0  0  0  0
   -6.8180   -3.9070   -6.4241 H   0  0  0  0  0  0  0  0  0  0  0  0
   -6.7951   -2.8107   -4.3818 H   0  0  0  0  0  0  0  0  0  0  0  0
   -6.1757   -1.7379   -2.3106 H   0  0  0  0  0  0  0  0  0  0  0  0
   -3.4523    3.7246   -3.2384 H   0  0  0  0  0  0  0  0  0  0  0  0
   -4.3538    4.6548   -5.2907 H   0  0  0  0  0  0  0  0  0  0  0  0
   -5.4600    5.5805   -7.1138 H   0  0  0  0  0  0  0  0  0  0  0  0
   -4.9120    5.5602   -8.8026 H   0  0  0  0  0  0  0  0  0  0  0  0
   -3.7150    5.4238   -7.4913 H   0  0  0  0  0  0  0  0  0  0  0  0
   -4.1304    0.8072   -7.1419 H   0  0  0  0  0  0  0  0  0  0  0  0
   -3.1980   -0.1301   -5.0777 H   0  0  0  0  0  0  0  0  0  0  0  0
   -1.0110    3.1495   -3.6894 H   0  0  0  0  0  0  0  0  0  0  0  0
    0.6570    4.2954   -2.3451 H   0  0  0  0  0  0  0  0  0  0  0  0
    3.2660    5.2869    0.0108 H   0  0  0  0  0  0  0  0  0  0  0  0
    1.9000    5.7480   -1.0268 H   0  0  0  0  0  0  0  0  0  0  0  0
    2.8362    4.2572   -1.3731 H   0  0  0  0  0  0  0  0  0  0  0  0
   -0.5227    2.0280    1.0869 H   0  0  0  0  0  0  0  0  0  0  0  0
   -2.2245    0.8799   -0.2752 H   0  0  0  0  0  0  0  0  0  0  0  0
    0.7461   -3.3315   -5.3911 H   0  0  0  0  0  0  0  0  0  0  0  0
    2.2118   -4.3772   -7.0303 H   0  0  0  0  0  0  0  0  0  0  0  0
    4.0127   -4.8485   -8.3983 H   0  0  0  0  0  0  0  0  0  0  0  0
    4.4031   -6.4519   -9.0550 H   0  0  0  0  0  0  0  0  0  0  0  0
    2.7328   -6.1003   -8.5602 H   0  0  0  0  0  0  0  0  0  0  0  0
    3.9415   -6.7837   -3.9494 H   0  0  0  0  0  0  0  0  0  0  0  0
    2.4781   -5.6979   -2.2861 H   0  0  0  0  0  0  0  0  0  0  0  0
    0.0384   -6.5124   -3.0193 H   0  0  0  0  0  0  0  0  0  0  0  0
   -1.1422   -7.8754   -1.3918 H   0  0  0  0  0  0  0  0  0  0  0  0
   -3.3915   -9.2444    1.1670 H   0  0  0  0  0  0  0  0  0  0  0  0
   -3.2675   -8.5615   -0.4710 H   0  0  0  0  0  0  0  0  0  0  0  0
   -1.8332   -9.2978    0.3158 H   0  0  0  0  0  0  0  0  0  0  0  0
   -1.6828   -4.4372    1.0940 H   0  0  0  0  0  0  0  0  0  0  0  0
   -0.3459   -3.0991   -0.4649 H   0  0  0  0  0  0  0  0  0  0  0  0
    1.6722   -1.5585   -7.1182 H   0  0  0  0  0  0  0  0  0  0  0  0
    0.0237    0.1074   -7.8059 H   0  0  0  0  0  0  0  0  0  0  0  0
   -1.8542    1.3911   -8.0795 H   0  0  0  0  0  0  0  0  0  0  0  0
   -1.9495    3.0750   -8.6178 H   0  0  0  0  0  0  0  0  0  0  0  0
   -0.5437    2.0928   -9.0904 H   0  0  0  0  0  0  0  0  0  0  0  0
    1.7176    2.9205   -5.0663 H   0  0  0  0  0  0  0  0  0  0  0  0
    3.3611    1.2226   -4.3534 H   0  0  0  0  0  0  0  0  0  0  0  0
    4.1419   -0.6487   -7.6992 H   0  0  0  0  0  0  0  0  0  0  0  0
    5.6638   -1.9211   -9.1475 H   0  0  0  0  0  0  0  0  0  0  0  0
    8.4573   -6.1883   -8.5305 H   0  0  0  0  0  0  0  0  0  0  0  0
    6.9979   -6.2522   -7.5148 H   0  0  0  0  0  0  0  0  0  0  0  0
    8.4162   -5.2794   -7.0037 H   0  0  0  0  0  0  0  0  0  0  0  0
    6.4030   -4.6652   -5.9519 H   0  0  0  0  0  0  0  0  0  0  0  0
    4.8201   -3.4779   -4.5605 H   0  0  0  0  0  0  0  0  0  0  0  0
    4.4657    0.7909    0.0712 H   0  0  0  0  0  0  0  0  0  0  0  0
    2.6005    1.6422    1.4470 H   0  0  0  0  0  0  0  0  0  0  0  0
    0.7441   -1.3793    4.7742 H   0  0  0  0  0  0  0  0  0  0  0  0
    2.0253   -0.5190    5.6926 H   0  0  0  0  0  0  0  0  0  0  0  0
    0.3412    0.0419    5.7644 H   0  0  0  0  0  0  0  0  0  0  0  0
    2.8981   -1.8133    3.9520 H   0  0  0  0  0  0  0  0  0  0  0  0
    4.6932   -2.6738    2.5576 H   0  0  0  0  0  0  0  0  0  0  0  0
    6.6939   -0.7759    2.8384 H   0  0  0  0  0  0  0  0  0  0  0  0
    8.7059   -1.6811    3.9594 H   0  0  0  0  0  0  0  0  0  0  0  0
   12.6708   -4.2227    2.2472 H   0  0  0  0  0  0  0  0  0  0  0  0
   11.6290   -3.4319    1.0405 H   0  0  0  0  0  0  0  0  0  0  0  0
   11.3382   -5.1388    1.5135 H   0  0  0  0  0  0  0  0  0  0  0  0
    9.2911   -4.3772    0.7001 H   0  0  0  0  0  0  0  0  0  0  0  0
    7.2949   -3.5075   -0.3877 H   0  0  0  0  0  0  0  0  0  0  0  0
    8.9389   -1.4247   -2.2329 H   0  0  0  0  0  0  0  0  0  0  0  0
    7.8237    2.3295    2.1232 H   0  0  0  0  0  0  0  0  0  0  0  0
    9.5412    2.8080    2.2679 H   0  0  0  0  0  0  0  0  0  0  0  0
    8.1138    0.7364    4.0091 H   0  0  0  0  0  0  0  0  0  0  0  0
    9.8440    1.1120    4.0805 H   0  0  0  0  0  0  0  0  0  0  0  0
    8.6509    2.3442    4.5045 H   0  0  0  0  0  0  0  0  0  0  0  0
  1  2  2  0  0  0  0
  2  3  1  0  0  0  0
  3  4  2  0  0  0  0
  3  5  1  0  0  0  0
  5  6  2  0  0  0  0
  6  7  1  0  0  0  0
  7  8  2  0  0  0  0
  8  9  1  0  0  0  0
  9 10  2  0  0  0  0
 10 11  1  0  0  0  0
 11 12  2  0  0  0  0
 12 13  1  0  0  0  0
 13 14  3  0  0  0  0
 12 15  1  0  0  0  0
 15 16  3  0  0  0  0
  8 17  1  0  0  0  0
 17 18  1  0  0  0  0
 18 19  1  0  0  0  0
 19 20  2  0  0  0  0
 20 21  1  0  0  0  0
 21 22  1  0  0  0  0
 21 23  1  0  0  0  0
  1 24  1  0  0  0  0
 24 25  2  0  0  0  0
 25 26  1  0  0  0  0
 26 27  1  0  0  0  0
 27 28  2  0  0  0  0
 28 29  1  0  0  0  0
 29 30  2  0  0  0  0
 30 31  1  0  0  0  0
 31 32  1  0  0  0  0
 30 33  1  0  0  0  0
 33 34  2  0  0  0  0
 26 35  1  0  0  0  0
 35 36  2  0  0  0  0
 36 37  1  0  0  0  0
 37 38  2  0  0  0  0
 38 39  1  0  0  0  0
 39 40  1  0  0  0  0
 38 41  1  0  0  0  0
 41 42  2  0  0  0  0
 25 43  1  0  0  0  0
 43 44  1  0  0  0  0
 44 45  1  0  0  0  0
 45 46  2  0  0  0  0
 46 47  1  0  0  0  0
 47 48  1  0  0  0  0
 48 49  2  0  0  0  0
 49 50  1  0  0  0  0
 50 51  2  0  0  0  0
 51 52  1  0  0  0  0
 52 53  1  0  0  0  0
 51 54  1  0  0  0  0
 54 55  2  0  0  0  0
 47 56  1  0  0  0  0
 56 57  2  0  0  0  0
 57 58  1  0  0  0  0
 58 59  2  0  0  0  0
 59 60  1  0  0  0  0
 60 61  1  0  0  0  0
 59 62  1  0  0  0  0
 62 63  2  0  0  0  0
 46 64  1  0  0  0  0
 64 65  1  0  0  0  0
 45 66  1  0  0  0  0
 66 67  2  0  0  0  0
 67 68  1  0  0  0  0
 68 69  1  0  0  0  0
 69 70  2  0  0  0  0
 70 71  1  0  0  0  0
 71 72  2  0  0  0  0
 72 73  1  0  0  0  0
 73 74  1  0  0  0  0
 72 75  1  0  0  0  0
 75 76  2  0  0  0  0
 68 77  1  0  0  0  0
 77 78  2  0  0  0  0
 78 79  1  0  0  0  0
 79 80  2  0  0  0  0
 80 81  1  0  0  0  0
 81 82  1  0  0  0  0
 80 83  1  0  0  0  0
 83 84  2  0  0  0  0
 67 85  1  0  0  0  0
 85 86  1  0  0  0  0
 86 87  1  0  0  0  0
 87 88  2  0  0  0  0
 88 89  1  0  0  0  0
 89 90  1  0  0  0  0
 90 91  2  0  0  0  0
 91 92  1  0  0  0  0
 92 93  2  0  0  0  0
 93 94  1  0  0  0  0
 94 95  1  0  0  0  0
 93 96  1  0  0  0  0
 96 97  2  0  0  0  0
 89 98  1  0  0  0  0
 98 99  2  0  0  0  0
 99100  1  0  0  0  0
100101  2  0  0  0  0
101102  1  0  0  0  0
102103  1  0  0  0  0
101104  1  0  0  0  0
104105  2  0  0  0  0
 88106  1  0  0  0  0
106107  1  0  0  0  0
 87108  1  0  0  0  0
108109  2  0  0  0  0
109110  1  0  0  0  0
110111  1  0  0  0  0
111112  2  0  0  0  0
112113  1  0  0  0  0
113114  2  0  0  0  0
114115  1  0  0  0  0
115116  1  0  0  0  0
114117  1  0  0  0  0
117118  2  0  0  0  0
110119  1  0  0  0  0
119120  2  0  0  0  0
120121  1  0  0  0  0
121122  2  0  0  0  0
122123  1  0  0  0  0
123124  1  0  0  0  0
122125  1  0  0  0  0
125126  2  0  0  0  0
109127  1  0  0  0  0
127128  1  0  0  0  0
128129  1  0  0  0  0
129130  2  0  0  0  0
130131  1  0  0  0  0
131132  1  0  0  0  0
132133  2  0  0  0  0
133134  1  0  0  0  0
134135  2  0  0  0  0
135136  1  0  0  0  0
136137  1  0  0  0  0
135138  1  0  0  0  0
138139  2  0  0  0  0
131140  1  0  0  0  0
140141  2  0  0  0  0
141142  1  0  0  0  0
142143  2  0  0  0  0
143144  1  0  0  0  0
144145  1  0  0  0  0
143146  1  0  0  0  0
146147  2  0  0  0  0
130148  1  0  0  0  0
148149  1  0  0  0  0
129150  1  0  0  0  0
150151  2  0  0  0  0
151152  1  0  0  0  0
152153  1  0  0  0  0
153154  2  0  0  0  0
153155  1  0  0  0  0
155156  1  0  0  0  0
156157  1  0  0  0  0
155158  1  0  0  0  0
158159  2  0  0  0  0
 11  2  1  0  0  0  0
 23 17  1  0  0  0  0
 65 24  1  0  0  0  0
107 66  1  0  0  0  0
149108  1  0  0  0  0
158151  1  0  0  0  0
 10  5  1  0  0  0  0
 22 18  1  0  0  0  0
 34 27  1  0  0  0  0
 42 35  1  0  0  0  0
 64 43  2  0  0  0  0
 76 69  1  0  0  0  0
 84 77  1  0  0  0  0
106 85  2  0  0  0  0
118111  1  0  0  0  0
126119  1  0  0  0  0
148127  2  0  0  0  0
 23  7  1  0  0  0  0
 55 48  1  0  0  0  0
 63 56  1  0  0  0  0
 97 90  1  0  0  0  0
105 98  1  0  0  0  0
139132  1  0  0  0  0
147140  1  0  0  0  0
  1160  1  0  0  0  0
  6161  1  0  0  0  0
  9162  1  0  0  0  0
 17163  1  0  0  0  0
 18164  1  0  0  0  0
 19165  1  0  0  0  0
 20166  1  0  0  0  0
 21167  1  0  0  0  0
 22168  1  0  0  0  0
 22169  1  0  0  0  0
 23170  1  0  0  0  0
 28171  1  0  0  0  0
 29172  1  0  0  0  0
 32173  1  0  0  0  0
 32174  1  0  0  0  0
 32175  1  0  0  0  0
 33176  1  0  0  0  0
 34177  1  0  0  0  0
 36178  1  0  0  0  0
 37179  1  0  0  0  0
 40180  1  0  0  0  0
 40181  1  0  0  0  0
 40182  1  0  0  0  0
 41183  1  0  0  0  0
 42184  1  0  0  0  0
 49185  1  0  0  0  0
 50186  1  0  0  0  0
 53187  1  0  0  0  0
 53188  1  0  0  0  0
 53189  1  0  0  0  0
 54190  1  0  0  0  0
 55191  1  0  0  0  0
 57192  1  0  0  0  0
 58193  1  0  0  0  0
 61194  1  0  0  0  0
 61195  1  0  0  0  0
 61196  1  0  0  0  0
 62197  1  0  0  0  0
 63198  1  0  0  0  0
 70199  1  0  0  0  0
 71200  1  0  0  0  0
 74201  1  0  0  0  0
 74202  1  0  0  0  0
 74203  1  0  0  0  0
 75204  1  0  0  0  0
 76205  1  0  0  0  0
 78206  1  0  0  0  0
 79207  1  0  0  0  0
 82208  1  0  0  0  0
 82209  1  0  0  0  0
 82210  1  0  0  0  0
 83211  1  0  0  0  0
 84212  1  0  0  0  0
 91213  1  0  0  0  0
 92214  1  0  0  0  0
 95215  1  0  0  0  0
 95216  1  0  0  0  0
 95217  1  0  0  0  0
 96218  1  0  0  0  0
 97219  1  0  0  0  0
 99220  1  0  0  0  0
100221  1  0  0  0  0
103222  1  0  0  0  0
103223  1  0  0  0  0
103224  1  0  0  0  0
104225  1  0  0  0  0
105226  1  0  0  0  0
112227  1  0  0  0  0
113228  1  0  0  0  0
116229  1  0  0  0  0
116230  1  0  0  0  0
116231  1  0  0  0  0
117232  1  0  0  0  0
118233  1  0  0  0  0
120234  1  0  0  0  0
121235  1  0  0  0  0
124236  1  0  0  0  0
124237  1  0  0  0  0
124238  1  0  0  0  0
125239  1  0  0  0  0
126240  1  0  0  0  0
133241  1  0  0  0  0
134242  1  0  0  0  0
137243  1  0  0  0  0
137244  1  0  0  0  0
137245  1  0  0  0  0
138246  1  0  0  0  0
139247  1  0  0  0  0
141248  1  0  0  0  0
142249  1  0  0  0  0
145250  1  0  0  0  0
145251  1  0  0  0  0
145252  1  0  0  0  0
146253  1  0  0  0  0
147254  1  0  0  0  0
150255  1  0  0  0  0
156256  1  0  0  0  0
156257  1  0  0  0  0
157258  1  0  0  0  0
157259  1  0  0  0  0
157260  1  0  0  0  0
M  END
