193

C          7.56100       -1.23640       -5.26920
C          7.94010       -0.36800       -6.25450
C          7.05500        0.64560       -6.87490
O          5.93070        0.96140       -6.54800
C          7.76430        1.09060       -8.09400
C          7.30150        2.00020       -9.04170
C          8.15570        2.18800      -10.10230
C          9.37720        1.51220      -10.22120
C          9.84430        0.60800       -9.29710
C          8.99290        0.40950       -8.20610
C          9.14350       -0.46170       -7.04560
C         10.27150       -1.16130       -6.69270
C         10.41310       -1.85790       -5.47640
N         10.61480       -2.40660       -4.48670
C         11.44850       -1.22060       -7.46380
N         12.43200       -1.31280       -8.05010
C          9.70850        2.17610      -11.53500
C         10.74200        3.32120      -11.48870
C         10.50580        4.07350      -12.77840
C          9.35010        4.71560      -12.66500
C          8.78580        4.40800      -11.29680
C         10.08810        4.28950      -10.49450
C          8.34760        2.93180      -11.40100
C          6.49900       -1.04620       -4.35290
C          6.09970        0.20120       -3.82700
C          5.04990        0.31310       -2.84120
N          4.85330        1.57620       -2.46700
S          5.88450        2.52240       -3.26390
N          6.65010        1.38590       -4.08990
C          4.35920       -0.79680       -2.29270
C          4.69160       -2.03120       -2.89840
N          4.07450       -3.19900       -2.70900
S          4.78540       -4.32570       -3.60920
N          5.90410       -3.40120       -4.29700
C          5.76560       -2.14910       -3.86160
C          3.41180       -0.59620       -1.26420
C          2.76620       -1.50360       -0.39860
N          3.14400       -2.78120       -0.07450
C          2.14780       -3.63410        0.44980
C          2.31790       -4.22490        1.69670
C          1.30910       -4.98550        2.25350
C          0.11810       -5.16790        1.56210
S         -1.26340       -6.05270        2.19720
C         -0.69730       -6.66930        3.81040
C         -0.03470       -4.61810        0.29010
C          0.97030       -3.85610       -0.26270
C          4.45160       -3.25190       -0.15760
C          4.68830       -4.62220       -0.31650
C          5.96100       -5.08520       -0.54990
C          7.03760       -4.19870       -0.62380
S          8.60040       -4.85540       -1.08260
C          9.50010       -3.39710       -1.67680
C          6.82340       -2.85370       -0.33630
C          5.54870       -2.39140       -0.08900
C          1.67810       -0.86570        0.24630
S          0.41250       -1.40970        1.29070
C         -0.25150        0.21680        1.39680
C          0.55290        1.15230        0.73950
N          0.41470        2.52620        0.72080
C          0.12430        3.28550        1.85390
C          0.29240        2.78350        3.14420
C         -0.05600        3.53950        4.24650
C         -0.56260        4.82060        4.08190
S         -1.05370        5.85810        5.42430
C         -1.29980        4.68190        6.78690
C         -0.68150        5.34920        2.79900
C         -0.35350        4.59050        1.69910
C          0.92180        3.18120       -0.42830
C          1.93890        4.12250       -0.32100
C          2.50630        4.67180       -1.45320
C          2.06240        4.28350       -2.71080
S          2.76230        4.85150       -4.22250
C          4.10650        5.95390       -3.69770
C          1.00890        3.37640       -2.81800
C          0.44230        2.82990       -1.68850
C          1.59590        0.50000        0.03370
S          2.84590        1.05540       -1.03100
C         -1.51790        0.32410        2.02910
C         -2.28890        1.41290        2.33760
C         -3.50500        1.08930        2.97870
C         -4.46220        1.99020        3.47840
C         -4.28620        3.44130        3.33480
C         -4.36290        4.28520        4.43820
C         -4.18580        5.64790        4.31610
C         -3.92940        6.22110        3.07150
O         -3.71080        7.52430        2.82850
C         -3.77420        8.47150        3.88290
C         -5.20830        8.83210        4.25260
C         -3.86800        5.36840        1.95520
C         -3.63340        5.97780        0.60310
F         -2.51680        6.72400        0.54010
F         -4.64070        6.77670        0.21480
F         -3.49950        5.05030       -0.36200
C         -4.04220        4.00360        2.08670
C         -5.55960        1.43820        4.11790
C         -5.77580        0.03440        4.19940
C         -4.83720       -0.87210        3.65380
C         -5.12790       -2.30890        3.62350
C         -4.17450       -3.27290        3.93830
C         -4.47390       -4.62090        3.90880
C         -5.75460       -5.05870        3.57530
O         -6.19000       -6.33050        3.56850
C         -5.29430       -7.40790        3.77360
C         -4.49290       -7.72970        2.51820
C         -6.70970       -4.08550        3.23000
C         -6.39860       -2.74170        3.24380
C         -8.08240       -4.54960        2.83340
F         -8.70590       -5.23220        3.80530
F         -8.89860       -3.53710        2.50340
F         -8.05720       -5.36370        1.76040
C         -3.69060       -0.31320        3.11820
S         -2.32010       -1.17860        2.47480
C         -6.96580       -0.28090        4.87640
C         -7.68900        0.81560        5.28230
S         -6.86620        2.31920        4.85230
C         -8.93420        0.93580        5.93390
C         -9.84980       -0.00580        6.32020
C         -9.78370       -1.47970        6.20770
O         -8.94740       -2.16750        5.66470
C        -10.96020       -1.99080        6.94720
C        -11.29440       -3.30820        7.21420
Cl       -10.42590       -4.60860        6.52840
C        -12.37550       -3.54780        8.07610
Cl       -12.85460       -5.15240        8.41100
C        -13.02710       -2.48370        8.69790
Cl       -14.26610       -2.80870        9.83060
C        -12.67740       -1.15150        8.42310
Cl       -13.39430        0.08940        9.36500
C        -11.68850       -0.90850        7.47790
C        -11.13400        0.32460        6.92780
C        -11.80550        1.51180        6.80270
C        -11.27620        2.70740        6.26670
N        -10.93540        3.73080        5.87270
C        -13.18860        1.69100        7.03170
N        -14.31340        1.91180        7.08090
H          8.06050       -2.19570       -5.19610
H          6.34860        2.49090       -8.91890
H         10.77830        0.08170       -9.40610
H          9.85160        1.50760      -12.38180
H         11.76170        3.00600      -11.28500
H         11.15400        4.01750      -13.63320
H          8.84020        5.30280      -13.40620
H          8.02350        5.08400      -10.91870
H          9.95760        3.87780       -9.49550
H         10.62090        5.23700      -10.43190
H          7.58380        2.76730      -12.15910
H          3.23800       -4.06750        2.23990
H          1.45930       -5.41290        3.23130
H         -1.51870       -7.25990        4.20450
H          0.17500       -7.30240        3.68000
H         -0.48680       -5.83640        4.47520
H         -0.95450       -4.78600       -0.24810
H          0.85550       -3.41980       -1.24310
H          3.85620       -5.30870       -0.32610
H          6.13770       -6.13630       -0.71690
H         10.33970       -3.77090       -2.25360
H          8.85450       -2.81280       -2.32480
H          9.86150       -2.80620       -0.84010
H          7.64760       -2.15910       -0.30530
H          5.40210       -1.34720        0.14080
H          0.69840        1.79410        3.28830
H          0.08380        3.11830        5.22910
H         -0.34300        4.32610        7.15790
H         -1.92060        3.86010        6.44250
H         -1.80990        5.23470        7.56950
H         -1.04250        6.35700        2.67030
H         -0.47690        5.00100        0.70930
H          2.30210        4.40740        0.65530
H          3.30530        5.38530       -1.33840
H          4.82200        5.40460       -3.09240
H          4.58100        6.29030       -4.61430
H          3.70080        6.80610       -3.16030
H          0.65330        3.09790       -3.79780
H         -0.36110        2.11340       -1.77110
H         -2.00830        2.42460        2.12720
H         -4.55240        3.86600        5.41520
H         -4.23970        6.26120        5.19970
H         -3.26290        9.34860        3.47840
H         -3.21090        8.11100        4.75120
H         -5.20360        9.61000        5.01080
H         -5.74720        7.96890        4.63540
H         -5.73170        9.19900        3.37340
H         -4.01310        3.37630        1.20910
H         -3.18250       -2.96650        4.23330
H         -3.70010       -5.32940        4.15380
H         -5.94570       -8.24800        4.02850
H         -4.63760       -7.20670        4.62830
H         -3.87190       -8.60420        2.69090
H         -3.85690       -6.89470        2.23510
H         -5.17310       -7.93730        1.69660
H         -7.14530       -2.02790        2.93400
H         -7.28470       -1.28400        5.08370
H         -9.19510        1.96440        6.15310
