
  xtb     02152201323D
 energy: -304.283939039212 gnorm: 0.000497125930 xtb: 6.4.1 (unknown)
174192  0     0  0            999 V2000
   -6.2488    3.6480    4.7760 C   0  0  0  0  0  0  0  0  0  0  0  0
   -6.5673    4.8921    4.3040 C   0  0  0  0  0  0  0  0  0  0  0  0
   -5.9714    5.5225    3.1108 C   0  0  0  0  0  0  0  0  0  0  0  0
   -5.0822    5.1004    2.3924 O   0  0  0  0  0  0  0  0  0  0  0  0
   -6.7919    6.7179    2.8347 C   0  0  0  0  0  0  0  0  0  0  0  0
   -6.6224    7.6231    1.7888 C   0  0  0  0  0  0  0  0  0  0  0  0
   -7.5619    8.6250    1.7569 C   0  0  0  0  0  0  0  0  0  0  0  0
   -8.5989    8.7197    2.6938 C   0  0  0  0  0  0  0  0  0  0  0  0
   -8.7783    7.8340    3.7299 C   0  0  0  0  0  0  0  0  0  0  0  0
   -7.8316    6.8066    3.7805 C   0  0  0  0  0  0  0  0  0  0  0  0
   -7.6941    5.6974    4.7210 C   0  0  0  0  0  0  0  0  0  0  0  0
   -8.4442    5.5053    5.8525 C   0  0  0  0  0  0  0  0  0  0  0  0
   -8.2120    4.4955    6.8103 C   0  0  0  0  0  0  0  0  0  0  0  0
   -8.0767    3.7294    7.6552 N   0  0  0  0  0  0  0  0  0  0  0  0
   -9.5282    6.3188    6.2390 C   0  0  0  0  0  0  0  0  0  0  0  0
  -10.4234    6.9368    6.6077 N   0  0  0  0  0  0  0  0  0  0  0  0
   -9.1755    9.9564    2.0496 C   0  0  0  0  0  0  0  0  0  0  0  0
  -10.4379    9.7586    1.1843 C   0  0  0  0  0  0  0  0  0  0  0  0
  -10.4826   10.9976    0.3196 C   0  0  0  0  0  0  0  0  0  0  0  0
   -9.5008   10.9059   -0.5683 C   0  0  0  0  0  0  0  0  0  0  0  0
   -8.7755    9.6034   -0.3181 C   0  0  0  0  0  0  0  0  0  0  0  0
   -9.9489    8.7341    0.1523 C   0  0  0  0  0  0  0  0  0  0  0  0
   -8.0189    9.8502    1.0046 C   0  0  0  0  0  0  0  0  0  0  0  0
   -5.0598    2.9389    4.4918 C   0  0  0  0  0  0  0  0  0  0  0  0
   -5.0571    1.5250    4.4567 C   0  0  0  0  0  0  0  0  0  0  0  0
   -3.9355    0.7621    3.9553 C   0  0  0  0  0  0  0  0  0  0  0  0
   -4.1714   -0.5503    3.9945 N   0  0  0  0  0  0  0  0  0  0  0  0
   -5.6425   -0.7975    4.5931 S   0  0  0  0  0  4  0  0  0  0  0  0
   -6.0678    0.7346    4.8131 N   0  0  0  0  0  0  0  0  0  0  0  0
   -2.7433    1.3820    3.5221 C   0  0  0  0  0  0  0  0  0  0  0  0
   -2.6542    2.7565    3.8329 C   0  0  0  0  0  0  0  0  0  0  0  0
   -1.5639    3.5098    3.6916 N   0  0  0  0  0  0  0  0  0  0  0  0
   -1.9254    5.0245    4.0909 S   0  0  0  0  0  0  0  0  0  0  0  0
   -3.4696    4.8068    4.4622 N   0  0  0  0  0  0  0  0  0  0  0  0
   -3.7956    3.5296    4.2708 C   0  0  0  0  0  0  0  0  0  0  0  0
   -1.7113    0.7308    2.8049 C   0  0  0  0  0  0  0  0  0  0  0  0
   -1.8095   -0.3234    1.8854 C   0  0  0  0  0  0  0  0  0  0  0  0
   -2.9803   -0.7934    1.3370 N   0  0  0  0  0  0  0  0  0  0  0  0
   -3.0092   -2.0939    0.8214 C   0  0  0  0  0  0  0  0  0  0  0  0
   -3.6166   -2.3626   -0.4061 C   0  0  0  0  0  0  0  0  0  0  0  0
   -3.5547   -3.6276   -0.9434 C   0  0  0  0  0  0  0  0  0  0  0  0
   -2.8899   -4.6522   -0.2700 C   0  0  0  0  0  0  0  0  0  0  0  0
   -2.8206   -6.2149   -1.0862 S   0  0  0  0  0  0  0  0  0  0  0  0
   -1.6168   -7.1577   -0.1062 C   0  0  0  0  0  0  0  0  0  0  0  0
   -2.3335   -4.4019    0.9772 C   0  0  0  0  0  0  0  0  0  0  0  0
   -2.3945   -3.1323    1.5169 C   0  0  0  0  0  0  0  0  0  0  0  0
   -4.0783    0.0634    1.1659 C   0  0  0  0  0  0  0  0  0  0  0  0
   -5.3784   -0.4097    1.3400 C   0  0  0  0  0  0  0  0  0  0  0  0
   -6.4471    0.4592    1.2808 C   0  0  0  0  0  0  0  0  0  0  0  0
   -6.2437    1.8158    1.0350 C   0  0  0  0  0  0  0  0  0  0  0  0
   -7.6562    2.8699    1.0577 S   0  0  0  0  0  0  0  0  0  0  0  0
   -7.1364    4.2727    0.0265 C   0  0  0  0  0  0  0  0  0  0  0  0
   -4.9546    2.2814    0.8022 C   0  0  0  0  0  0  0  0  0  0  0  0
   -3.8883    1.4096    0.8571 C   0  0  0  0  0  0  0  0  0  0  0  0
   -0.5241   -0.6976    1.4285 C   0  0  0  0  0  0  0  0  0  0  0  0
    0.0712   -1.9193    0.3577 S   0  0  0  0  0  0  0  0  0  0  0  0
    1.7058   -1.2819    0.5033 C   0  0  0  0  0  0  0  0  0  0  0  0
    1.7799   -0.2049    1.3803 C   0  0  0  0  0  0  0  0  0  0  0  0
    2.9264    0.4713    1.7466 N   0  0  0  0  0  0  0  0  0  0  0  0
    2.7676    1.8292    2.0839 C   0  0  0  0  0  0  0  0  0  0  0  0
    2.0570    2.6669    1.2239 C   0  0  0  0  0  0  0  0  0  0  0  0
    1.7517    3.9539    1.6050 C   0  0  0  0  0  0  0  0  0  0  0  0
    2.1549    4.4292    2.8499 C   0  0  0  0  0  0  0  0  0  0  0  0
    1.6331    6.0565    3.2926 S   0  0  0  0  0  0  0  0  0  0  0  0
    1.7361    6.0330    5.1065 C   0  0  0  0  0  0  0  0  0  0  0  0
    2.9325    3.6248    3.6729 C   0  0  0  0  0  0  0  0  0  0  0  0
    3.2348    2.3318    3.2931 C   0  0  0  0  0  0  0  0  0  0  0  0
    4.1333   -0.1932    1.9736 C   0  0  0  0  0  0  0  0  0  0  0  0
    4.1539   -1.5184    2.4017 C   0  0  0  0  0  0  0  0  0  0  0  0
    5.3484   -2.1882    2.5724 C   0  0  0  0  0  0  0  0  0  0  0  0
    6.5507   -1.5373    2.3325 C   0  0  0  0  0  0  0  0  0  0  0  0
    8.1354   -2.2988    2.4896 S   0  0  0  0  0  0  0  0  0  0  0  0
    7.7620   -3.9660    3.1084 C   0  0  0  0  0  0  0  0  0  0  0  0
    6.5369   -0.2005    1.9376 C   0  0  0  0  0  0  0  0  0  0  0  0
    5.3453    0.4648    1.7580 C   0  0  0  0  0  0  0  0  0  0  0  0
    0.5012    0.1096    1.8994 C   0  0  0  0  0  0  0  0  0  0  0  0
   -0.0789    1.3462    2.9611 S   0  0  0  0  0  0  0  0  0  0  0  0
    2.7053   -1.8821   -0.3052 C   0  0  0  0  0  0  0  0  0  0  0  0
    2.6723   -3.1766   -0.7802 C   0  0  0  0  0  0  0  0  0  0  0  0
    3.7061   -3.4995   -1.6603 C   0  0  0  0  0  0  0  0  0  0  0  0
    3.8860   -4.8520   -2.1886 C   0  0  0  0  0  0  0  0  0  0  0  0
    5.1502   -5.4685   -2.1759 C   0  0  0  0  0  0  0  0  0  0  0  0
    6.1456   -4.7671   -1.5752 O   0  0  0  0  0  0  0  0  0  0  0  0
    7.4533   -5.3056   -1.5214 C   0  0  0  0  0  0  0  0  0  0  0  0
    8.3607   -4.2522   -0.9053 C   0  0  0  0  0  0  0  0  0  0  0  0
    5.3105   -6.7294   -2.7366 C   0  0  0  0  0  0  0  0  0  0  0  0
    4.2213   -7.3739   -3.2964 C   0  0  0  0  0  0  0  0  0  0  0  0
    2.9629   -6.8083   -3.2745 C   0  0  0  0  0  0  0  0  0  0  0  0
    2.7760   -5.5511   -2.7041 C   0  0  0  0  0  0  0  0  0  0  0  0
    1.5841   -4.9213   -2.5969 O   0  0  0  0  0  0  0  0  0  0  0  0
    0.3928   -5.5026   -3.0980 C   0  0  0  0  0  0  0  0  0  0  0  0
    0.2130   -5.3035   -4.5972 C   0  0  0  0  0  0  0  0  0  0  0  0
    4.5504   -2.4073   -1.9023 C   0  0  0  0  0  0  0  0  0  0  0  0
    4.0716   -1.0285   -0.9375 S   0  0  0  0  0  0  0  0  0  0  0  0
    5.6746   -2.2308   -2.7245 C   0  0  0  0  0  0  0  0  0  0  0  0
    6.1163   -2.9565   -3.7994 C   0  0  0  0  0  0  0  0  0  0  0  0
    7.5521   -2.8993   -4.1604 C   0  0  0  0  0  0  0  0  0  0  0  0
    8.3765   -2.1017   -3.7676 O   0  0  0  0  0  0  0  0  0  0  0  0
    7.7811   -4.0734   -5.0299 C   0  0  0  0  0  0  0  0  0  0  0  0
    8.9544   -4.5690   -5.5183 C   0  0  0  0  0  0  0  0  0  0  0  0
    8.9338   -5.7549   -6.2882 C   0  0  0  0  0  0  0  0  0  0  0  0
   10.1168   -6.3103   -6.8163 C   0  0  0  0  0  0  0  0  0  0  0  0
   10.0881   -7.4628   -7.5518 C   0  0  0  0  0  0  0  0  0  0  0  0
    8.8567   -8.0920   -7.7758 C   0  0  0  0  0  0  0  0  0  0  0  0
    8.8470   -9.2278   -8.5000 F   0  0  0  0  0  0  0  0  0  0  0  0
    7.6803   -7.5964   -7.2868 C   0  0  0  0  0  0  0  0  0  0  0  0
    7.6908   -6.4087   -6.5303 C   0  0  0  0  0  0  0  0  0  0  0  0
    6.4886   -5.8662   -6.0175 C   0  0  0  0  0  0  0  0  0  0  0  0
    6.5344   -4.7125   -5.2856 C   0  0  0  0  0  0  0  0  0  0  0  0
    5.4803   -3.9333   -4.6416 C   0  0  0  0  0  0  0  0  0  0  0  0
    4.1472   -3.9856   -4.9652 C   0  0  0  0  0  0  0  0  0  0  0  0
    3.5959   -4.9254   -5.8526 C   0  0  0  0  0  0  0  0  0  0  0  0
    3.0878   -5.6796   -6.5553 N   0  0  0  0  0  0  0  0  0  0  0  0
    3.2123   -3.0369   -4.5089 C   0  0  0  0  0  0  0  0  0  0  0  0
    2.4326   -2.2539   -4.1980 N   0  0  0  0  0  0  0  0  0  0  0  0
   -6.9769    3.1009    5.3624 H   0  0  0  0  0  0  0  0  0  0  0  0
   -5.8065    7.5210    1.0896 H   0  0  0  0  0  0  0  0  0  0  0  0
   -9.5825    7.9174    4.4417 H   0  0  0  0  0  0  0  0  0  0  0  0
   -9.2268   10.8410    2.6815 H   0  0  0  0  0  0  0  0  0  0  0  0
  -11.3387    9.5176    1.7418 H   0  0  0  0  0  0  0  0  0  0  0  0
  -11.1655   11.8123    0.4734 H   0  0  0  0  0  0  0  0  0  0  0  0
   -9.1996   11.6286   -1.3039 H   0  0  0  0  0  0  0  0  0  0  0  0
   -8.1622    9.2214   -1.1302 H   0  0  0  0  0  0  0  0  0  0  0  0
  -10.6788    8.5649   -0.6378 H   0  0  0  0  0  0  0  0  0  0  0  0
   -9.6506    7.7800    0.5833 H   0  0  0  0  0  0  0  0  0  0  0  0
   -7.3003   10.6651    0.9382 H   0  0  0  0  0  0  0  0  0  0  0  0
   -4.1103   -1.5674   -0.9439 H   0  0  0  0  0  0  0  0  0  0  0  0
   -4.0021   -3.8353   -1.9031 H   0  0  0  0  0  0  0  0  0  0  0  0
   -2.0267   -7.3909    0.8722 H   0  0  0  0  0  0  0  0  0  0  0  0
   -1.4464   -8.0771   -0.6578 H   0  0  0  0  0  0  0  0  0  0  0  0
   -0.6914   -6.5954   -0.0246 H   0  0  0  0  0  0  0  0  0  0  0  0
   -1.8498   -5.1841    1.5392 H   0  0  0  0  0  0  0  0  0  0  0  0
   -1.9686   -2.9376    2.4895 H   0  0  0  0  0  0  0  0  0  0  0  0
   -5.5387   -1.4571    1.5492 H   0  0  0  0  0  0  0  0  0  0  0  0
   -7.4516    0.0992    1.4420 H   0  0  0  0  0  0  0  0  0  0  0  0
   -6.8063    3.9023   -0.9394 H   0  0  0  0  0  0  0  0  0  0  0  0
   -6.3506    4.8327    0.5222 H   0  0  0  0  0  0  0  0  0  0  0  0
   -8.0178    4.8954   -0.0913 H   0  0  0  0  0  0  0  0  0  0  0  0
   -4.7682    3.3238    0.6072 H   0  0  0  0  0  0  0  0  0  0  0  0
   -2.8919    1.7828    0.6731 H   0  0  0  0  0  0  0  0  0  0  0  0
    1.7245    2.2866    0.2695 H   0  0  0  0  0  0  0  0  0  0  0  0
    1.1806    4.5980    0.9550 H   0  0  0  0  0  0  0  0  0  0  0  0
    1.2667    5.1273    5.4781 H   0  0  0  0  0  0  0  0  0  0  0  0
    2.7705    6.1040    5.4305 H   0  0  0  0  0  0  0  0  0  0  0  0
    1.1872    6.9054    5.4470 H   0  0  0  0  0  0  0  0  0  0  0  0
    3.2917    3.9878    4.6224 H   0  0  0  0  0  0  0  0  0  0  0  0
    3.8130    1.6966    3.9478 H   0  0  0  0  0  0  0  0  0  0  0  0
    3.2258   -2.0329    2.6017 H   0  0  0  0  0  0  0  0  0  0  0  0
    5.3233   -3.2157    2.8969 H   0  0  0  0  0  0  0  0  0  0  0  0
    7.2668   -3.9014    4.0729 H   0  0  0  0  0  0  0  0  0  0  0  0
    8.7242   -4.4560    3.2205 H   0  0  0  0  0  0  0  0  0  0  0  0
    7.1548   -4.5083    2.3889 H   0  0  0  0  0  0  0  0  0  0  0  0
    7.4744    0.3031    1.7599 H   0  0  0  0  0  0  0  0  0  0  0  0
    5.3401    1.4948    1.4359 H   0  0  0  0  0  0  0  0  0  0  0  0
    1.9183   -3.8761   -0.4695 H   0  0  0  0  0  0  0  0  0  0  0  0
    7.8039   -5.5609   -2.5311 H   0  0  0  0  0  0  0  0  0  0  0  0
    7.4531   -6.2197   -0.9101 H   0  0  0  0  0  0  0  0  0  0  0  0
    7.9561   -3.9206    0.0458 H   0  0  0  0  0  0  0  0  0  0  0  0
    8.4409   -3.3891   -1.5593 H   0  0  0  0  0  0  0  0  0  0  0  0
    9.3518   -4.6671   -0.7469 H   0  0  0  0  0  0  0  0  0  0  0  0
    6.2740   -7.2121   -2.7449 H   0  0  0  0  0  0  0  0  0  0  0  0
    4.3574   -8.3443   -3.7487 H   0  0  0  0  0  0  0  0  0  0  0  0
    2.1369   -7.3453   -3.7094 H   0  0  0  0  0  0  0  0  0  0  0  0
    0.3383   -6.5651   -2.8313 H   0  0  0  0  0  0  0  0  0  0  0  0
   -0.3995   -4.9695   -2.5637 H   0  0  0  0  0  0  0  0  0  0  0  0
   -0.7711   -5.6577   -4.8908 H   0  0  0  0  0  0  0  0  0  0  0  0
    0.9668   -5.8409   -5.1671 H   0  0  0  0  0  0  0  0  0  0  0  0
    0.2948   -4.2456   -4.8340 H   0  0  0  0  0  0  0  0  0  0  0  0
    6.3419   -1.4266   -2.4260 H   0  0  0  0  0  0  0  0  0  0  0  0
    9.8892   -4.0669   -5.3179 H   0  0  0  0  0  0  0  0  0  0  0  0
   11.0535   -5.8067   -6.6302 H   0  0  0  0  0  0  0  0  0  0  0  0
   10.9841   -7.8994   -7.9634 H   0  0  0  0  0  0  0  0  0  0  0  0
    6.7491   -8.1047   -7.4831 H   0  0  0  0  0  0  0  0  0  0  0  0
    5.5613   -6.3846   -6.2032 H   0  0  0  0  0  0  0  0  0  0  0  0
  1  2  2  0  0  0  0
  2  3  1  0  0  0  0
  3  4  2  0  0  0  0
  3  5  1  0  0  0  0
  5  6  2  0  0  0  0
  6  7  1  0  0  0  0
  7  8  2  0  0  0  0
  8  9  1  0  0  0  0
  9 10  2  0  0  0  0
 10 11  1  0  0  0  0
 11 12  2  0  0  0  0
 12 13  1  0  0  0  0
 13 14  3  0  0  0  0
 12 15  1  0  0  0  0
 15 16  3  0  0  0  0
  8 17  1  0  0  0  0
 17 18  1  0  0  0  0
 18 19  1  0  0  0  0
 19 20  2  0  0  0  0
 20 21  1  0  0  0  0
 21 22  1  0  0  0  0
 21 23  1  0  0  0  0
  1 24  1  0  0  0  0
 24 25  2  0  0  0  0
 25 26  1  0  0  0  0
 26 27  1  0  0  0  0
 27 28  2  0  0  0  0
 28 29  2  0  0  0  0
 26 30  2  0  0  0  0
 30 31  1  0  0  0  0
 31 32  2  0  0  0  0
 32 33  1  0  0  0  0
 33 34  1  0  0  0  0
 34 35  2  0  0  0  0
 30 36  1  0  0  0  0
 36 37  2  0  0  0  0
 37 38  1  0  0  0  0
 38 39  1  0  0  0  0
 39 40  2  0  0  0  0
 40 41  1  0  0  0  0
 41 42  2  0  0  0  0
 42 43  1  0  0  0  0
 43 44  1  0  0  0  0
 42 45  1  0  0  0  0
 45 46  2  0  0  0  0
 38 47  1  0  0  0  0
 47 48  2  0  0  0  0
 48 49  1  0  0  0  0
 49 50  2  0  0  0  0
 50 51  1  0  0  0  0
 51 52  1  0  0  0  0
 50 53  1  0  0  0  0
 53 54  2  0  0  0  0
 37 55  1  0  0  0  0
 55 56  1  0  0  0  0
 56 57  1  0  0  0  0
 57 58  2  0  0  0  0
 58 59  1  0  0  0  0
 59 60  1  0  0  0  0
 60 61  2  0  0  0  0
 61 62  1  0  0  0  0
 62 63  2  0  0  0  0
 63 64  1  0  0  0  0
 64 65  1  0  0  0  0
 63 66  1  0  0  0  0
 66 67  2  0  0  0  0
 59 68  1  0  0  0  0
 68 69  2  0  0  0  0
 69 70  1  0  0  0  0
 70 71  2  0  0  0  0
 71 72  1  0  0  0  0
 72 73  1  0  0  0  0
 71 74  1  0  0  0  0
 74 75  2  0  0  0  0
 58 76  1  0  0  0  0
 76 77  1  0  0  0  0
 57 78  1  0  0  0  0
 78 79  2  0  0  0  0
 79 80  1  0  0  0  0
 80 81  1  0  0  0  0
 81 82  2  0  0  0  0
 82 83  1  0  0  0  0
 83 84  1  0  0  0  0
 84 85  1  0  0  0  0
 82 86  1  0  0  0  0
 86 87  2  0  0  0  0
 87 88  1  0  0  0  0
 88 89  2  0  0  0  0
 89 90  1  0  0  0  0
 90 91  1  0  0  0  0
 91 92  1  0  0  0  0
 80 93  2  0  0  0  0
 93 94  1  0  0  0  0
 93 95  1  0  0  0  0
 95 96  2  0  0  0  0
 96 97  1  0  0  0  0
 97 98  2  0  0  0  0
 97 99  1  0  0  0  0
 99100  2  0  0  0  0
100101  1  0  0  0  0
101102  2  0  0  0  0
102103  1  0  0  0  0
103104  2  0  0  0  0
104105  1  0  0  0  0
104106  1  0  0  0  0
106107  2  0  0  0  0
107108  1  0  0  0  0
108109  2  0  0  0  0
109110  1  0  0  0  0
110111  2  0  0  0  0
111112  1  0  0  0  0
112113  3  0  0  0  0
111114  1  0  0  0  0
114115  3  0  0  0  0
 11  2  1  0  0  0  0
 23 17  1  0  0  0  0
 35 24  1  0  0  0  0
 77 36  1  0  0  0  0
 94 78  1  0  0  0  0
110 96  1  0  0  0  0
 10  5  1  0  0  0  0
 22 18  1  0  0  0  0
 29 25  1  0  0  0  0
 35 31  1  0  0  0  0
 46 39  1  0  0  0  0
 54 47  1  0  0  0  0
 76 55  2  0  0  0  0
 89 81  1  0  0  0  0
109 99  1  0  0  0  0
 23  7  1  0  0  0  0
 67 60  1  0  0  0  0
 75 68  1  0  0  0  0
107101  1  0  0  0  0
  1116  1  0  0  0  0
  6117  1  0  0  0  0
  9118  1  0  0  0  0
 17119  1  0  0  0  0
 18120  1  0  0  0  0
 19121  1  0  0  0  0
 20122  1  0  0  0  0
 21123  1  0  0  0  0
 22124  1  0  0  0  0
 22125  1  0  0  0  0
 23126  1  0  0  0  0
 40127  1  0  0  0  0
 41128  1  0  0  0  0
 44129  1  0  0  0  0
 44130  1  0  0  0  0
 44131  1  0  0  0  0
 45132  1  0  0  0  0
 46133  1  0  0  0  0
 48134  1  0  0  0  0
 49135  1  0  0  0  0
 52136  1  0  0  0  0
 52137  1  0  0  0  0
 52138  1  0  0  0  0
 53139  1  0  0  0  0
 54140  1  0  0  0  0
 61141  1  0  0  0  0
 62142  1  0  0  0  0
 65143  1  0  0  0  0
 65144  1  0  0  0  0
 65145  1  0  0  0  0
 66146  1  0  0  0  0
 67147  1  0  0  0  0
 69148  1  0  0  0  0
 70149  1  0  0  0  0
 73150  1  0  0  0  0
 73151  1  0  0  0  0
 73152  1  0  0  0  0
 74153  1  0  0  0  0
 75154  1  0  0  0  0
 79155  1  0  0  0  0
 84156  1  0  0  0  0
 84157  1  0  0  0  0
 85158  1  0  0  0  0
 85159  1  0  0  0  0
 85160  1  0  0  0  0
 86161  1  0  0  0  0
 87162  1  0  0  0  0
 88163  1  0  0  0  0
 91164  1  0  0  0  0
 91165  1  0  0  0  0
 92166  1  0  0  0  0
 92167  1  0  0  0  0
 92168  1  0  0  0  0
 95169  1  0  0  0  0
100170  1  0  0  0  0
102171  1  0  0  0  0
103172  1  0  0  0  0
106173  1  0  0  0  0
108174  1  0  0  0  0
M  END
