
  xtb     02092210593D
 energy: -363.627848073848 gnorm: 0.000214496795 xtb: 6.4.1 (unknown)
219238  0     0  0            999 V2000
   -0.2140   -2.7055   -6.3033 C   0  0  0  0  0  0  0  0  0  0  0  0
    0.4612   -3.9039   -6.3794 C   0  0  0  0  0  0  0  0  0  0  0  0
    0.4662   -4.9504   -5.3619 C   0  0  0  0  0  0  0  0  0  0  0  0
   -0.1238   -4.9511   -4.2914 O   0  0  0  0  0  0  0  0  0  0  0  0
    1.3154   -6.0347   -5.8865 C   0  0  0  0  0  0  0  0  0  0  0  0
    1.6376   -7.2327   -5.2535 C   0  0  0  0  0  0  0  0  0  0  0  0
    2.4733   -8.0437   -5.9837 C   0  0  0  0  0  0  0  0  0  0  0  0
    2.9501   -7.6900   -7.2518 C   0  0  0  0  0  0  0  0  0  0  0  0
    2.6392   -6.5105   -7.8875 C   0  0  0  0  0  0  0  0  0  0  0  0
    1.7930   -5.6687   -7.1610 C   0  0  0  0  0  0  0  0  0  0  0  0
    1.2833   -4.3339   -7.4829 C   0  0  0  0  0  0  0  0  0  0  0  0
    1.5998   -3.6160   -8.6116 C   0  0  0  0  0  0  0  0  0  0  0  0
    1.2189   -2.2882   -8.8822 C   0  0  0  0  0  0  0  0  0  0  0  0
    0.9861   -1.2034   -9.1863 N   0  0  0  0  0  0  0  0  0  0  0  0
    2.3949   -4.1017   -9.6689 C   0  0  0  0  0  0  0  0  0  0  0  0
    3.0232   -4.4287  -10.5735 N   0  0  0  0  0  0  0  0  0  0  0  0
    3.7392   -8.9675   -7.4002 C   0  0  0  0  0  0  0  0  0  0  0  0
    3.1311  -10.0558   -8.3093 C   0  0  0  0  0  0  0  0  0  0  0  0
    3.8446  -11.3197   -7.8869 C   0  0  0  0  0  0  0  0  0  0  0  0
    3.3938  -11.6551   -6.6848 C   0  0  0  0  0  0  0  0  0  0  0  0
    2.3678  -10.6235   -6.2746 C   0  0  0  0  0  0  0  0  0  0  0  0
    1.7674  -10.2881   -7.6459 C   0  0  0  0  0  0  0  0  0  0  0  0
    3.2078   -9.3619   -5.9848 C   0  0  0  0  0  0  0  0  0  0  0  0
   -0.8427   -2.1045   -5.2189 C   0  0  0  0  0  0  0  0  0  0  0  0
   -1.2720   -0.7492   -5.2658 C   0  0  0  0  0  0  0  0  0  0  0  0
   -1.6213   -0.1114   -6.4214 N   0  0  0  0  0  0  0  0  0  0  0  0
   -2.1887   -0.8315   -7.4959 C   0  0  0  0  0  0  0  0  0  0  0  0
   -3.0940   -1.8618   -7.2624 C   0  0  0  0  0  0  0  0  0  0  0  0
   -3.6428   -2.5667   -8.3151 C   0  0  0  0  0  0  0  0  0  0  0  0
   -3.3000   -2.2436   -9.6223 C   0  0  0  0  0  0  0  0  0  0  0  0
   -3.9300   -3.0730  -11.0448 S   0  0  0  0  0  0  0  0  0  0  0  0
   -4.9414   -4.4171  -10.3606 C   0  0  0  0  0  0  0  0  0  0  0  0
   -2.4131   -1.1942   -9.8578 C   0  0  0  0  0  0  0  0  0  0  0  0
   -1.8629   -0.4927   -8.8087 C   0  0  0  0  0  0  0  0  0  0  0  0
   -1.5597    1.2865   -6.5333 C   0  0  0  0  0  0  0  0  0  0  0  0
   -2.5826    1.9962   -7.1546 C   0  0  0  0  0  0  0  0  0  0  0  0
   -2.5074    3.3692   -7.2813 C   0  0  0  0  0  0  0  0  0  0  0  0
   -1.4062    4.0570   -6.7864 C   0  0  0  0  0  0  0  0  0  0  0  0
   -1.1972    5.8042   -6.8894 S   0  0  0  0  0  0  0  0  0  0  0  0
   -2.6576    6.3707   -7.8057 C   0  0  0  0  0  0  0  0  0  0  0  0
   -0.3818    3.3475   -6.1624 C   0  0  0  0  0  0  0  0  0  0  0  0
   -0.4571    1.9787   -6.0396 C   0  0  0  0  0  0  0  0  0  0  0  0
   -1.3189   -0.2111   -3.9672 C   0  0  0  0  0  0  0  0  0  0  0  0
   -1.3939    1.3977   -3.3113 S   0  0  0  0  0  0  0  0  0  0  0  0
   -1.1999    0.7514   -1.6993 C   0  0  0  0  0  0  0  0  0  0  0  0
   -1.2427   -0.6306   -1.6637 C   0  0  0  0  0  0  0  0  0  0  0  0
   -1.4733   -1.3423   -0.4679 N   0  0  0  0  0  0  0  0  0  0  0  0
   -2.7431   -1.2623    0.1033 C   0  0  0  0  0  0  0  0  0  0  0  0
   -3.7573   -0.4672   -0.4320 C   0  0  0  0  0  0  0  0  0  0  0  0
   -5.0213   -0.4428    0.1254 C   0  0  0  0  0  0  0  0  0  0  0  0
   -5.3140   -1.2272    1.2294 C   0  0  0  0  0  0  0  0  0  0  0  0
   -6.8944   -1.2466    2.0343 S   0  0  0  0  0  0  0  0  0  0  0  0
   -8.0223   -0.6542    0.7406 C   0  0  0  0  0  0  0  0  0  0  0  0
   -4.3173   -2.0365    1.7641 C   0  0  0  0  0  0  0  0  0  0  0  0
   -3.0581   -2.0601    1.2093 C   0  0  0  0  0  0  0  0  0  0  0  0
   -0.4067   -1.8731    0.2939 C   0  0  0  0  0  0  0  0  0  0  0  0
   -0.1409   -1.3656    1.5668 C   0  0  0  0  0  0  0  0  0  0  0  0
    0.9112   -1.8498    2.3083 C   0  0  0  0  0  0  0  0  0  0  0  0
    1.7193   -2.8666    1.8007 C   0  0  0  0  0  0  0  0  0  0  0  0
    3.0636   -3.3736    2.8292 S   0  0  0  0  0  0  0  0  0  0  0  0
    4.0570   -4.4358    1.7394 C   0  0  0  0  0  0  0  0  0  0  0  0
    1.4300   -3.4101    0.5565 C   0  0  0  0  0  0  0  0  0  0  0  0
    0.3727   -2.9148   -0.1916 C   0  0  0  0  0  0  0  0  0  0  0  0
   -1.2063   -1.1737   -2.9656 C   0  0  0  0  0  0  0  0  0  0  0  0
   -0.8847   -2.7519   -3.5799 S   0  0  0  0  0  0  0  0  0  0  0  0
   -0.8620    1.5230   -0.5317 C   0  0  0  0  0  0  0  0  0  0  0  0
    0.3442    1.3643    0.1326 C   0  0  0  0  0  0  0  0  0  0  0  0
    1.4813    0.7677   -0.3540 N   0  0  0  0  0  0  0  0  0  0  0  0
    1.6958    0.4892   -1.7366 C   0  0  0  0  0  0  0  0  0  0  0  0
    1.8647   -0.8239   -2.1594 C   0  0  0  0  0  0  0  0  0  0  0  0
    2.1313   -1.1037   -3.4810 C   0  0  0  0  0  0  0  0  0  0  0  0
    2.2763   -0.0724   -4.4058 C   0  0  0  0  0  0  0  0  0  0  0  0
    2.5479   -0.5769   -6.0768 S   0  0  0  0  0  0  0  0  0  0  0  0
    3.0009    0.9445   -6.9561 C   0  0  0  0  0  0  0  0  0  0  0  0
    2.1675    1.2447   -3.9759 C   0  0  0  0  0  0  0  0  0  0  0  0
    1.8636    1.5190   -2.6535 C   0  0  0  0  0  0  0  0  0  0  0  0
    2.6943    0.9358    0.3718 C   0  0  0  0  0  0  0  0  0  0  0  0
    3.1328    2.2094    0.7242 C   0  0  0  0  0  0  0  0  0  0  0  0
    4.2812    2.3666    1.4728 C   0  0  0  0  0  0  0  0  0  0  0  0
    4.9964    1.2517    1.8828 C   0  0  0  0  0  0  0  0  0  0  0  0
    6.4348    1.4316    2.9050 S   0  0  0  0  0  0  0  0  0  0  0  0
    5.7184    2.3915    4.2751 C   0  0  0  0  0  0  0  0  0  0  0  0
    4.6020   -0.0150    1.4764 C   0  0  0  0  0  0  0  0  0  0  0  0
    3.4616   -0.1703    0.7135 C   0  0  0  0  0  0  0  0  0  0  0  0
    0.2358    1.8508    1.4607 C   0  0  0  0  0  0  0  0  0  0  0  0
    1.2370    1.6684    2.8547 S   0  0  0  0  0  0  0  0  0  0  0  0
   -0.0188    2.3675    3.8694 C   0  0  0  0  0  0  0  0  0  0  0  0
   -1.0929    2.8542    3.1268 C   0  0  0  0  0  0  0  0  0  0  0  0
   -2.0766    3.7023    3.5879 N   0  0  0  0  0  0  0  0  0  0  0  0
   -3.3627    3.5896    3.0400 C   0  0  0  0  0  0  0  0  0  0  0  0
   -4.0643    4.7195    2.6295 C   0  0  0  0  0  0  0  0  0  0  0  0
   -5.3233    4.6040    2.0749 C   0  0  0  0  0  0  0  0  0  0  0  0
   -5.9050    3.3515    1.9321 C   0  0  0  0  0  0  0  0  0  0  0  0
   -7.4996    3.0847    1.2210 S   0  0  0  0  0  0  0  0  0  0  0  0
   -8.1739    4.7545    1.0008 C   0  0  0  0  0  0  0  0  0  0  0  0
   -5.2119    2.2184    2.3505 C   0  0  0  0  0  0  0  0  0  0  0  0
   -3.9502    2.3339    2.8883 C   0  0  0  0  0  0  0  0  0  0  0  0
   -1.7848    4.7148    4.5086 C   0  0  0  0  0  0  0  0  0  0  0  0
   -0.5067    5.2682    4.5929 C   0  0  0  0  0  0  0  0  0  0  0  0
   -0.2307    6.2531    5.5140 C   0  0  0  0  0  0  0  0  0  0  0  0
   -1.2233    6.7237    6.3699 C   0  0  0  0  0  0  0  0  0  0  0  0
   -0.7467    7.9849    7.5106 S   0  0  0  0  0  0  0  0  0  0  0  0
   -2.2155    8.2082    8.5543 C   0  0  0  0  0  0  0  0  0  0  0  0
   -2.5038    6.1966    6.2739 C   0  0  0  0  0  0  0  0  0  0  0  0
   -2.7772    5.2038    5.3551 C   0  0  0  0  0  0  0  0  0  0  0  0
   -0.9753    2.4491    1.7676 C   0  0  0  0  0  0  0  0  0  0  0  0
   -2.0544    2.4163    0.4139 S   0  0  0  0  0  0  0  0  0  0  0  0
    0.2038    2.2312    5.2636 C   0  0  0  0  0  0  0  0  0  0  0  0
   -0.7062    2.2016    6.3193 C   0  0  0  0  0  0  0  0  0  0  0  0
   -2.0091    2.4933    6.0758 O   0  0  0  0  0  0  0  0  0  0  0  0
   -3.0272    1.8032    6.7855 C   0  0  0  0  0  0  0  0  0  0  0  0
   -3.0343    0.3101    6.4788 C   0  0  0  0  0  0  0  0  0  0  0  0
   -0.1039    1.8253    7.5396 C   0  0  0  0  0  0  0  0  0  0  0  0
   -0.8476    1.7919    8.6770 O   0  0  0  0  0  0  0  0  0  0  0  0
   -0.6671    0.7694    9.6519 C   0  0  0  0  0  0  0  0  0  0  0  0
   -2.0327    0.3547   10.1852 C   0  0  0  0  0  0  0  0  0  0  0  0
    1.2586    1.4946    7.4086 C   0  0  0  0  0  0  0  0  0  0  0  0
    1.7731    1.7049    5.7549 S   0  0  0  0  0  0  0  0  0  0  0  0
    2.1280    1.0567    8.4216 C   0  0  0  0  0  0  0  0  0  0  0  0
    3.3386    0.4264    8.3082 C   0  0  0  0  0  0  0  0  0  0  0  0
    4.1632   -0.1757    9.7480 S   0  0  0  0  0  0  0  0  0  0  0  0
    5.2911   -1.0833    8.7729 C   0  0  0  0  0  0  0  0  0  0  0  0
    6.2831   -1.8590    9.3182 C   0  0  0  0  0  0  0  0  0  0  0  0
    7.2447   -2.5581    8.5681 C   0  0  0  0  0  0  0  0  0  0  0  0
    8.0668   -3.1434    8.0197 N   0  0  0  0  0  0  0  0  0  0  0  0
    6.3974   -1.9781   10.7160 C   0  0  0  0  0  0  0  0  0  0  0  0
    6.4867   -2.0812   11.8554 N   0  0  0  0  0  0  0  0  0  0  0  0
    5.0601   -0.8855    7.4494 N   0  0  0  0  0  0  0  0  0  0  0  0
    5.7120   -1.6141    6.4073 C   0  0  0  0  0  0  0  0  0  0  0  0
    6.6120   -0.9703    5.5761 C   0  0  0  0  0  0  0  0  0  0  0  0
    7.1870   -1.6709    4.5314 C   0  0  0  0  0  0  0  0  0  0  0  0
    6.8646   -3.0009    4.3269 C   0  0  0  0  0  0  0  0  0  0  0  0
    5.9607   -3.6366    5.1613 C   0  0  0  0  0  0  0  0  0  0  0  0
    5.3724   -2.9432    6.2017 C   0  0  0  0  0  0  0  0  0  0  0  0
    4.0361   -0.0064    7.1210 C   0  0  0  0  0  0  0  0  0  0  0  0
    3.8040    0.3047    5.9660 O   0  0  0  0  0  0  0  0  0  0  0  0
   -0.1803   -2.0885   -7.1914 H   0  0  0  0  0  0  0  0  0  0  0  0
    1.2519   -7.4624   -4.2723 H   0  0  0  0  0  0  0  0  0  0  0  0
    3.0204   -6.2526   -8.8612 H   0  0  0  0  0  0  0  0  0  0  0  0
    4.8121   -8.8480   -7.5389 H   0  0  0  0  0  0  0  0  0  0  0  0
    3.1394   -9.8198   -9.3699 H   0  0  0  0  0  0  0  0  0  0  0  0
    4.6191  -11.7923   -8.4620 H   0  0  0  0  0  0  0  0  0  0  0  0
    3.7166  -12.4637   -6.0554 H   0  0  0  0  0  0  0  0  0  0  0  0
    1.6801  -10.9058   -5.4817 H   0  0  0  0  0  0  0  0  0  0  0  0
    1.1207   -9.4127   -7.6445 H   0  0  0  0  0  0  0  0  0  0  0  0
    1.2365  -11.1334   -8.0809 H   0  0  0  0  0  0  0  0  0  0  0  0
    3.9277   -9.5053   -5.1808 H   0  0  0  0  0  0  0  0  0  0  0  0
   -3.3718   -2.1160   -6.2503 H   0  0  0  0  0  0  0  0  0  0  0  0
   -4.3417   -3.3584   -8.0999 H   0  0  0  0  0  0  0  0  0  0  0  0
   -4.3298   -5.0587   -9.7332 H   0  0  0  0  0  0  0  0  0  0  0  0
   -5.7838   -4.0093   -9.8094 H   0  0  0  0  0  0  0  0  0  0  0  0
   -5.3008   -4.9757  -11.2192 H   0  0  0  0  0  0  0  0  0  0  0  0
   -2.1509   -0.9451  -10.8739 H   0  0  0  0  0  0  0  0  0  0  0  0
   -1.1641    0.3058   -8.9993 H   0  0  0  0  0  0  0  0  0  0  0  0
   -3.4443    1.4707   -7.5382 H   0  0  0  0  0  0  0  0  0  0  0  0
   -3.3185    3.8896   -7.7637 H   0  0  0  0  0  0  0  0  0  0  0  0
   -2.5373    7.4445   -7.9100 H   0  0  0  0  0  0  0  0  0  0  0  0
   -3.5594    6.1548   -7.2401 H   0  0  0  0  0  0  0  0  0  0  0  0
   -2.6832    5.9060   -8.7869 H   0  0  0  0  0  0  0  0  0  0  0  0
    0.4718    3.8874   -5.7815 H   0  0  0  0  0  0  0  0  0  0  0  0
    0.3337    1.4237   -5.5643 H   0  0  0  0  0  0  0  0  0  0  0  0
   -3.5740    0.1505   -1.2970 H   0  0  0  0  0  0  0  0  0  0  0  0
   -5.7671    0.2019   -0.3123 H   0  0  0  0  0  0  0  0  0  0  0  0
   -7.9108    0.4178    0.6032 H   0  0  0  0  0  0  0  0  0  0  0  0
   -7.8266   -1.1952   -0.1801 H   0  0  0  0  0  0  0  0  0  0  0  0
   -9.0231   -0.8744    1.0986 H   0  0  0  0  0  0  0  0  0  0  0  0
   -4.5445   -2.6581    2.6169 H   0  0  0  0  0  0  0  0  0  0  0  0
   -2.3128   -2.7194    1.6263 H   0  0  0  0  0  0  0  0  0  0  0  0
   -0.7724   -0.5878    1.9689 H   0  0  0  0  0  0  0  0  0  0  0  0
    1.1356   -1.4378    3.2802 H   0  0  0  0  0  0  0  0  0  0  0  0
    4.3062   -3.8994    0.8286 H   0  0  0  0  0  0  0  0  0  0  0  0
    4.9618   -4.6564    2.2967 H   0  0  0  0  0  0  0  0  0  0  0  0
    3.5250   -5.3573    1.5210 H   0  0  0  0  0  0  0  0  0  0  0  0
    2.0148   -4.2215    0.1530 H   0  0  0  0  0  0  0  0  0  0  0  0
    0.1439   -3.3511   -1.1531 H   0  0  0  0  0  0  0  0  0  0  0  0
    1.7691   -1.6277   -1.4499 H   0  0  0  0  0  0  0  0  0  0  0  0
    2.2344   -2.1255   -3.8134 H   0  0  0  0  0  0  0  0  0  0  0  0
    3.2592    0.6214   -7.9599 H   0  0  0  0  0  0  0  0  0  0  0  0
    2.1567    1.6257   -7.0028 H   0  0  0  0  0  0  0  0  0  0  0  0
    3.8604    1.4026   -6.4759 H   0  0  0  0  0  0  0  0  0  0  0  0
    2.3263    2.0670   -4.6558 H   0  0  0  0  0  0  0  0  0  0  0  0
    1.7595    2.5454   -2.3335 H   0  0  0  0  0  0  0  0  0  0  0  0
    2.5653    3.0764    0.4172 H   0  0  0  0  0  0  0  0  0  0  0  0
    4.6158    3.3579    1.7380 H   0  0  0  0  0  0  0  0  0  0  0  0
    6.5213    2.5507    4.9881 H   0  0  0  0  0  0  0  0  0  0  0  0
    5.3550    3.3488    3.9162 H   0  0  0  0  0  0  0  0  0  0  0  0
    4.9134    1.8136    4.7215 H   0  0  0  0  0  0  0  0  0  0  0  0
    5.1786   -0.8732    1.7848 H   0  0  0  0  0  0  0  0  0  0  0  0
    3.1415   -1.1521    0.4064 H   0  0  0  0  0  0  0  0  0  0  0  0
   -3.6126    5.6948    2.7361 H   0  0  0  0  0  0  0  0  0  0  0  0
   -5.8324    5.4978    1.7519 H   0  0  0  0  0  0  0  0  0  0  0  0
   -7.5958    5.2970    0.2581 H   0  0  0  0  0  0  0  0  0  0  0  0
   -9.1903    4.6157    0.6456 H   0  0  0  0  0  0  0  0  0  0  0  0
   -8.1837    5.2754    1.9538 H   0  0  0  0  0  0  0  0  0  0  0  0
   -5.6744    1.2497    2.2605 H   0  0  0  0  0  0  0  0  0  0  0  0
   -3.4151    1.4519    3.2061 H   0  0  0  0  0  0  0  0  0  0  0  0
    0.2755    4.9290    3.9314 H   0  0  0  0  0  0  0  0  0  0  0  0
    0.7609    6.6745    5.5783 H   0  0  0  0  0  0  0  0  0  0  0  0
   -1.9265    8.9268    9.3148 H   0  0  0  0  0  0  0  0  0  0  0  0
   -2.4831    7.2642    9.0198 H   0  0  0  0  0  0  0  0  0  0  0  0
   -3.0369    8.6066    7.9658 H   0  0  0  0  0  0  0  0  0  0  0  0
   -3.2987    6.5430    6.9147 H   0  0  0  0  0  0  0  0  0  0  0  0
   -3.7721    4.7888    5.3043 H   0  0  0  0  0  0  0  0  0  0  0  0
   -3.9499    2.2648    6.4242 H   0  0  0  0  0  0  0  0  0  0  0  0
   -2.9337    1.9820    7.8600 H   0  0  0  0  0  0  0  0  0  0  0  0
   -3.1320    0.1469    5.4080 H   0  0  0  0  0  0  0  0  0  0  0  0
   -3.8731   -0.1646    6.9804 H   0  0  0  0  0  0  0  0  0  0  0  0
   -2.1098   -0.1563    6.8139 H   0  0  0  0  0  0  0  0  0  0  0  0
   -0.1525   -0.0911    9.2109 H   0  0  0  0  0  0  0  0  0  0  0  0
   -0.0659    1.1641   10.4806 H   0  0  0  0  0  0  0  0  0  0  0  0
   -1.9015   -0.3638   10.9895 H   0  0  0  0  0  0  0  0  0  0  0  0
   -2.6325   -0.0981    9.4007 H   0  0  0  0  0  0  0  0  0  0  0  0
   -2.5580    1.2241   10.5712 H   0  0  0  0  0  0  0  0  0  0  0  0
    1.7868    1.2015    9.4373 H   0  0  0  0  0  0  0  0  0  0  0  0
    6.8573    0.0662    5.7441 H   0  0  0  0  0  0  0  0  0  0  0  0
    7.8820   -1.1683    3.8768 H   0  0  0  0  0  0  0  0  0  0  0  0
    7.3230   -3.5447    3.5140 H   0  0  0  0  0  0  0  0  0  0  0  0
    5.7064   -4.6740    5.0055 H   0  0  0  0  0  0  0  0  0  0  0  0
    4.6573   -3.4267    6.8512 H   0  0  0  0  0  0  0  0  0  0  0  0
  1  2  2  0  0  0  0
  2  3  1  0  0  0  0
  3  4  2  0  0  0  0
  3  5  1  0  0  0  0
  5  6  2  0  0  0  0
  6  7  1  0  0  0  0
  7  8  2  0  0  0  0
  8  9  1  0  0  0  0
  9 10  2  0  0  0  0
 10 11  1  0  0  0  0
 11 12  2  0  0  0  0
 12 13  1  0  0  0  0
 13 14  3  0  0  0  0
 12 15  1  0  0  0  0
 15 16  3  0  0  0  0
  8 17  1  0  0  0  0
 17 18  1  0  0  0  0
 18 19  1  0  0  0  0
 19 20  2  0  0  0  0
 20 21  1  0  0  0  0
 21 22  1  0  0  0  0
 21 23  1  0  0  0  0
  1 24  1  0  0  0  0
 24 25  2  0  0  0  0
 25 26  1  0  0  0  0
 26 27  1  0  0  0  0
 27 28  2  0  0  0  0
 28 29  1  0  0  0  0
 29 30  2  0  0  0  0
 30 31  1  0  0  0  0
 31 32  1  0  0  0  0
 30 33  1  0  0  0  0
 33 34  2  0  0  0  0
 26 35  1  0  0  0  0
 35 36  2  0  0  0  0
 36 37  1  0  0  0  0
 37 38  2  0  0  0  0
 38 39  1  0  0  0  0
 39 40  1  0  0  0  0
 38 41  1  0  0  0  0
 41 42  2  0  0  0  0
 25 43  1  0  0  0  0
 43 44  1  0  0  0  0
 44 45  1  0  0  0  0
 45 46  2  0  0  0  0
 46 47  1  0  0  0  0
 47 48  1  0  0  0  0
 48 49  2  0  0  0  0
 49 50  1  0  0  0  0
 50 51  2  0  0  0  0
 51 52  1  0  0  0  0
 52 53  1  0  0  0  0
 51 54  1  0  0  0  0
 54 55  2  0  0  0  0
 47 56  1  0  0  0  0
 56 57  2  0  0  0  0
 57 58  1  0  0  0  0
 58 59  2  0  0  0  0
 59 60  1  0  0  0  0
 60 61  1  0  0  0  0
 59 62  1  0  0  0  0
 62 63  2  0  0  0  0
 46 64  1  0  0  0  0
 64 65  1  0  0  0  0
 45 66  1  0  0  0  0
 66 67  2  0  0  0  0
 67 68  1  0  0  0  0
 68 69  1  0  0  0  0
 69 70  2  0  0  0  0
 70 71  1  0  0  0  0
 71 72  2  0  0  0  0
 72 73  1  0  0  0  0
 73 74  1  0  0  0  0
 72 75  1  0  0  0  0
 75 76  2  0  0  0  0
 68 77  1  0  0  0  0
 77 78  2  0  0  0  0
 78 79  1  0  0  0  0
 79 80  2  0  0  0  0
 80 81  1  0  0  0  0
 81 82  1  0  0  0  0
 80 83  1  0  0  0  0
 83 84  2  0  0  0  0
 67 85  1  0  0  0  0
 85 86  1  0  0  0  0
 86 87  1  0  0  0  0
 87 88  2  0  0  0  0
 88 89  1  0  0  0  0
 89 90  1  0  0  0  0
 90 91  2  0  0  0  0
 91 92  1  0  0  0  0
 92 93  2  0  0  0  0
 93 94  1  0  0  0  0
 94 95  1  0  0  0  0
 93 96  1  0  0  0  0
 96 97  2  0  0  0  0
 89 98  1  0  0  0  0
 98 99  2  0  0  0  0
 99100  1  0  0  0  0
100101  2  0  0  0  0
101102  1  0  0  0  0
102103  1  0  0  0  0
101104  1  0  0  0  0
104105  2  0  0  0  0
 88106  1  0  0  0  0
106107  1  0  0  0  0
 87108  1  0  0  0  0
108109  2  0  0  0  0
109110  1  0  0  0  0
110111  1  0  0  0  0
111112  1  0  0  0  0
109113  1  0  0  0  0
113114  1  0  0  0  0
114115  1  0  0  0  0
115116  1  0  0  0  0
113117  2  0  0  0  0
117118  1  0  0  0  0
117119  1  0  0  0  0
119120  2  0  0  0  0
120121  1  0  0  0  0
121122  1  0  0  0  0
122123  2  0  0  0  0
123124  1  0  0  0  0
124125  3  0  0  0  0
123126  1  0  0  0  0
126127  3  0  0  0  0
122128  1  0  0  0  0
128129  1  0  0  0  0
129130  2  0  0  0  0
130131  1  0  0  0  0
131132  2  0  0  0  0
132133  1  0  0  0  0
133134  2  0  0  0  0
128135  1  0  0  0  0
135136  2  0  0  0  0
 11  2  1  0  0  0  0
 23 17  1  0  0  0  0
 65 24  1  0  0  0  0
107 66  1  0  0  0  0
118108  1  0  0  0  0
135120  1  0  0  0  0
 10  5  1  0  0  0  0
 22 18  1  0  0  0  0
 34 27  1  0  0  0  0
 42 35  1  0  0  0  0
 64 43  2  0  0  0  0
 76 69  1  0  0  0  0
 84 77  1  0  0  0  0
106 85  2  0  0  0  0
134129  1  0  0  0  0
 23  7  1  0  0  0  0
 55 48  1  0  0  0  0
 63 56  1  0  0  0  0
 97 90  1  0  0  0  0
105 98  1  0  0  0  0
  1137  1  0  0  0  0
  6138  1  0  0  0  0
  9139  1  0  0  0  0
 17140  1  0  0  0  0
 18141  1  0  0  0  0
 19142  1  0  0  0  0
 20143  1  0  0  0  0
 21144  1  0  0  0  0
 22145  1  0  0  0  0
 22146  1  0  0  0  0
 23147  1  0  0  0  0
 28148  1  0  0  0  0
 29149  1  0  0  0  0
 32150  1  0  0  0  0
 32151  1  0  0  0  0
 32152  1  0  0  0  0
 33153  1  0  0  0  0
 34154  1  0  0  0  0
 36155  1  0  0  0  0
 37156  1  0  0  0  0
 40157  1  0  0  0  0
 40158  1  0  0  0  0
 40159  1  0  0  0  0
 41160  1  0  0  0  0
 42161  1  0  0  0  0
 49162  1  0  0  0  0
 50163  1  0  0  0  0
 53164  1  0  0  0  0
 53165  1  0  0  0  0
 53166  1  0  0  0  0
 54167  1  0  0  0  0
 55168  1  0  0  0  0
 57169  1  0  0  0  0
 58170  1  0  0  0  0
 61171  1  0  0  0  0
 61172  1  0  0  0  0
 61173  1  0  0  0  0
 62174  1  0  0  0  0
 63175  1  0  0  0  0
 70176  1  0  0  0  0
 71177  1  0  0  0  0
 74178  1  0  0  0  0
 74179  1  0  0  0  0
 74180  1  0  0  0  0
 75181  1  0  0  0  0
 76182  1  0  0  0  0
 78183  1  0  0  0  0
 79184  1  0  0  0  0
 82185  1  0  0  0  0
 82186  1  0  0  0  0
 82187  1  0  0  0  0
 83188  1  0  0  0  0
 84189  1  0  0  0  0
 91190  1  0  0  0  0
 92191  1  0  0  0  0
 95192  1  0  0  0  0
 95193  1  0  0  0  0
 95194  1  0  0  0  0
 96195  1  0  0  0  0
 97196  1  0  0  0  0
 99197  1  0  0  0  0
100198  1  0  0  0  0
103199  1  0  0  0  0
103200  1  0  0  0  0
103201  1  0  0  0  0
104202  1  0  0  0  0
105203  1  0  0  0  0
111204  1  0  0  0  0
111205  1  0  0  0  0
112206  1  0  0  0  0
112207  1  0  0  0  0
112208  1  0  0  0  0
115209  1  0  0  0  0
115210  1  0  0  0  0
116211  1  0  0  0  0
116212  1  0  0  0  0
116213  1  0  0  0  0
119214  1  0  0  0  0
130215  1  0  0  0  0
131216  1  0  0  0  0
132217  1  0  0  0  0
133218  1  0  0  0  0
134219  1  0  0  0  0
M  END
