204

C          5.43820       -2.91450        4.71800
C          6.59230       -2.76370        5.44050
C          7.04440       -1.60050        6.23000
O          6.51510       -0.51190        6.36550
C          8.30260       -2.01140        6.87720
C          9.07950       -1.24060        7.74040
C         10.20150       -1.88180        8.20490
C         10.52680       -3.19430        7.83730
C          9.77190       -3.96250        6.98340
C          8.62340       -3.32840        6.49790
C          7.59480       -3.80820        5.57740
C          7.63570       -5.00810        4.91580
C          8.65400       -5.97150        5.07590
N          9.43710       -6.80750        5.15870
C          6.71220       -5.47750        3.95770
N          6.03320       -5.95600        3.16350
C         11.77400       -3.20780        8.68610
C         11.68680       -3.96830       10.02620
C         12.84190       -3.41730       10.83060
C         12.53500       -2.17400       11.17810
C         11.16720       -1.86380       10.61410
C         10.51920       -3.25060       10.71570
C         11.41190       -1.74390        9.09480
C          4.44170       -1.99370        4.34830
C          4.27510       -0.63560        4.54830
C          3.21220       -0.07550        3.83660
C          2.87830        1.35360        3.96230
C          2.86510        2.24190        2.87990
O          3.11600        1.69970        1.65260
C          3.18450        2.53350        0.51060
C          1.81050        2.89130       -0.04400
C          2.65510        3.59700        3.10970
C          2.46290        4.05390        4.39910
C          2.43940        3.19020        5.47470
C          2.64240        1.83180        5.26250
O          2.60140        0.87970        6.22870
C          2.74640        1.24810        7.58720
C          4.15890        1.72580        7.90770
C          2.56370       -1.00870        3.03490
S          3.18150       -2.60240        3.29360
C          1.52860       -0.75380        2.08620
C          1.41690       -1.18880        0.76990
N          2.28400       -2.01370        0.07780
C          3.63920       -2.15370        0.42320
C          4.23140       -3.41820        0.45890
C          5.51830       -3.57000        0.92650
C          6.24240       -2.46530        1.37020
S          7.83490       -2.78030        2.06860
C          8.29490       -1.19280        2.82330
C          5.68710       -1.19810        1.26110
C          4.39970       -1.04730        0.78410
C          1.77600       -2.83780       -0.94080
C          0.54470       -3.47890       -0.80690
C          0.07010       -4.28820       -1.81640
C          0.82010       -4.48730       -2.97130
S          0.13480       -5.53850       -4.21590
C          1.61610       -6.19100       -5.04460
C          2.04960       -3.85520       -3.10740
C          2.52080       -3.03830       -2.10040
C          0.25490       -0.62970        0.17420
S         -0.43080       -0.69100       -1.41060
C         -1.79740        0.30830       -0.89680
C         -1.72860        0.62540        0.45800
N         -2.67590        1.27520        1.22440
C         -4.04930        1.04910        1.10780
C         -4.55940       -0.15180        0.61900
C         -5.91820       -0.31250        0.43090
C         -6.79120        0.72260        0.73650
S         -8.53500        0.63260        0.47690
C         -8.67810       -0.58340       -0.86510
C         -6.29210        1.89920        1.28920
C         -4.93940        2.06270        1.47320
C         -2.22120        2.04000        2.32070
C         -2.65640        1.75140        3.61230
C         -2.21230        2.50850        4.67350
C         -1.33640        3.56960        4.46160
S         -0.83020        4.49930        5.87540
C         -0.60530        6.16670        5.18350
C         -0.89520        3.85470        3.17660
C         -1.33860        3.09370        2.11310
C         -0.51980        0.14060        1.02510
S          0.21510        0.30420        2.57940
C         -2.71770        0.66590       -1.91760
C         -2.63800        0.26150       -3.22630
C         -3.65140        0.78280       -4.05790
C         -3.87050        0.53390       -5.42330
C         -2.91930       -0.26310       -6.20800
C         -1.55700        0.02000       -6.14880
C         -0.67280       -0.73960       -6.88550
F          0.64170       -0.43710       -6.81400
C         -1.06680       -1.79590       -7.69950
C         -0.07070       -2.63200       -8.44630
C          0.59920       -3.63280       -7.50240
C         -2.43430       -2.04330       -7.73470
F         -2.88580       -3.05620       -8.49980
C         -3.35610       -1.30370       -7.02050
C         -5.00740        1.09170       -5.99090
C         -5.94690        1.85010       -5.23980
C         -5.74140        2.08000       -3.86120
C         -6.76190        2.69680       -3.00780
C         -6.43140        3.64480       -2.04530
C         -7.40670        4.11460       -1.18800
C         -8.72760        3.68540       -1.22270
C         -9.77630        4.20540       -0.28720
C        -10.58710        5.32120       -0.95030
C         -9.02140        2.74860       -2.20810
C         -8.08070        2.25300       -3.08670
F        -10.28130        2.27820       -2.29770
F         -7.04800        5.02830       -0.26230
C         -4.56400        1.59180       -3.32740
S         -4.06100        1.76410       -1.66710
C         -6.97850        2.33820       -6.05670
C         -6.86310        1.98020       -7.38690
S         -5.44410        0.99230       -7.67350
C         -7.80130        2.40660       -8.35290
C         -7.86570        2.16990       -9.69390
C         -6.92850        1.34750      -10.49630
O         -5.94190        0.75450      -10.11070
C         -7.44830        1.39930      -11.86600
C         -8.59380        2.18670      -11.89000
S         -9.30750        2.33130      -13.45490
C         -8.05550        1.31860      -14.10550
C         -7.76550        0.83050      -15.39240
C         -6.64550        0.05880      -15.37870
S         -5.91300       -0.09970      -13.81960
C         -7.13560        0.89910      -13.13450
C         -8.89830        2.69310      -10.58270
C         -9.96130        3.51270      -10.29190
C        -10.85650        3.91640      -11.30440
N        -11.59240        4.25060      -12.11910
C        -10.28400        4.03840       -9.02750
N        -10.60220        4.50650       -8.02750
H          5.26510       -3.90230        4.30840
H          8.78970       -0.23270        7.99410
H         10.03990       -4.96930        6.71200
H         12.70770       -3.38560        8.15590
H         11.62640       -5.04910        9.93270
H         13.75650       -3.95120       11.01060
H         13.14190       -1.46190       11.70610
H         10.63330       -1.02730       11.05720
H          9.57110       -3.33730       10.18810
H         10.39170       -3.57060       11.74860
H         12.10450       -0.94470        8.83680
H          4.93180       -0.06020        5.17330
H          3.73450        1.94560       -0.23130
H          3.76880        3.43540        0.72670
H          1.26950        1.98530       -0.30630
H          1.23080        3.43750        0.69500
H          1.92330        3.50380       -0.93460
H          2.66080        4.30730        2.29910
H          2.33540        5.11260        4.57030
H          2.25830        3.58040        6.46210
H          2.53030        0.32600        8.13320
H          1.99930        1.99950        7.87150
H          4.38350        2.64850        7.37730
H          4.88190        0.97130        7.60630
H          4.25340        1.90120        8.97570
H          3.66220       -4.28610        0.16380
H          5.95680       -4.55280        0.99940
H          8.51750       -0.46070        2.05240
H          9.18970       -1.39330        3.40540
H          7.49760       -0.84850        3.47580
H          6.23560       -0.31810        1.55560
H          3.96210       -0.06640        0.74230
H         -0.02790       -3.35660        0.10060
H         -0.88070       -4.78790       -1.71390
H          1.27850       -7.04170       -5.62790
H          2.33170       -6.51310       -4.29460
H          2.04560       -5.44330       -5.70400
H          2.64200       -3.98530       -3.99890
H          3.47580       -2.54630       -2.20940
H         -3.88730       -0.95960        0.36950
H         -6.28560       -1.25010        0.04470
H         -8.58090       -1.59320       -0.47680
H         -9.66940       -0.44590       -1.28560
H         -7.92090       -0.37480       -1.61520
H         -6.97690        2.69010        1.55160
H         -4.55750        2.99050        1.87000
H         -3.34470        0.93530        3.77220
H         -2.54150        2.28980        5.67730
H         -1.45500        6.40820        4.55300
H         -0.56810        6.83980        6.03400
H          0.32360        6.22940        4.62550
H         -0.21080        4.66850        2.99920
H         -1.01620        3.31670        1.10690
H         -1.88530       -0.42480       -3.57090
H         -1.18490        0.83790       -5.55260
H         -0.57530       -3.16720       -9.25110
H          0.69150       -1.98170       -8.88100
H         -0.14520       -4.28420       -7.04960
H          1.12690       -3.10530       -6.71050
H          1.31100       -4.24280       -8.05390
H         -4.40140       -1.55700       -7.09030
H         -5.42920        4.03290       -1.96390
H         -9.29910        4.58770        0.61590
H        -10.44210        3.38610       -0.01010
H        -11.08030        4.95240       -1.84660
H         -9.93840        6.15000       -1.22590
H        -11.34570        5.68770       -0.26390
H         -8.37110        1.50130       -3.80380
H         -7.77600        2.96600       -5.69950
H         -8.58550        3.02460       -7.93080
H         -8.35020        1.03900      -16.26860
H         -6.19170       -0.44140      -16.21140
