262

C         -3.85770       -4.64430        5.25270
C         -4.84630       -5.37090        4.62500
C         -6.14010       -4.81380        4.20410
O         -6.49960       -3.65430        4.26780
C         -6.97130       -5.98260        3.84710
C         -8.27940       -5.96500        3.37520
C         -8.77440       -7.20490        3.05030
C         -8.03700       -8.38450        3.21290
C         -6.75650       -8.42100        3.71430
C         -6.22900       -7.16650        4.03150
C         -4.90690       -6.80000        4.52870
C         -3.82010       -7.62830        4.70530
C         -3.85910       -9.02910        4.58710
N         -3.84130      -10.17580        4.51820
C         -2.52730       -7.13780        4.96460
N         -1.44290       -6.78270        5.11540
C         -9.14250       -9.24580        2.65100
C         -8.95250       -9.73830        1.20050
C        -10.34800      -10.11230        0.75550
C        -11.03510       -8.98860        0.59390
C        -10.11700       -7.83610        0.93020
C         -8.78160       -8.41430        0.44530
C         -9.95960       -7.92710        2.46360
C         -3.36720       -3.38650        4.87660
C         -3.03460       -2.97810        3.57190
N         -3.38630       -3.59330        2.38950
C         -2.34960       -3.94360        1.50130
C         -2.40990       -3.58200        0.15850
C         -1.40930       -3.95350       -0.71710
C         -0.33930       -4.71410       -0.26170
S          0.96730       -5.27840       -1.29530
C          0.37820       -4.92950       -2.97550
C         -0.27580       -5.07480        1.08380
C         -1.26330       -4.68570        1.96230
C         -4.70440       -3.65160        1.91910
C         -5.58120       -2.59210        2.12080
C         -6.87910       -2.65920        1.64820
C         -7.31450       -3.79240        0.97790
S         -8.96130       -4.01160        0.37970
C         -9.89100       -2.69120        1.21230
C         -6.42750       -4.84310        0.74860
C         -5.13410       -4.77420        1.21170
C         -2.05280       -1.96480        3.61590
S         -1.21230       -1.11220        2.38190
C         -0.33070       -0.17750        3.59950
C         -0.69540       -0.50950        4.89060
N         -0.15310        0.01130        6.03980
C         -0.12790       -0.72610        7.23730
C         -0.29480       -0.06420        8.45460
C         -0.23130       -0.76070        9.63990
C         -0.01280       -2.13750        9.64040
S          0.06720       -2.93560       11.21160
C          0.68170       -4.59670       10.80990
C          0.12950       -2.80270        8.43280
C          0.08440       -2.09990        7.24450
C          0.46790        1.27730        6.07260
C          1.75800        1.38220        6.58950
C          2.34240        2.61840        6.75040
C          1.64150        3.77160        6.41060
S          2.42260        5.32590        6.73630
C          1.01000        6.32950        7.28580
C          0.37280        3.67000        5.85590
C         -0.21230        2.42790        5.69130
C         -1.68320       -1.53620        4.87950
S         -2.54970       -2.40980        6.09460
C          0.62550        0.72740        3.00360
C          1.65670        0.27160        2.20640
N          2.09030       -1.04030        2.14990
C          2.15450       -1.86170        3.28170
C          2.68110       -1.40040        4.48710
C          2.80880       -2.26240        5.55450
C          2.40150       -3.59260        5.44900
S          2.62020       -4.61350        6.87260
C          1.79160       -6.16900        6.42960
C          1.84820       -4.04490        4.25870
C          1.73190       -3.18380        3.18690
C          2.36330       -1.59020        0.88660
C          3.45680       -2.43180        0.70700
C          3.76640       -2.92250       -0.54490
C          2.98260       -2.57970       -1.63790
S          3.34540       -3.10060       -3.28850
C          4.32210       -4.60900       -3.03890
C          1.86960       -1.76520       -1.45780
C          1.55650       -1.28150       -0.20760
C          2.13970        1.28940        1.34500
S          3.26850        1.30390        0.04250
C          2.68340        2.88710       -0.46940
C          1.71940        3.38980        0.37790
N          1.06240        4.60080        0.17870
C          0.84060        5.49120        1.22160
C         -0.13040        6.48610        1.10340
C         -0.32270        7.41500        2.10570
C          0.44660        7.36290        3.25790
S          0.29570        8.53810        4.57860
C         -0.51570        9.95670        3.78900
C          1.38440        6.34470        3.40600
C          1.58540        5.42440        2.40120
C          0.45420        4.80140       -1.07830
C          0.73050        5.93680       -1.83760
C          0.13030        6.10870       -3.06510
C         -0.76250        5.15620       -3.55570
S         -1.47310        5.48260       -5.13880
C         -2.85130        4.30600       -5.24470
C         -1.04170        4.02520       -2.80200
C         -0.43550        3.85250       -1.57180
C          1.43500        2.47600        1.42800
S          0.25170        2.42410        2.68940
C          3.14520        3.30830       -1.76940
C          4.45980        3.52840       -2.13400
N          5.49120        3.66640       -1.22450
C          6.74540        3.12810       -1.53650
C          6.83460        1.93430       -2.24730
C          8.06340        1.41360       -2.60360
C          9.22800        2.07600       -2.24340
S         10.85280        1.51370       -2.64400
C         10.56490        0.10540       -3.75310
C          9.14330        3.25820       -1.50910
C          7.91930        3.78260       -1.16230
C          5.28160        4.38660       -0.03910
C          4.52100        5.55250       -0.04640
C          4.35250        6.29350        1.10640
C          4.94500        5.87860        2.29220
S          4.82240        6.75230        3.81940
C          4.15990        8.37280        3.34120
C          5.68100        4.69470        2.30920
C          5.84860        3.95570        1.15950
C          4.59890        3.60460       -3.54360
S          5.90420        3.84530       -4.64920
C          4.80660        3.75900       -6.02720
C          3.49030        3.52590       -5.62940
N          2.41920        3.16570       -6.43680
C          1.66510        2.06820       -6.00760
C          0.27160        2.08060       -6.05470
C         -0.44570        1.02990       -5.52020
C          0.21520       -0.03860       -4.93310
S         -0.70710       -1.31570       -4.10130
C         -1.48700       -0.29020       -2.80710
C          1.60070       -0.10180       -4.96140
C          2.31920        0.94300       -5.50110
C          1.82520        4.09190       -7.32370
C          1.59120        3.72950       -8.64620
C          1.01440        4.63280       -9.51130
C          0.65230        5.90300       -9.06280
S         -0.05120        6.98330      -10.26840
C         -0.56330        8.43370       -9.30410
C          0.86780        6.25610       -7.73920
C          1.45420        5.35180       -6.87410
C          3.40600        3.43460       -4.22200
S          2.07370        3.18750       -3.15630
C          5.35260        3.71250       -7.33480
C          4.86870        4.40390       -8.40880
C          4.15420        5.69950       -8.26800
O          3.86250        6.25920       -7.23260
C          4.01250        6.20260       -9.63970
C          3.47680        7.28460      -10.25770
S          3.66560        7.17120      -11.96820
C          4.49160        5.66190      -11.85180
C          4.60450        5.27090      -10.55350
C          5.15300        4.15800       -9.80630
C          5.74280        3.04650      -10.35200
C          5.92240        2.91940      -11.74340
N          6.07720        2.80900      -12.87530
C          6.19900        1.94100       -9.61030
N          6.56910        1.00920       -9.04980
H         -3.34220       -5.10060        6.09210
H         -8.82100       -5.03920        3.26920
H         -6.19960       -9.33350        3.85370
H         -9.53550      -10.01320        3.31510
H         -8.17980      -10.49200        1.07370
H        -10.69590      -11.12420        0.65990
H        -12.07210       -8.87520        0.33680
H        -10.39680       -6.85420        0.55850
H         -8.76220       -8.55300       -0.63440
H         -7.91210       -7.83820        0.75540
H        -10.90240       -7.81640        2.99610
H         -3.24960       -3.00240       -0.19690
H         -1.47140       -3.64710       -1.74890
H         -0.59180       -5.39450       -3.12280
H          0.33760       -3.85880       -3.15100
H          1.10800       -5.37800       -3.64200
H          0.54830       -5.68410        1.42330
H         -1.21510       -4.97660        3.00180
H         -5.24780       -1.71700        2.65710
H         -7.53730       -1.82440        1.82320
H        -10.93980       -2.91400        1.04200
H         -9.67400       -2.70710        2.27630
H         -9.64620       -1.72640        0.77730
H         -6.77350       -5.71580        0.21590
H         -4.44960       -5.59370        1.04720
H         -0.46560        1.00190        8.46370
H         -0.35210       -0.24690       10.58110
H          0.89320       -5.06920       11.76400
H          1.59210       -4.51730       10.22310
H         -0.08140       -5.16140       10.28190
H          0.29130       -3.86630        8.39730
H          0.23770       -2.62360        6.31500
H          2.27930        0.48670        6.89180
H          3.33640        2.70790        7.16020
H          1.43580        7.20550        7.76380
H          0.42600        5.75720        7.99960
H          0.40460        6.63930        6.44010
H         -0.16810        4.55450        5.55820
H         -1.20930        2.34960        5.28280
H          3.00110       -0.37220        4.57120
H          3.23240       -1.92100        6.48710
H          0.75670       -5.98710        6.15420
H          2.33100       -6.66130        5.62570
H          1.83320       -6.78400        7.32370
H          1.50320       -5.06030        4.15210
H          1.31010       -3.53390        2.25720
H          4.07510       -2.68780        1.55440
H          4.62980       -3.55780       -0.65880
H          5.33040       -4.35950       -2.72090
H          4.35670       -5.10480       -4.00420
H          3.82060       -5.23830       -2.30950
H          1.24950       -1.52380       -2.30580
H          0.68060       -0.66420       -0.06730
H         -0.74660        6.53570        0.21860
H         -1.08190        8.16990        1.97580
H         -0.42030       10.77820        4.49230
H         -1.56690        9.74440        3.61520
H         -0.00520       10.19890        2.86160
H          1.97730        6.29010        4.30550
H          2.34220        4.66600        2.52610
H          1.41810        6.67640       -1.45570
H          0.34480        6.98290       -3.66090
H         -2.47360        3.29160       -5.32640
H         -3.49630        4.41950       -4.37850
H         -3.39280        4.56960       -6.14810
H         -1.72320        3.27100       -3.16000
H         -0.65270        2.97350       -0.98230
H          5.93320        1.40120       -2.51340
H          8.09370        0.48800       -3.15500
H         11.54870       -0.20690       -4.08930
H         10.08730       -0.70640       -3.21210
H          9.96690        0.42140       -4.60270
H         10.05300        3.76540       -1.22660
H          7.86270        4.70680       -0.60740
H          4.07030        5.88780       -0.96930
H          3.76340        7.19560        1.06720
H          4.80080        8.82300        2.58890
H          4.17280        8.96880        4.24820
H          3.13890        8.27060        2.98580
H          6.12130        4.36680        3.23840
H          6.42640        3.04390        1.17600
H         -0.23760        2.92850       -6.48770
H         -1.52610        1.04260       -5.54280
H         -0.74860        0.40770       -2.42340
H         -2.34230        0.24000       -3.21610
H         -1.81030       -0.96480       -2.02070
H          2.11200       -0.96090       -4.55490
H          3.39800        0.90230       -5.51270
H          1.87080        2.74290       -8.98570
H          0.84070        4.37040      -10.54400
H          0.30540        8.93660       -8.88910
H         -1.25190        8.12930       -8.52150
H         -1.06670        9.08930      -10.00790
H          0.59160        7.22660       -7.36360
H          1.62910        5.62400       -5.84510
H          6.22550        3.08130       -7.45840
H          2.97980        8.13150       -9.83030
H          4.83690        5.17750      -12.74320
