260

C         -3.48160       -8.03290        0.27190
C         -4.40130       -8.29330       -0.71960
C         -4.53160       -7.49050       -1.94740
O         -3.89990       -6.49290       -2.24430
C         -5.48160       -8.22640       -2.80720
C         -5.92960       -7.85770       -4.07120
C         -6.83920       -8.73130       -4.61960
C         -7.26650       -9.89160       -3.96320
C         -6.82630      -10.27120       -2.71700
C         -5.90430       -9.39470       -2.14300
C         -5.25390       -9.44220       -0.83660
C         -5.53620      -10.32690        0.17640
C         -6.43300      -11.40560        0.07470
N         -7.15750      -12.29780        0.07770
C         -5.02740      -10.20530        1.48400
N         -4.69900      -10.13710        2.58350
C         -8.17320      -10.29710       -5.09830
C         -7.68810      -11.42270       -6.04490
C         -6.18040      -11.39760       -6.00430
C         -5.77690      -10.29730       -6.62530
C         -7.00470       -9.55880       -7.09750
C         -7.93340      -10.74480       -7.40240
C         -7.69860       -9.00190       -5.82970
C         -2.94730       -6.77630        0.57750
C         -3.45810       -5.47570        0.39550
N         -4.68820       -5.11610       -0.08360
C         -4.81080       -3.85780       -0.71440
C         -3.87710       -3.45400       -1.66890
C         -3.97880       -2.21210       -2.25290
C         -5.01750       -1.35140       -1.89870
S         -5.03280        0.22500       -2.68690
C         -6.54160        1.02100       -2.06580
C         -5.96540       -1.76400       -0.97140
C         -5.86080       -3.01040       -0.38340
C         -5.81740       -5.93380       -0.00020
C         -6.05140       -6.73750        1.11410
C         -7.13890       -7.58610        1.15950
C         -8.01790       -7.65190        0.08390
S         -9.38530       -8.75460       -0.01740
C         -9.34880       -9.66460        1.55130
C         -7.81900       -6.80890       -1.00930
C         -6.73760       -5.95930       -1.05210
C         -2.52590       -4.51440        0.85320
S         -2.50600       -2.78510        0.91000
C         -0.87590       -2.79170        1.57350
C         -0.38560       -4.06650        1.73720
N          0.96400       -4.40040        1.98790
C          1.67020       -4.46710        0.75040
C          1.91530       -5.68080        0.11780
C          2.52840       -5.72300       -1.12070
C          2.89540       -4.54400       -1.75450
S          3.65430       -4.46110       -3.34690
C          3.75070       -6.19270       -3.87880
C          2.64430       -3.32610       -1.12700
C          2.03190       -3.28810        0.10640
C          1.22980       -5.30200        3.01450
C          0.30450       -5.47190        4.04410
C          0.56470       -6.31890        5.10130
C          1.75670       -7.02450        5.14680
S          2.18200       -8.11500        6.48030
C          0.56030       -8.67530        7.07550
C          2.69650       -6.84370        4.13860
C          2.44500       -5.98310        3.09300
C         -1.35020       -5.03660        1.36800
S         -1.36800       -6.75840        1.38120
C         -0.27030       -1.50000        1.71100
C          0.45180       -0.89150        2.71730
N          0.71610       -1.39760        3.99720
C          0.30650       -0.50610        5.01230
C         -0.99720       -0.01160        4.97570
C         -1.40060        0.95640        5.86890
C         -0.50920        1.44950        6.81610
S         -1.07260        2.73690        7.88820
C          0.45530        3.67730        8.18240
C          0.77350        0.92250        6.88970
C          1.18010       -0.04350        5.99220
C          1.78980       -2.26320        4.23680
C          1.80940       -3.01530        5.40830
C          2.88100       -3.83200        5.70690
C          3.94660       -3.92740        4.82220
S          5.37170       -4.93150        5.09300
C          5.11070       -5.64200        6.74120
C          3.92060       -3.19490        3.63850
C          2.86030       -2.36450        3.35210
C          0.75970        0.45150        2.36840
S          1.57440        1.72370        3.18410
C          1.30800        2.81830        1.82350
C          0.58770        2.21040        0.79510
N          0.12940        2.73220       -0.39950
C         -0.03840        1.78990       -1.44060
C         -1.23860        1.69790       -2.14300
C         -1.41150        0.70810       -3.08510
C         -0.39390       -0.20960       -3.34090
S         -0.73710       -1.47350       -4.52100
C          0.58690       -2.68440       -4.24430
C          0.82100       -0.09260       -2.67850
C          0.99360        0.89990       -1.73530
C         -0.20170        4.06640       -0.62340
C         -0.55770        4.92120        0.41940
C         -0.74810        6.26990        0.19480
C         -0.62640        6.79030       -1.08700
S         -0.74690        8.51390       -1.44330
C         -0.06880        9.24700        0.07420
C         -0.40350        5.92040       -2.15010
C         -0.18220        4.58200       -1.92350
C          0.29220        0.86090        1.13450
S         -0.58170       -0.41510        0.36020
C          1.81740        4.15590        1.96590
C          2.29720        4.94020        0.87630
N          2.56080        4.40510       -0.32670
C          2.92660        5.17470       -1.32360
C          3.50180        4.55830       -2.51750
C          4.57990        5.15670       -3.16440
C          5.13120        4.58520       -4.29490
C          4.60870        3.40910       -4.82730
O          5.04910        2.79850       -5.94960
C          6.15940        3.33440       -6.64110
C          6.43220        2.43250       -7.83440
C          3.52630        2.79100       -4.16680
C          3.00110        3.36060       -3.02340
O          3.04160        1.59480       -4.64910
C          1.79020        1.66500       -5.30860
C          1.86960        2.39040       -6.64670
C          2.79970        6.60520       -1.19330
C          2.64150        7.54390       -2.28990
C          2.78340        8.90690       -2.04400
C          2.57950        9.83320       -3.04810
C          2.23220        9.42620       -4.32860
O          2.01530       10.24290       -5.38020
C          2.06340       11.64370       -5.18440
C          1.71670       12.30230       -6.51020
C          2.08660        8.04010       -4.59070
O          1.75310        7.72400       -5.86960
C          1.67340        6.36350       -6.23550
C          1.40210        6.30990       -7.73120
C          2.27850        7.12590       -3.57760
N          2.77210        7.10490        0.02230
C          2.63070        6.30840        1.08100
C          2.76380        6.86450        2.38530
C          2.34020        6.05990        3.43390
C          1.85830        4.77220        3.21910
F          1.36200        4.14010        4.30390
F          2.23660        6.55730        4.67430
C          3.23260        8.21110        2.50450
C          4.00750        8.71730        3.49820
C          4.74610        7.90340        4.50350
O          4.82690        6.69690        4.55920
C          5.47500        8.87630        5.33760
C          6.27210        8.62240        6.42700
C          6.87360        9.71140        7.06510
C          7.73000        9.72660        8.20180
C          8.12650       10.97360        8.53770
S          7.49020       12.20610        7.50460
C          6.64580       11.01570        6.56420
C          5.84680       11.27260        5.45730
C          5.25660       10.18530        4.83910
C          4.38560       10.10840        3.67420
C          3.99640       11.17010        2.89710
C          3.17160       11.09960        1.75680
N          2.51300       11.14520        0.81580
C          4.39570       12.50440        3.12050
N          4.67900       13.61040        3.24320
H         -3.09840       -8.86120        0.85650
H         -5.57940       -6.95240       -4.54260
H         -7.16000      -11.16870       -2.22300
H         -9.22980      -10.38660       -4.85380
H         -8.15660      -12.38840       -5.87520
H         -5.58280      -12.12950       -5.49310
H         -4.77480       -9.92580       -6.73600
H         -6.85100       -8.82740       -7.88680
H         -8.97110      -10.45390       -7.56060
H         -7.58770      -11.34570       -8.24230
H         -8.44650       -8.24670       -6.06410
H         -3.09320       -4.13560       -1.95880
H         -3.25920       -1.89640       -2.99220
H         -6.47230        1.16480       -0.99150
H         -6.58860        1.98480       -2.56320
H         -7.41130        0.42730       -2.33160
H         -6.78560       -1.12480       -0.68750
H         -6.59460       -3.32550        0.34420
H         -5.37220       -6.70670        1.95300
H         -7.27960       -8.20000        2.03440
H        -10.19800      -10.33960        1.51190
H         -8.43200      -10.24100        1.63120
H         -9.46170       -8.97570        2.38320
H         -8.51340       -6.84970       -1.83430
H         -6.57910       -5.32490       -1.91070
H          1.61160       -6.60250        0.59200
H          2.69950       -6.68230       -1.58160
H          2.75360       -6.62040       -3.93060
H          4.19400       -6.16940       -4.86950
H          4.38900       -6.75490       -3.20350
H          2.93960       -2.41120       -1.61730
H          1.82040       -2.33890        0.56920
H         -0.62270       -4.91860        4.02830
H         -0.16820       -6.41670        5.88670
H          0.08830       -7.90180        7.67480
H         -0.05850       -8.94470        6.22530
H          0.75300       -9.54850        7.69100
H          3.63340       -7.37720        4.18520
H          3.19980       -5.83380        2.33720
H         -1.68220       -0.37590        4.22380
H         -2.40350        1.35310        5.83110
H          0.98040        3.80120        7.24040
H          1.07650        3.17530        8.91860
H          0.14240        4.64320        8.56610
H          1.47170        1.27690        7.63090
H          2.19010       -0.42270        6.03230
H          0.98120       -2.94220        6.09740
H          2.86800       -4.39540        6.62530
H          6.00150       -6.22610        6.95030
H          4.23990       -6.29140        6.73630
H          5.01160       -4.84620        7.47360
H          4.75330       -3.26890        2.95570
H          2.87390       -1.76800        2.45320
H         -2.04090        2.38710       -1.92770
H         -2.34890        0.62130       -3.61170
H          0.62380       -2.94870       -3.19140
H          0.31580       -3.55360       -4.83540
H          1.54210       -2.29550       -4.58490
H          1.63900       -0.76010       -2.89030
H          1.93050        0.97570       -1.20240
H         -0.68300        4.52980        1.41710
H         -0.99370        6.91120        1.02670
H         -0.83240        9.30440        0.84480
H          0.26910       10.24360       -0.18860
H          0.77610        8.64720        0.39610
H         -0.37400        6.32070       -3.15130
H          0.03720        3.93290       -2.75710
H          4.99880        6.07250       -2.77510
H          5.96990        5.07200       -4.76680
H          5.93710        4.35630       -6.98010
H          7.03620        3.36600       -5.98000
H          5.56910        2.41700       -8.49450
H          7.29520        2.79650       -8.38430
H          6.62510        1.41930       -7.49340
H          2.18240        2.87500       -2.52040
H          1.49850        0.62450       -5.46400
H          1.04130        2.14550       -4.66250
H          2.12390        3.43730       -6.49570
H          0.91050        2.32820       -7.15390
H          2.63610        1.93280       -7.26640
H          3.05350        9.24260       -1.05620
H          2.69280       10.87990       -2.81750
H          3.06970       11.94510       -4.86150
H          1.34220       11.93980       -4.41110
H          1.74490       13.38300       -6.40570
H          0.72240       11.99810       -6.82450
H          2.42800       11.99720       -7.27270
H          0.86120        5.86600       -5.68520
H          2.61860        5.85300       -5.99480
H          0.47540        6.83110       -7.95370
H          1.32130        5.27790       -8.06080
H          2.20900        6.79780       -8.27050
H          2.12420        6.07710       -3.76300
H          2.96950        8.83850        1.66300
H          6.42190        7.61310        6.77780
H          8.02570        8.83800        8.72950
H          8.76940       11.26460        9.34570
H          5.70850       12.28390        5.11290
