
  xtb     02122214133D
 energy: -372.238824939929 gnorm: 0.000591961121 xtb: 6.4.1 (unknown)
222245  0     0  0            999 V2000
   -0.5783    7.8680    0.5694 C   0  0  0  0  0  0  0  0  0  0  0  0
    0.4328    8.5396    1.2149 C   0  0  0  0  0  0  0  0  0  0  0  0
    0.1317    9.7610    1.9900 C   0  0  0  0  0  0  0  0  0  0  0  0
   -0.9448   10.3196    2.0857 O   0  0  0  0  0  0  0  0  0  0  0  0
    1.3747   10.0973    2.7106 C   0  0  0  0  0  0  0  0  0  0  0  0
    1.5787   11.1469    3.6023 C   0  0  0  0  0  0  0  0  0  0  0  0
    2.8578   11.2205    4.1011 C   0  0  0  0  0  0  0  0  0  0  0  0
    3.8699   10.3292    3.7239 C   0  0  0  0  0  0  0  0  0  0  0  0
    3.6801    9.2835    2.8511 C   0  0  0  0  0  0  0  0  0  0  0  0
    2.3802    9.1765    2.3540 C   0  0  0  0  0  0  0  0  0  0  0  0
    1.8215    8.2260    1.3934 C   0  0  0  0  0  0  0  0  0  0  0  0
    2.5508    7.3225    0.6503 C   0  0  0  0  0  0  0  0  0  0  0  0
    3.8719    6.9373    0.9368 C   0  0  0  0  0  0  0  0  0  0  0  0
    4.9218    6.5227    1.1541 N   0  0  0  0  0  0  0  0  0  0  0  0
    2.0765    6.7163   -0.5246 C   0  0  0  0  0  0  0  0  0  0  0  0
    1.7675    6.2311   -1.5204 N   0  0  0  0  0  0  0  0  0  0  0  0
    4.9127   11.0342    4.5571 C   0  0  0  0  0  0  0  0  0  0  0  0
    5.3553   10.3872    5.8912 C   0  0  0  0  0  0  0  0  0  0  0  0
    4.1992    9.5381    6.3565 C   0  0  0  0  0  0  0  0  0  0  0  0
    3.2207   10.3534    6.7271 C   0  0  0  0  0  0  0  0  0  0  0  0
    3.7012   11.7693    6.5258 C   0  0  0  0  0  0  0  0  0  0  0  0
    5.1978   11.5933    6.8311 C   0  0  0  0  0  0  0  0  0  0  0  0
    3.7770   12.0107    4.9979 C   0  0  0  0  0  0  0  0  0  0  0  0
   -0.6724    6.5163    0.2099 C   0  0  0  0  0  0  0  0  0  0  0  0
   -0.0431    5.3656    0.7254 C   0  0  0  0  0  0  0  0  0  0  0  0
    0.7025    5.3157    1.8794 N   0  0  0  0  0  0  0  0  0  0  0  0
    0.4287    6.1862    2.9491 C   0  0  0  0  0  0  0  0  0  0  0  0
   -0.8705    6.6165    3.2092 C   0  0  0  0  0  0  0  0  0  0  0  0
   -1.1155    7.5674    4.1750 C   0  0  0  0  0  0  0  0  0  0  0  0
   -0.0626    8.0936    4.9153 C   0  0  0  0  0  0  0  0  0  0  0  0
   -0.2877    9.3957    6.0775 S   0  0  0  0  0  0  0  0  0  0  0  0
   -1.7504   10.2555    5.4254 C   0  0  0  0  0  0  0  0  0  0  0  0
    1.2195    7.5809    4.7414 C   0  0  0  0  0  0  0  0  0  0  0  0
    1.4664    6.6412    3.7631 C   0  0  0  0  0  0  0  0  0  0  0  0
    1.5502    4.2148    2.1158 C   0  0  0  0  0  0  0  0  0  0  0  0
    2.4263    3.7680    1.1309 C   0  0  0  0  0  0  0  0  0  0  0  0
    3.2280    2.6664    1.3556 C   0  0  0  0  0  0  0  0  0  0  0  0
    3.1623    1.9963    2.5682 C   0  0  0  0  0  0  0  0  0  0  0  0
    4.1308    0.5629    2.9208 S   0  0  0  0  0  0  0  0  0  0  0  0
    4.4876   -0.1032    1.2708 C   0  0  0  0  0  0  0  0  0  0  0  0
    2.3161    2.4636    3.5698 C   0  0  0  0  0  0  0  0  0  0  0  0
    1.5157    3.5606    3.3464 C   0  0  0  0  0  0  0  0  0  0  0  0
   -0.3887    4.2287   -0.0341 C   0  0  0  0  0  0  0  0  0  0  0  0
    0.0272    2.5542    0.0346 S   0  0  0  0  0  0  0  0  0  0  0  0
   -1.0491    2.1801   -1.3155 C   0  0  0  0  0  0  0  0  0  0  0  0
   -1.7224    3.3131   -1.7625 C   0  0  0  0  0  0  0  0  0  0  0  0
   -2.7138    3.3986   -2.7369 N   0  0  0  0  0  0  0  0  0  0  0  0
   -2.6643    4.5451   -3.5498 C   0  0  0  0  0  0  0  0  0  0  0  0
   -3.8052    5.2552   -3.9123 C   0  0  0  0  0  0  0  0  0  0  0  0
   -3.7173    6.3633   -4.7332 C   0  0  0  0  0  0  0  0  0  0  0  0
   -2.4803    6.8056   -5.1797 C   0  0  0  0  0  0  0  0  0  0  0  0
   -2.2541    8.1742   -6.2753 S   0  0  0  0  0  0  0  0  0  0  0  0
   -3.8553    9.0282   -6.2376 C   0  0  0  0  0  0  0  0  0  0  0  0
   -1.3297    6.1352   -4.7721 C   0  0  0  0  0  0  0  0  0  0  0  0
   -1.4209    5.0182   -3.9757 C   0  0  0  0  0  0  0  0  0  0  0  0
   -3.8630    2.6047   -2.6612 C   0  0  0  0  0  0  0  0  0  0  0  0
   -4.6835    2.4334   -3.7751 C   0  0  0  0  0  0  0  0  0  0  0  0
   -5.8427    1.6882   -3.7045 C   0  0  0  0  0  0  0  0  0  0  0  0
   -6.2093    1.0795   -2.5122 C   0  0  0  0  0  0  0  0  0  0  0  0
   -7.6477    0.0774   -2.3132 S   0  0  0  0  0  0  0  0  0  0  0  0
   -8.3473   -0.0274   -3.9842 C   0  0  0  0  0  0  0  0  0  0  0  0
   -5.3918    1.2382   -1.3950 C   0  0  0  0  0  0  0  0  0  0  0  0
   -4.2382    1.9889   -1.4652 C   0  0  0  0  0  0  0  0  0  0  0  0
   -1.3104    4.4621   -1.0431 C   0  0  0  0  0  0  0  0  0  0  0  0
   -1.7945    6.1154   -1.0936 S   0  0  0  0  0  0  0  0  0  0  0  0
   -1.0903    0.7986   -1.6565 C   0  0  0  0  0  0  0  0  0  0  0  0
   -1.5231    0.0875   -2.7708 C   0  0  0  0  0  0  0  0  0  0  0  0
   -1.9641    0.5951   -3.9853 N   0  0  0  0  0  0  0  0  0  0  0  0
   -1.2240    1.5570   -4.6841 C   0  0  0  0  0  0  0  0  0  0  0  0
   -1.8087    2.2600   -5.7359 C   0  0  0  0  0  0  0  0  0  0  0  0
   -1.0903    3.1832   -6.4678 C   0  0  0  0  0  0  0  0  0  0  0  0
    0.2398    3.4343   -6.1605 C   0  0  0  0  0  0  0  0  0  0  0  0
    1.2511    4.6005   -7.0115 S   0  0  0  0  0  0  0  0  0  0  0  0
    0.1118    5.4148   -8.1656 C   0  0  0  0  0  0  0  0  0  0  0  0
    0.8327    2.7363   -5.1102 C   0  0  0  0  0  0  0  0  0  0  0  0
    0.1153    1.8115   -4.3835 C   0  0  0  0  0  0  0  0  0  0  0  0
   -2.9157   -0.2023   -4.6500 C   0  0  0  0  0  0  0  0  0  0  0  0
   -3.9804   -0.7209   -3.9127 C   0  0  0  0  0  0  0  0  0  0  0  0
   -4.8951   -1.5654   -4.5000 C   0  0  0  0  0  0  0  0  0  0  0  0
   -4.7634   -1.9102   -5.8395 C   0  0  0  0  0  0  0  0  0  0  0  0
   -5.9511   -3.0193   -6.5338 S   0  0  0  0  0  0  0  0  0  0  0  0
   -4.9197   -3.9463   -7.7087 C   0  0  0  0  0  0  0  0  0  0  0  0
   -3.7146   -1.3873   -6.5837 C   0  0  0  0  0  0  0  0  0  0  0  0
   -2.7925   -0.5492   -5.9923 C   0  0  0  0  0  0  0  0  0  0  0  0
   -1.3914   -1.3120   -2.5635 C   0  0  0  0  0  0  0  0  0  0  0  0
   -1.7555   -2.6863   -3.5399 S   0  0  0  0  0  0  0  0  0  0  0  0
   -1.1228   -3.7679   -2.2923 C   0  0  0  0  0  0  0  0  0  0  0  0
   -0.5550   -3.0590   -1.2168 C   0  0  0  0  0  0  0  0  0  0  0  0
    0.1891   -3.5596   -0.1717 N   0  0  0  0  0  0  0  0  0  0  0  0
    0.2283   -2.8319    1.0347 C   0  0  0  0  0  0  0  0  0  0  0  0
   -0.9441   -2.3509    1.6159 C   0  0  0  0  0  0  0  0  0  0  0  0
   -0.8880   -1.6304    2.7894 C   0  0  0  0  0  0  0  0  0  0  0  0
    0.3344   -1.3873    3.4115 C   0  0  0  0  0  0  0  0  0  0  0  0
    0.3071   -0.4410    4.8981 S   0  0  0  0  0  0  0  0  0  0  0  0
    1.8975   -0.8444    5.6814 C   0  0  0  0  0  0  0  0  0  0  0  0
    1.5031   -1.8773    2.8418 C   0  0  0  0  0  0  0  0  0  0  0  0
    1.4474   -2.5884    1.6611 C   0  0  0  0  0  0  0  0  0  0  0  0
    1.0076   -4.6880   -0.2829 C   0  0  0  0  0  0  0  0  0  0  0  0
    1.1953   -5.5108    0.8282 C   0  0  0  0  0  0  0  0  0  0  0  0
    1.9037   -6.6882    0.7245 C   0  0  0  0  0  0  0  0  0  0  0  0
    2.4329   -7.0750   -0.5000 C   0  0  0  0  0  0  0  0  0  0  0  0
    3.1959   -8.6399   -0.7890 S   0  0  0  0  0  0  0  0  0  0  0  0
    3.5394   -9.2727    0.8792 C   0  0  0  0  0  0  0  0  0  0  0  0
    2.3158   -6.2212   -1.5953 C   0  0  0  0  0  0  0  0  0  0  0  0
    1.6246   -5.0346   -1.4870 C   0  0  0  0  0  0  0  0  0  0  0  0
   -0.7804   -1.6719   -1.3745 C   0  0  0  0  0  0  0  0  0  0  0  0
   -0.4044   -0.2732   -0.4276 S   0  0  0  0  0  0  0  0  0  0  0  0
   -1.2904   -5.1507   -2.4948 C   0  0  0  0  0  0  0  0  0  0  0  0
   -1.6482   -5.8079   -3.6721 C   0  0  0  0  0  0  0  0  0  0  0  0
   -2.0046   -5.4763   -5.0570 C   0  0  0  0  0  0  0  0  0  0  0  0
   -2.1857   -4.4085   -5.6001 O   0  0  0  0  0  0  0  0  0  0  0  0
   -2.1238   -6.7009   -5.7049 N   0  0  0  0  0  0  0  0  0  0  0  0
   -2.4638   -6.8388   -7.0988 C   0  0  0  0  0  0  0  0  0  0  0  0
   -1.8938   -7.7956   -4.8766 C   0  0  0  0  0  0  0  0  0  0  0  0
   -1.9631   -8.9482   -5.2200 O   0  0  0  0  0  0  0  0  0  0  0  0
   -1.5905   -7.2026   -3.5668 C   0  0  0  0  0  0  0  0  0  0  0  0
   -1.2256   -7.6912   -2.3214 C   0  0  0  0  0  0  0  0  0  0  0  0
   -1.0831   -6.3367   -1.2138 S   0  0  0  0  0  0  0  0  0  0  0  0
   -0.8146   -9.0135   -2.0950 C   0  0  0  0  0  0  0  0  0  0  0  0
   -0.3340   -9.5610   -0.9363 C   0  0  0  0  0  0  0  0  0  0  0  0
   -0.4666   -8.9611    0.3964 C   0  0  0  0  0  0  0  0  0  0  0  0
   -0.9132   -7.8608    0.6752 O   0  0  0  0  0  0  0  0  0  0  0  0
    0.0076   -9.9750    1.3525 C   0  0  0  0  0  0  0  0  0  0  0  0
    0.0397   -9.8703    2.7431 C   0  0  0  0  0  0  0  0  0  0  0  0
    0.5324  -10.9855    3.3771 C   0  0  0  0  0  0  0  0  0  0  0  0
    0.9481  -12.1289    2.6812 C   0  0  0  0  0  0  0  0  0  0  0  0
    0.9237  -12.2453    1.3112 C   0  0  0  0  0  0  0  0  0  0  0  0
    0.4409  -11.1156    0.6445 C   0  0  0  0  0  0  0  0  0  0  0  0
    0.3042  -10.8520   -0.7872 C   0  0  0  0  0  0  0  0  0  0  0  0
    0.8208  -11.6219   -1.7948 C   0  0  0  0  0  0  0  0  0  0  0  0
    0.8400  -11.2609   -3.1602 C   0  0  0  0  0  0  0  0  0  0  0  0
    0.9435  -11.0293   -4.2795 N   0  0  0  0  0  0  0  0  0  0  0  0
    1.4877  -12.8470   -1.5911 C   0  0  0  0  0  0  0  0  0  0  0  0
    2.0385  -13.8490   -1.4861 N   0  0  0  0  0  0  0  0  0  0  0  0
    1.3047  -12.8675    3.9473 C   0  0  0  0  0  0  0  0  0  0  0  0
    2.8053  -12.9648    4.2937 C   0  0  0  0  0  0  0  0  0  0  0  0
    2.8152  -13.2915    5.7696 C   0  0  0  0  0  0  0  0  0  0  0  0
    2.4316  -12.2042    6.4263 C   0  0  0  0  0  0  0  0  0  0  0  0
    2.1543  -11.1243    5.4050 C   0  0  0  0  0  0  0  0  0  0  0  0
    3.2069  -11.4853    4.3488 C   0  0  0  0  0  0  0  0  0  0  0  0
    0.8500  -11.5894    4.7228 C   0  0  0  0  0  0  0  0  0  0  0  0
   -1.4540    8.4707    0.3463 H   0  0  0  0  0  0  0  0  0  0  0  0
    0.7835   11.8340    3.8465 H   0  0  0  0  0  0  0  0  0  0  0  0
    4.4656    8.6010    2.5706 H   0  0  0  0  0  0  0  0  0  0  0  0
    5.7495   11.4523    4.0005 H   0  0  0  0  0  0  0  0  0  0  0  0
    6.3268    9.9010    5.8583 H   0  0  0  0  0  0  0  0  0  0  0  0
    4.1997    8.4638    6.3225 H   0  0  0  0  0  0  0  0  0  0  0  0
    2.2300   10.1007    7.0565 H   0  0  0  0  0  0  0  0  0  0  0  0
    3.1647   12.5373    7.0767 H   0  0  0  0  0  0  0  0  0  0  0  0
    5.3882   11.3421    7.8734 H   0  0  0  0  0  0  0  0  0  0  0  0
    5.8042   12.4509    6.5426 H   0  0  0  0  0  0  0  0  0  0  0  0
    3.8888   13.0660    4.7548 H   0  0  0  0  0  0  0  0  0  0  0  0
   -1.6946    6.2132    2.6404 H   0  0  0  0  0  0  0  0  0  0  0  0
   -2.1280    7.8965    4.3424 H   0  0  0  0  0  0  0  0  0  0  0  0
   -2.6566    9.7203    5.6942 H   0  0  0  0  0  0  0  0  0  0  0  0
   -1.6559   10.3582    4.3477 H   0  0  0  0  0  0  0  0  0  0  0  0
   -1.7524   11.2332    5.8971 H   0  0  0  0  0  0  0  0  0  0  0  0
    2.0248    7.9628    5.3482 H   0  0  0  0  0  0  0  0  0  0  0  0
    2.4703    6.2741    3.6062 H   0  0  0  0  0  0  0  0  0  0  0  0
    2.4857    4.2827    0.1844 H   0  0  0  0  0  0  0  0  0  0  0  0
    3.9024    2.3489    0.5774 H   0  0  0  0  0  0  0  0  0  0  0  0
    4.8645   -1.1090    1.4287 H   0  0  0  0  0  0  0  0  0  0  0  0
    5.2466    0.4966    0.7774 H   0  0  0  0  0  0  0  0  0  0  0  0
    3.5671   -0.1324    0.6952 H   0  0  0  0  0  0  0  0  0  0  0  0
    2.2758    1.9534    4.5186 H   0  0  0  0  0  0  0  0  0  0  0  0
    0.8430    3.9032    4.1180 H   0  0  0  0  0  0  0  0  0  0  0  0
   -4.7728    4.9496   -3.5439 H   0  0  0  0  0  0  0  0  0  0  0  0
   -4.6245    6.8783   -5.0063 H   0  0  0  0  0  0  0  0  0  0  0  0
   -4.6136    8.4331   -6.7386 H   0  0  0  0  0  0  0  0  0  0  0  0
   -4.1317    9.2361   -5.2083 H   0  0  0  0  0  0  0  0  0  0  0  0
   -3.7045    9.9583   -6.7767 H   0  0  0  0  0  0  0  0  0  0  0  0
   -0.3626    6.4973   -5.0843 H   0  0  0  0  0  0  0  0  0  0  0  0
   -0.5204    4.5093   -3.6713 H   0  0  0  0  0  0  0  0  0  0  0  0
   -4.4141    2.8944   -4.7115 H   0  0  0  0  0  0  0  0  0  0  0  0
   -6.4450    1.5834   -4.5920 H   0  0  0  0  0  0  0  0  0  0  0  0
   -9.2007   -0.6930   -3.8995 H   0  0  0  0  0  0  0  0  0  0  0  0
   -8.6785    0.9538   -4.3120 H   0  0  0  0  0  0  0  0  0  0  0  0
   -7.6174   -0.4506   -4.6685 H   0  0  0  0  0  0  0  0  0  0  0  0
   -5.6760    0.7675   -0.4660 H   0  0  0  0  0  0  0  0  0  0  0  0
   -3.6314    2.1110   -0.5808 H   0  0  0  0  0  0  0  0  0  0  0  0
   -2.8386    2.0713   -5.9947 H   0  0  0  0  0  0  0  0  0  0  0  0
   -1.5838    3.7034   -7.2725 H   0  0  0  0  0  0  0  0  0  0  0  0
   -0.2507    4.7008   -8.8995 H   0  0  0  0  0  0  0  0  0  0  0  0
    0.7000    6.1819   -8.6596 H   0  0  0  0  0  0  0  0  0  0  0  0
   -0.7054    5.8758   -7.6186 H   0  0  0  0  0  0  0  0  0  0  0  0
    1.8679    2.9273   -4.8725 H   0  0  0  0  0  0  0  0  0  0  0  0
    0.6044    1.2699   -3.5884 H   0  0  0  0  0  0  0  0  0  0  0  0
   -4.0639   -0.4810   -2.8644 H   0  0  0  0  0  0  0  0  0  0  0  0
   -5.7019   -1.9831   -3.9176 H   0  0  0  0  0  0  0  0  0  0  0  0
   -5.4350   -4.8842   -7.8917 H   0  0  0  0  0  0  0  0  0  0  0  0
   -3.9535   -4.1197   -7.2442 H   0  0  0  0  0  0  0  0  0  0  0  0
   -4.8185   -3.3980   -8.6411 H   0  0  0  0  0  0  0  0  0  0  0  0
   -3.5963   -1.6463   -7.6235 H   0  0  0  0  0  0  0  0  0  0  0  0
   -1.9571   -0.1836   -6.5699 H   0  0  0  0  0  0  0  0  0  0  0  0
   -1.8945   -2.5546    1.1462 H   0  0  0  0  0  0  0  0  0  0  0  0
   -1.7923   -1.2546    3.2422 H   0  0  0  0  0  0  0  0  0  0  0  0
    2.0037   -1.9230    5.7434 H   0  0  0  0  0  0  0  0  0  0  0  0
    2.7215   -0.3999    5.1301 H   0  0  0  0  0  0  0  0  0  0  0  0
    1.8483   -0.4192    6.6791 H   0  0  0  0  0  0  0  0  0  0  0  0
    2.4609   -1.6926    3.2991 H   0  0  0  0  0  0  0  0  0  0  0  0
    2.3580   -2.9576    1.2120 H   0  0  0  0  0  0  0  0  0  0  0  0
    0.7371   -5.2478    1.7686 H   0  0  0  0  0  0  0  0  0  0  0  0
    2.0013   -7.3147    1.5961 H   0  0  0  0  0  0  0  0  0  0  0  0
    4.1382   -8.5516    1.4275 H   0  0  0  0  0  0  0  0  0  0  0  0
    2.6105   -9.4912    1.3987 H   0  0  0  0  0  0  0  0  0  0  0  0
    4.1025  -10.1894    0.7323 H   0  0  0  0  0  0  0  0  0  0  0  0
    2.7597   -6.5095   -2.5357 H   0  0  0  0  0  0  0  0  0  0  0  0
    1.5343   -4.3856   -2.3449 H   0  0  0  0  0  0  0  0  0  0  0  0
   -3.5466   -6.8071   -7.2379 H   0  0  0  0  0  0  0  0  0  0  0  0
   -2.0043   -6.0265   -7.6605 H   0  0  0  0  0  0  0  0  0  0  0  0
   -2.0869   -7.8002   -7.4441 H   0  0  0  0  0  0  0  0  0  0  0  0
   -0.8500   -9.6309   -2.9857 H   0  0  0  0  0  0  0  0  0  0  0  0
   -0.3049   -8.9756    3.2385 H   0  0  0  0  0  0  0  0  0  0  0  0
    1.2385  -13.1345    0.7915 H   0  0  0  0  0  0  0  0  0  0  0  0
    0.7671  -13.7980    4.1183 H   0  0  0  0  0  0  0  0  0  0  0  0
    3.3814  -13.6169    3.6431 H   0  0  0  0  0  0  0  0  0  0  0  0
    3.0392  -14.2637    6.1672 H   0  0  0  0  0  0  0  0  0  0  0  0
    2.2707  -12.0867    7.4818 H   0  0  0  0  0  0  0  0  0  0  0  0
    2.1394  -10.1001    5.7686 H   0  0  0  0  0  0  0  0  0  0  0  0
    4.2226  -11.3479    4.7163 H   0  0  0  0  0  0  0  0  0  0  0  0
    3.0892  -10.9589    3.4034 H   0  0  0  0  0  0  0  0  0  0  0  0
    0.0142  -11.6696    5.4154 H   0  0  0  0  0  0  0  0  0  0  0  0
  1  2  2  0  0  0  0
  2  3  1  0  0  0  0
  3  4  2  0  0  0  0
  3  5  1  0  0  0  0
  5  6  2  0  0  0  0
  6  7  1  0  0  0  0
  7  8  2  0  0  0  0
  8  9  1  0  0  0  0
  9 10  2  0  0  0  0
 10 11  1  0  0  0  0
 11 12  2  0  0  0  0
 12 13  1  0  0  0  0
 13 14  3  0  0  0  0
 12 15  1  0  0  0  0
 15 16  3  0  0  0  0
  8 17  1  0  0  0  0
 17 18  1  0  0  0  0
 18 19  1  0  0  0  0
 19 20  2  0  0  0  0
 20 21  1  0  0  0  0
 21 22  1  0  0  0  0
 21 23  1  0  0  0  0
  1 24  1  0  0  0  0
 24 25  2  0  0  0  0
 25 26  1  0  0  0  0
 26 27  1  0  0  0  0
 27 28  2  0  0  0  0
 28 29  1  0  0  0  0
 29 30  2  0  0  0  0
 30 31  1  0  0  0  0
 31 32  1  0  0  0  0
 30 33  1  0  0  0  0
 33 34  2  0  0  0  0
 26 35  1  0  0  0  0
 35 36  2  0  0  0  0
 36 37  1  0  0  0  0
 37 38  2  0  0  0  0
 38 39  1  0  0  0  0
 39 40  1  0  0  0  0
 38 41  1  0  0  0  0
 41 42  2  0  0  0  0
 25 43  1  0  0  0  0
 43 44  1  0  0  0  0
 44 45  1  0  0  0  0
 45 46  2  0  0  0  0
 46 47  1  0  0  0  0
 47 48  1  0  0  0  0
 48 49  2  0  0  0  0
 49 50  1  0  0  0  0
 50 51  2  0  0  0  0
 51 52  1  0  0  0  0
 52 53  1  0  0  0  0
 51 54  1  0  0  0  0
 54 55  2  0  0  0  0
 47 56  1  0  0  0  0
 56 57  2  0  0  0  0
 57 58  1  0  0  0  0
 58 59  2  0  0  0  0
 59 60  1  0  0  0  0
 60 61  1  0  0  0  0
 59 62  1  0  0  0  0
 62 63  2  0  0  0  0
 46 64  1  0  0  0  0
 64 65  1  0  0  0  0
 45 66  1  0  0  0  0
 66 67  2  0  0  0  0
 67 68  1  0  0  0  0
 68 69  1  0  0  0  0
 69 70  2  0  0  0  0
 70 71  1  0  0  0  0
 71 72  2  0  0  0  0
 72 73  1  0  0  0  0
 73 74  1  0  0  0  0
 72 75  1  0  0  0  0
 75 76  2  0  0  0  0
 68 77  1  0  0  0  0
 77 78  2  0  0  0  0
 78 79  1  0  0  0  0
 79 80  2  0  0  0  0
 80 81  1  0  0  0  0
 81 82  1  0  0  0  0
 80 83  1  0  0  0  0
 83 84  2  0  0  0  0
 67 85  1  0  0  0  0
 85 86  1  0  0  0  0
 86 87  1  0  0  0  0
 87 88  2  0  0  0  0
 88 89  1  0  0  0  0
 89 90  1  0  0  0  0
 90 91  2  0  0  0  0
 91 92  1  0  0  0  0
 92 93  2  0  0  0  0
 93 94  1  0  0  0  0
 94 95  1  0  0  0  0
 93 96  1  0  0  0  0
 96 97  2  0  0  0  0
 89 98  1  0  0  0  0
 98 99  2  0  0  0  0
 99100  1  0  0  0  0
100101  2  0  0  0  0
101102  1  0  0  0  0
102103  1  0  0  0  0
101104  1  0  0  0  0
104105  2  0  0  0  0
 88106  1  0  0  0  0
106107  1  0  0  0  0
 87108  1  0  0  0  0
108109  2  0  0  0  0
109110  1  0  0  0  0
110111  2  0  0  0  0
110112  1  0  0  0  0
112113  1  0  0  0  0
112114  1  0  0  0  0
114115  2  0  0  0  0
114116  1  0  0  0  0
116117  2  0  0  0  0
117118  1  0  0  0  0
117119  1  0  0  0  0
119120  2  0  0  0  0
120121  1  0  0  0  0
121122  2  0  0  0  0
121123  1  0  0  0  0
123124  2  0  0  0  0
124125  1  0  0  0  0
125126  2  0  0  0  0
126127  1  0  0  0  0
127128  2  0  0  0  0
128129  1  0  0  0  0
129130  2  0  0  0  0
130131  1  0  0  0  0
131132  3  0  0  0  0
130133  1  0  0  0  0
133134  3  0  0  0  0
126135  1  0  0  0  0
135136  1  0  0  0  0
136137  1  0  0  0  0
137138  2  0  0  0  0
138139  1  0  0  0  0
139140  1  0  0  0  0
139141  1  0  0  0  0
 11  2  1  0  0  0  0
 23 17  1  0  0  0  0
 65 24  1  0  0  0  0
107 66  1  0  0  0  0
118108  1  0  0  0  0
129120  1  0  0  0  0
141135  1  0  0  0  0
 10  5  1  0  0  0  0
 22 18  1  0  0  0  0
 34 27  1  0  0  0  0
 42 35  1  0  0  0  0
 64 43  2  0  0  0  0
 76 69  1  0  0  0  0
 84 77  1  0  0  0  0
106 85  2  0  0  0  0
116109  1  0  0  0  0
128123  1  0  0  0  0
140136  1  0  0  0  0
 23  7  1  0  0  0  0
 55 48  1  0  0  0  0
 63 56  1  0  0  0  0
 97 90  1  0  0  0  0
105 98  1  0  0  0  0
141125  1  0  0  0  0
  1142  1  0  0  0  0
  6143  1  0  0  0  0
  9144  1  0  0  0  0
 17145  1  0  0  0  0
 18146  1  0  0  0  0
 19147  1  0  0  0  0
 20148  1  0  0  0  0
 21149  1  0  0  0  0
 22150  1  0  0  0  0
 22151  1  0  0  0  0
 23152  1  0  0  0  0
 28153  1  0  0  0  0
 29154  1  0  0  0  0
 32155  1  0  0  0  0
 32156  1  0  0  0  0
 32157  1  0  0  0  0
 33158  1  0  0  0  0
 34159  1  0  0  0  0
 36160  1  0  0  0  0
 37161  1  0  0  0  0
 40162  1  0  0  0  0
 40163  1  0  0  0  0
 40164  1  0  0  0  0
 41165  1  0  0  0  0
 42166  1  0  0  0  0
 49167  1  0  0  0  0
 50168  1  0  0  0  0
 53169  1  0  0  0  0
 53170  1  0  0  0  0
 53171  1  0  0  0  0
 54172  1  0  0  0  0
 55173  1  0  0  0  0
 57174  1  0  0  0  0
 58175  1  0  0  0  0
 61176  1  0  0  0  0
 61177  1  0  0  0  0
 61178  1  0  0  0  0
 62179  1  0  0  0  0
 63180  1  0  0  0  0
 70181  1  0  0  0  0
 71182  1  0  0  0  0
 74183  1  0  0  0  0
 74184  1  0  0  0  0
 74185  1  0  0  0  0
 75186  1  0  0  0  0
 76187  1  0  0  0  0
 78188  1  0  0  0  0
 79189  1  0  0  0  0
 82190  1  0  0  0  0
 82191  1  0  0  0  0
 82192  1  0  0  0  0
 83193  1  0  0  0  0
 84194  1  0  0  0  0
 91195  1  0  0  0  0
 92196  1  0  0  0  0
 95197  1  0  0  0  0
 95198  1  0  0  0  0
 95199  1  0  0  0  0
 96200  1  0  0  0  0
 97201  1  0  0  0  0
 99202  1  0  0  0  0
100203  1  0  0  0  0
103204  1  0  0  0  0
103205  1  0  0  0  0
103206  1  0  0  0  0
104207  1  0  0  0  0
105208  1  0  0  0  0
113209  1  0  0  0  0
113210  1  0  0  0  0
113211  1  0  0  0  0
119212  1  0  0  0  0
124213  1  0  0  0  0
127214  1  0  0  0  0
135215  1  0  0  0  0
136216  1  0  0  0  0
137217  1  0  0  0  0
138218  1  0  0  0  0
139219  1  0  0  0  0
140220  1  0  0  0  0
140221  1  0  0  0  0
141222  1  0  0  0  0
M  END
