
  xtb     02042213203D
 energy: -313.180442737786 gnorm: 0.000633518628 xtb: 6.4.1 (unknown)
183201  0     0  0            999 V2000
    0.9541   -7.2343   -1.1963 C   0  0  0  0  0  0  0  0  0  0  0  0
    2.1784   -7.5221   -1.7362 C   0  0  0  0  0  0  0  0  0  0  0  0
    2.9187   -6.6772   -2.6804 C   0  0  0  0  0  0  0  0  0  0  0  0
    2.5702   -5.6055   -3.1443 O   0  0  0  0  0  0  0  0  0  0  0  0
    4.1645   -7.3975   -2.9915 C   0  0  0  0  0  0  0  0  0  0  0  0
    5.1839   -6.9814   -3.8441 C   0  0  0  0  0  0  0  0  0  0  0  0
    6.2281   -7.8696   -3.9418 C   0  0  0  0  0  0  0  0  0  0  0  0
    6.2568   -9.0828   -3.2421 C   0  0  0  0  0  0  0  0  0  0  0  0
    5.2602   -9.5025   -2.3935 C   0  0  0  0  0  0  0  0  0  0  0  0
    4.1877   -8.6133   -2.2796 C   0  0  0  0  0  0  0  0  0  0  0  0
    2.9786   -8.6987   -1.4642 C   0  0  0  0  0  0  0  0  0  0  0  0
    2.7112   -9.6829   -0.5462 C   0  0  0  0  0  0  0  0  0  0  0  0
    3.5395  -10.7969   -0.2995 C   0  0  0  0  0  0  0  0  0  0  0  0
    4.1591  -11.7264   -0.0320 N   0  0  0  0  0  0  0  0  0  0  0  0
    1.6145   -9.7026    0.3393 C   0  0  0  0  0  0  0  0  0  0  0  0
    0.7809   -9.7805    1.1275 N   0  0  0  0  0  0  0  0  0  0  0  0
    7.5940   -9.4769   -3.8185 C   0  0  0  0  0  0  0  0  0  0  0  0
    7.5752  -10.5248   -4.9513 C   0  0  0  0  0  0  0  0  0  0  0  0
    8.9174  -10.3529   -5.6253 C   0  0  0  0  0  0  0  0  0  0  0  0
    8.8920   -9.2033   -6.2875 C   0  0  0  0  0  0  0  0  0  0  0  0
    7.5321   -8.5791   -6.0726 C   0  0  0  0  0  0  0  0  0  0  0  0
    6.6707   -9.8459   -5.9880 C   0  0  0  0  0  0  0  0  0  0  0  0
    7.5628   -8.1232   -4.5982 C   0  0  0  0  0  0  0  0  0  0  0  0
    0.2098   -6.0444   -1.2397 C   0  0  0  0  0  0  0  0  0  0  0  0
   -0.9411   -5.8640   -0.4787 C   0  0  0  0  0  0  0  0  0  0  0  0
   -1.4006   -4.5512   -0.4457 C   0  0  0  0  0  0  0  0  0  0  0  0
   -2.6208   -4.0814    0.2222 C   0  0  0  0  0  0  0  0  0  0  0  0
   -2.9325   -4.4294    1.5445 C   0  0  0  0  0  0  0  0  0  0  0  0
   -2.0415   -5.2410    2.1734 O   0  0  0  0  0  0  0  0  0  0  0  0
   -2.3591   -5.8016    3.4346 C   0  0  0  0  0  0  0  0  0  0  0  0
   -2.0455   -4.8779    4.6083 C   0  0  0  0  0  0  0  0  0  0  0  0
   -4.1033   -3.9489    2.1236 C   0  0  0  0  0  0  0  0  0  0  0  0
   -4.9534   -3.1410    1.3940 C   0  0  0  0  0  0  0  0  0  0  0  0
   -4.6828   -2.8189    0.0778 C   0  0  0  0  0  0  0  0  0  0  0  0
   -3.5243   -3.3014   -0.5201 C   0  0  0  0  0  0  0  0  0  0  0  0
   -3.2028   -3.1039   -1.8239 O   0  0  0  0  0  0  0  0  0  0  0  0
   -4.1892   -2.6271   -2.7205 C   0  0  0  0  0  0  0  0  0  0  0  0
   -3.6801   -2.8846   -4.1301 C   0  0  0  0  0  0  0  0  0  0  0  0
   -0.5910   -3.7133   -1.2092 C   0  0  0  0  0  0  0  0  0  0  0  0
    0.6690   -4.5570   -2.0278 S   0  0  0  0  0  0  0  0  0  0  0  0
   -0.6003   -2.2776   -1.1036 C   0  0  0  0  0  0  0  0  0  0  0  0
   -0.3679   -1.6365    0.0979 C   0  0  0  0  0  0  0  0  0  0  0  0
    0.0278   -2.2977    1.2585 N   0  0  0  0  0  0  0  0  0  0  0  0
    1.0501   -3.2552    1.1678 C   0  0  0  0  0  0  0  0  0  0  0  0
    0.9873   -4.4413    1.8931 C   0  0  0  0  0  0  0  0  0  0  0  0
    1.9608   -5.4106    1.7548 C   0  0  0  0  0  0  0  0  0  0  0  0
    3.0292   -5.2050    0.8933 C   0  0  0  0  0  0  0  0  0  0  0  0
    4.2999   -6.4019    0.5979 S   0  0  0  0  0  0  0  0  0  0  0  0
    4.0959   -7.5900    1.9562 C   0  0  0  0  0  0  0  0  0  0  0  0
    3.1144   -4.0108    0.1837 C   0  0  0  0  0  0  0  0  0  0  0  0
    2.1373   -3.0481    0.3170 C   0  0  0  0  0  0  0  0  0  0  0  0
   -0.5586   -1.9462    2.4707 C   0  0  0  0  0  0  0  0  0  0  0  0
   -1.8578   -1.4419    2.4966 C   0  0  0  0  0  0  0  0  0  0  0  0
   -2.4468   -1.0642    3.6863 C   0  0  0  0  0  0  0  0  0  0  0  0
   -1.7444   -1.1794    4.8775 C   0  0  0  0  0  0  0  0  0  0  0  0
   -2.4142   -0.7489    6.4568 S   0  0  0  0  0  0  0  0  0  0  0  0
   -3.8066    0.3394    6.0354 C   0  0  0  0  0  0  0  0  0  0  0  0
   -0.4470   -1.6859    4.8593 C   0  0  0  0  0  0  0  0  0  0  0  0
    0.1414   -2.0624    3.6731 C   0  0  0  0  0  0  0  0  0  0  0  0
   -0.4820   -0.2339   -0.0359 C   0  0  0  0  0  0  0  0  0  0  0  0
   -0.2506    1.0885    1.0454 S   0  0  0  0  0  0  0  0  0  0  0  0
   -0.5983    2.2229   -0.2520 C   0  0  0  0  0  0  0  0  0  0  0  0
   -0.7906    1.5900   -1.4840 C   0  0  0  0  0  0  0  0  0  0  0  0
   -0.8511    2.2127   -2.7073 N   0  0  0  0  0  0  0  0  0  0  0  0
   -0.2610    3.4680   -2.8989 C   0  0  0  0  0  0  0  0  0  0  0  0
   -0.9214    4.4593   -3.6265 C   0  0  0  0  0  0  0  0  0  0  0  0
   -0.4090    5.7370   -3.6800 C   0  0  0  0  0  0  0  0  0  0  0  0
    0.7721    6.0565   -3.0123 C   0  0  0  0  0  0  0  0  0  0  0  0
    1.2585    7.7459   -3.0192 S   0  0  0  0  0  0  0  0  0  0  0  0
    2.5927    7.8149   -1.7927 C   0  0  0  0  0  0  0  0  0  0  0  0
    1.4877    5.0432   -2.3802 C   0  0  0  0  0  0  0  0  0  0  0  0
    0.9775    3.7639   -2.3313 C   0  0  0  0  0  0  0  0  0  0  0  0
   -1.5567    1.6161   -3.7652 C   0  0  0  0  0  0  0  0  0  0  0  0
   -1.0228    1.6294   -5.0493 C   0  0  0  0  0  0  0  0  0  0  0  0
   -1.7076    1.0529   -6.1019 C   0  0  0  0  0  0  0  0  0  0  0  0
   -2.9455    0.4645   -5.8824 C   0  0  0  0  0  0  0  0  0  0  0  0
   -3.9163   -0.3085   -7.1371 S   0  0  0  0  0  0  0  0  0  0  0  0
   -2.8565   -0.2566   -8.6091 C   0  0  0  0  0  0  0  0  0  0  0  0
   -3.4926    0.4741   -4.6001 C   0  0  0  0  0  0  0  0  0  0  0  0
   -2.8033    1.0309   -3.5480 C   0  0  0  0  0  0  0  0  0  0  0  0
   -0.7530    0.1811   -1.3314 C   0  0  0  0  0  0  0  0  0  0  0  0
   -0.8650   -1.1653   -2.4210 S   0  0  0  0  0  0  0  0  0  0  0  0
   -0.5869    3.6168    0.0539 C   0  0  0  0  0  0  0  0  0  0  0  0
   -1.4111    4.5759   -0.5240 C   0  0  0  0  0  0  0  0  0  0  0  0
   -2.6143    4.3979   -1.3504 C   0  0  0  0  0  0  0  0  0  0  0  0
   -3.1700    3.3820   -1.6986 O   0  0  0  0  0  0  0  0  0  0  0  0
   -3.0837    5.6776   -1.6280 N   0  0  0  0  0  0  0  0  0  0  0  0
   -4.2771    5.9346   -2.4034 C   0  0  0  0  0  0  0  0  0  0  0  0
   -5.5100    6.0273   -1.5112 C   0  0  0  0  0  0  0  0  0  0  0  0
   -2.3414    6.6664   -1.0161 C   0  0  0  0  0  0  0  0  0  0  0  0
   -2.5631    7.8513   -1.0780 O   0  0  0  0  0  0  0  0  0  0  0  0
   -1.2656    5.9586   -0.2873 C   0  0  0  0  0  0  0  0  0  0  0  0
   -0.3386    6.5073    0.5695 C   0  0  0  0  0  0  0  0  0  0  0  0
    0.5092    5.5596    1.2086 C   0  0  0  0  0  0  0  0  0  0  0  0
    0.3647    4.1455    0.9778 C   0  0  0  0  0  0  0  0  0  0  0  0
    1.2696    3.4432    1.6493 N   0  0  0  0  0  0  0  0  0  0  0  0
    2.2051    4.4490    2.4859 S   0  0  0  0  0  0  0  0  0  0  0  0
    1.5262    5.8321    2.0182 N   0  0  0  0  0  0  0  0  0  0  0  0
   -0.2424    7.9224    0.8419 C   0  0  0  0  0  0  0  0  0  0  0  0
   -0.2620    8.4137    2.1016 C   0  0  0  0  0  0  0  0  0  0  0  0
   -0.6993    7.6132    3.2834 C   0  0  0  0  0  0  0  0  0  0  0  0
   -0.9656    6.4318    3.3188 O   0  0  0  0  0  0  0  0  0  0  0  0
   -0.8539    8.5847    4.3780 C   0  0  0  0  0  0  0  0  0  0  0  0
   -1.2683    8.3601    5.6594 C   0  0  0  0  0  0  0  0  0  0  0  0
   -1.3724    9.4501    6.5516 C   0  0  0  0  0  0  0  0  0  0  0  0
   -1.7873    9.2775    7.8868 C   0  0  0  0  0  0  0  0  0  0  0  0
   -1.8876   10.3490    8.7320 C   0  0  0  0  0  0  0  0  0  0  0  0
   -1.5771   11.6399    8.2789 C   0  0  0  0  0  0  0  0  0  0  0  0
   -1.1704   11.8417    6.9881 C   0  0  0  0  0  0  0  0  0  0  0  0
   -1.0545   10.7606    6.0906 C   0  0  0  0  0  0  0  0  0  0  0  0
   -0.6295   10.9633    4.7578 C   0  0  0  0  0  0  0  0  0  0  0  0
   -0.5231    9.8900    3.9123 C   0  0  0  0  0  0  0  0  0  0  0  0
   -0.0965    9.7953    2.5233 C   0  0  0  0  0  0  0  0  0  0  0  0
    0.4609   10.7993    1.7800 C   0  0  0  0  0  0  0  0  0  0  0  0
    1.0132   10.6265    0.4942 C   0  0  0  0  0  0  0  0  0  0  0  0
    1.5327   10.5571   -0.5271 N   0  0  0  0  0  0  0  0  0  0  0  0
    0.6185   12.1254    2.2352 C   0  0  0  0  0  0  0  0  0  0  0  0
    0.7689   13.2179    2.5536 N   0  0  0  0  0  0  0  0  0  0  0  0
    0.4977   -7.9927   -0.5716 H   0  0  0  0  0  0  0  0  0  0  0  0
    5.1230   -6.0359   -4.3597 H   0  0  0  0  0  0  0  0  0  0  0  0
    5.3009  -10.4376   -1.8603 H   0  0  0  0  0  0  0  0  0  0  0  0
    8.3911   -9.6443   -3.0967 H   0  0  0  0  0  0  0  0  0  0  0  0
    7.3105  -11.5306   -4.6367 H   0  0  0  0  0  0  0  0  0  0  0  0
    9.7390  -11.0350   -5.5087 H   0  0  0  0  0  0  0  0  0  0  0  0
    9.6884   -8.7335   -6.8345 H   0  0  0  0  0  0  0  0  0  0  0  0
    7.2282   -7.8127   -6.7806 H   0  0  0  0  0  0  0  0  0  0  0  0
    6.6449  -10.3899   -6.9308 H   0  0  0  0  0  0  0  0  0  0  0  0
    5.6543   -9.6685   -5.6416 H   0  0  0  0  0  0  0  0  0  0  0  0
    8.3394   -7.3880   -4.3957 H   0  0  0  0  0  0  0  0  0  0  0  0
   -1.4039   -6.6684    0.0640 H   0  0  0  0  0  0  0  0  0  0  0  0
   -3.4094   -6.1151    3.4570 H   0  0  0  0  0  0  0  0  0  0  0  0
   -1.7338   -6.6981    3.4961 H   0  0  0  0  0  0  0  0  0  0  0  0
   -2.3321   -5.3632    5.5372 H   0  0  0  0  0  0  0  0  0  0  0  0
   -2.5785   -3.9348    4.5224 H   0  0  0  0  0  0  0  0  0  0  0  0
   -0.9820   -4.6560    4.6451 H   0  0  0  0  0  0  0  0  0  0  0  0
   -4.3600   -4.1930    3.1407 H   0  0  0  0  0  0  0  0  0  0  0  0
   -5.8523   -2.7632    1.8579 H   0  0  0  0  0  0  0  0  0  0  0  0
   -5.3699   -2.1976   -0.4734 H   0  0  0  0  0  0  0  0  0  0  0  0
   -5.1355   -3.1592   -2.5555 H   0  0  0  0  0  0  0  0  0  0  0  0
   -4.3521   -1.5528   -2.5619 H   0  0  0  0  0  0  0  0  0  0  0  0
   -3.4996   -3.9474   -4.2667 H   0  0  0  0  0  0  0  0  0  0  0  0
   -2.7476   -2.3506   -4.2896 H   0  0  0  0  0  0  0  0  0  0  0  0
   -4.4111   -2.5494   -4.8600 H   0  0  0  0  0  0  0  0  0  0  0  0
    0.1451   -4.6221    2.5386 H   0  0  0  0  0  0  0  0  0  0  0  0
    1.8601   -6.3296    2.3093 H   0  0  0  0  0  0  0  0  0  0  0  0
    4.9231   -8.2875    1.8637 H   0  0  0  0  0  0  0  0  0  0  0  0
    4.1535   -7.0688    2.9071 H   0  0  0  0  0  0  0  0  0  0  0  0
    3.1544   -8.1240    1.8609 H   0  0  0  0  0  0  0  0  0  0  0  0
    3.9471   -3.8525   -0.4839 H   0  0  0  0  0  0  0  0  0  0  0  0
    2.2099   -2.1300   -0.2466 H   0  0  0  0  0  0  0  0  0  0  0  0
   -2.4200   -1.3607    1.5788 H   0  0  0  0  0  0  0  0  0  0  0  0
   -3.4584   -0.6918    3.6684 H   0  0  0  0  0  0  0  0  0  0  0  0
   -4.1136    0.8020    6.9686 H   0  0  0  0  0  0  0  0  0  0  0  0
   -4.6301   -0.2391    5.6255 H   0  0  0  0  0  0  0  0  0  0  0  0
   -3.4722    1.0984    5.3349 H   0  0  0  0  0  0  0  0  0  0  0  0
    0.0953   -1.7712    5.7886 H   0  0  0  0  0  0  0  0  0  0  0  0
    1.1547   -2.4344    3.6680 H   0  0  0  0  0  0  0  0  0  0  0  0
   -1.8506    4.2230   -4.1228 H   0  0  0  0  0  0  0  0  0  0  0  0
   -0.9342    6.5148   -4.2128 H   0  0  0  0  0  0  0  0  0  0  0  0
    3.4950    7.3584   -2.1894 H   0  0  0  0  0  0  0  0  0  0  0  0
    2.2733    7.3313   -0.8736 H   0  0  0  0  0  0  0  0  0  0  0  0
    2.7552    8.8729   -1.6094 H   0  0  0  0  0  0  0  0  0  0  0  0
    2.4433    5.2432   -1.9228 H   0  0  0  0  0  0  0  0  0  0  0  0
    1.5326    2.9868   -1.8265 H   0  0  0  0  0  0  0  0  0  0  0  0
   -0.0628    2.0930   -5.2232 H   0  0  0  0  0  0  0  0  0  0  0  0
   -1.2636    1.0723   -7.0839 H   0  0  0  0  0  0  0  0  0  0  0  0
   -1.9219   -0.7715   -8.4075 H   0  0  0  0  0  0  0  0  0  0  0  0
   -3.4070   -0.7804   -9.3843 H   0  0  0  0  0  0  0  0  0  0  0  0
   -2.6858    0.7726   -8.9115 H   0  0  0  0  0  0  0  0  0  0  0  0
   -4.4721    0.0479   -4.4499 H   0  0  0  0  0  0  0  0  0  0  0  0
   -3.2338    1.0624   -2.5605 H   0  0  0  0  0  0  0  0  0  0  0  0
   -4.1234    6.8751   -2.9380 H   0  0  0  0  0  0  0  0  0  0  0  0
   -4.3842    5.1126   -3.1155 H   0  0  0  0  0  0  0  0  0  0  0  0
   -6.3908    6.2185   -2.1176 H   0  0  0  0  0  0  0  0  0  0  0  0
   -5.3933    6.8380   -0.7959 H   0  0  0  0  0  0  0  0  0  0  0  0
   -5.6511    5.0945   -0.9700 H   0  0  0  0  0  0  0  0  0  0  0  0
   -0.2143    8.5826   -0.0161 H   0  0  0  0  0  0  0  0  0  0  0  0
   -1.5118    7.3607    5.9886 H   0  0  0  0  0  0  0  0  0  0  0  0
   -2.0255    8.2811    8.2294 H   0  0  0  0  0  0  0  0  0  0  0  0
   -2.2071   10.2079    9.7537 H   0  0  0  0  0  0  0  0  0  0  0  0
   -1.6616   12.4744    8.9587 H   0  0  0  0  0  0  0  0  0  0  0  0
   -0.9289   12.8337    6.6354 H   0  0  0  0  0  0  0  0  0  0  0  0
   -0.4036   11.9676    4.4357 H   0  0  0  0  0  0  0  0  0  0  0  0
  1  2  2  0  0  0  0
  2  3  1  0  0  0  0
  3  4  2  0  0  0  0
  3  5  1  0  0  0  0
  5  6  2  0  0  0  0
  6  7  1  0  0  0  0
  7  8  2  0  0  0  0
  8  9  1  0  0  0  0
  9 10  2  0  0  0  0
 10 11  1  0  0  0  0
 11 12  2  0  0  0  0
 12 13  1  0  0  0  0
 13 14  3  0  0  0  0
 12 15  1  0  0  0  0
 15 16  3  0  0  0  0
  8 17  1  0  0  0  0
 17 18  1  0  0  0  0
 18 19  1  0  0  0  0
 19 20  2  0  0  0  0
 20 21  1  0  0  0  0
 21 22  1  0  0  0  0
 21 23  1  0  0  0  0
  1 24  1  0  0  0  0
 24 25  2  0  0  0  0
 25 26  1  0  0  0  0
 26 27  1  0  0  0  0
 27 28  2  0  0  0  0
 28 29  1  0  0  0  0
 29 30  1  0  0  0  0
 30 31  1  0  0  0  0
 28 32  1  0  0  0  0
 32 33  2  0  0  0  0
 33 34  1  0  0  0  0
 34 35  2  0  0  0  0
 35 36  1  0  0  0  0
 36 37  1  0  0  0  0
 37 38  1  0  0  0  0
 26 39  2  0  0  0  0
 39 40  1  0  0  0  0
 39 41  1  0  0  0  0
 41 42  2  0  0  0  0
 42 43  1  0  0  0  0
 43 44  1  0  0  0  0
 44 45  2  0  0  0  0
 45 46  1  0  0  0  0
 46 47  2  0  0  0  0
 47 48  1  0  0  0  0
 48 49  1  0  0  0  0
 47 50  1  0  0  0  0
 50 51  2  0  0  0  0
 43 52  1  0  0  0  0
 52 53  2  0  0  0  0
 53 54  1  0  0  0  0
 54 55  2  0  0  0  0
 55 56  1  0  0  0  0
 56 57  1  0  0  0  0
 55 58  1  0  0  0  0
 58 59  2  0  0  0  0
 42 60  1  0  0  0  0
 60 61  1  0  0  0  0
 61 62  1  0  0  0  0
 62 63  2  0  0  0  0
 63 64  1  0  0  0  0
 64 65  1  0  0  0  0
 65 66  2  0  0  0  0
 66 67  1  0  0  0  0
 67 68  2  0  0  0  0
 68 69  1  0  0  0  0
 69 70  1  0  0  0  0
 68 71  1  0  0  0  0
 71 72  2  0  0  0  0
 64 73  1  0  0  0  0
 73 74  2  0  0  0  0
 74 75  1  0  0  0  0
 75 76  2  0  0  0  0
 76 77  1  0  0  0  0
 77 78  1  0  0  0  0
 76 79  1  0  0  0  0
 79 80  2  0  0  0  0
 63 81  1  0  0  0  0
 81 82  1  0  0  0  0
 62 83  1  0  0  0  0
 83 84  2  0  0  0  0
 84 85  1  0  0  0  0
 85 86  2  0  0  0  0
 85 87  1  0  0  0  0
 87 88  1  0  0  0  0
 88 89  1  0  0  0  0
 87 90  1  0  0  0  0
 90 91  2  0  0  0  0
 90 92  1  0  0  0  0
 92 93  2  0  0  0  0
 93 94  1  0  0  0  0
 94 95  1  0  0  0  0
 95 96  2  0  0  0  0
 96 97  1  0  0  0  0
 97 98  1  0  0  0  0
 93 99  1  0  0  0  0
 99100  2  0  0  0  0
100101  1  0  0  0  0
101102  2  0  0  0  0
101103  1  0  0  0  0
103104  2  0  0  0  0
104105  1  0  0  0  0
105106  2  0  0  0  0
106107  1  0  0  0  0
107108  2  0  0  0  0
108109  1  0  0  0  0
109110  2  0  0  0  0
110111  1  0  0  0  0
111112  2  0  0  0  0
112113  1  0  0  0  0
113114  2  0  0  0  0
114115  1  0  0  0  0
115116  3  0  0  0  0
114117  1  0  0  0  0
117118  3  0  0  0  0
 11  2  1  0  0  0  0
 23 17  1  0  0  0  0
 40 24  1  0  0  0  0
 82 41  1  0  0  0  0
 95 83  1  0  0  0  0
113100  1  0  0  0  0
 10  5  1  0  0  0  0
 22 18  1  0  0  0  0
 35 27  1  0  0  0  0
 51 44  1  0  0  0  0
 59 52  1  0  0  0  0
 81 60  2  0  0  0  0
 92 84  1  0  0  0  0
 98 94  2  0  0  0  0
112103  1  0  0  0  0
 23  7  1  0  0  0  0
 72 65  1  0  0  0  0
 80 73  1  0  0  0  0
110105  1  0  0  0  0
  1119  1  0  0  0  0
  6120  1  0  0  0  0
  9121  1  0  0  0  0
 17122  1  0  0  0  0
 18123  1  0  0  0  0
 19124  1  0  0  0  0
 20125  1  0  0  0  0
 21126  1  0  0  0  0
 22127  1  0  0  0  0
 22128  1  0  0  0  0
 23129  1  0  0  0  0
 25130  1  0  0  0  0
 30131  1  0  0  0  0
 30132  1  0  0  0  0
 31133  1  0  0  0  0
 31134  1  0  0  0  0
 31135  1  0  0  0  0
 32136  1  0  0  0  0
 33137  1  0  0  0  0
 34138  1  0  0  0  0
 37139  1  0  0  0  0
 37140  1  0  0  0  0
 38141  1  0  0  0  0
 38142  1  0  0  0  0
 38143  1  0  0  0  0
 45144  1  0  0  0  0
 46145  1  0  0  0  0
 49146  1  0  0  0  0
 49147  1  0  0  0  0
 49148  1  0  0  0  0
 50149  1  0  0  0  0
 51150  1  0  0  0  0
 53151  1  0  0  0  0
 54152  1  0  0  0  0
 57153  1  0  0  0  0
 57154  1  0  0  0  0
 57155  1  0  0  0  0
 58156  1  0  0  0  0
 59157  1  0  0  0  0
 66158  1  0  0  0  0
 67159  1  0  0  0  0
 70160  1  0  0  0  0
 70161  1  0  0  0  0
 70162  1  0  0  0  0
 71163  1  0  0  0  0
 72164  1  0  0  0  0
 74165  1  0  0  0  0
 75166  1  0  0  0  0
 78167  1  0  0  0  0
 78168  1  0  0  0  0
 78169  1  0  0  0  0
 79170  1  0  0  0  0
 80171  1  0  0  0  0
 88172  1  0  0  0  0
 88173  1  0  0  0  0
 89174  1  0  0  0  0
 89175  1  0  0  0  0
 89176  1  0  0  0  0
 99177  1  0  0  0  0
104178  1  0  0  0  0
106179  1  0  0  0  0
107180  1  0  0  0  0
108181  1  0  0  0  0
109182  1  0  0  0  0
111183  1  0  0  0  0
M  END
