
  xtb     02072212283D
 energy: -387.677605745965 gnorm: 0.000571633679 xtb: 6.4.1 (unknown)
229249  0     0  0            999 V2000
   -4.6261   -1.5696   -5.6827 C   0  0  0  0  0  0  0  0  0  0  0  0
   -4.5075   -0.5747   -6.6265 C   0  0  0  0  0  0  0  0  0  0  0  0
   -3.2250    0.0287   -7.0322 C   0  0  0  0  0  0  0  0  0  0  0  0
   -2.1178   -0.1911   -6.5704 O   0  0  0  0  0  0  0  0  0  0  0  0
   -3.5197    0.8280   -8.2365 C   0  0  0  0  0  0  0  0  0  0  0  0
   -2.6201    1.5882   -8.9798 C   0  0  0  0  0  0  0  0  0  0  0  0
   -3.1825    2.2202  -10.0635 C   0  0  0  0  0  0  0  0  0  0  0  0
   -4.5374    2.0938  -10.3941 C   0  0  0  0  0  0  0  0  0  0  0  0
   -5.4346    1.3393   -9.6749 C   0  0  0  0  0  0  0  0  0  0  0  0
   -4.8844    0.6971   -8.5631 C   0  0  0  0  0  0  0  0  0  0  0  0
   -5.5179   -0.1581   -7.5620 C   0  0  0  0  0  0  0  0  0  0  0  0
   -6.8616   -0.4320   -7.4686 C   0  0  0  0  0  0  0  0  0  0  0  0
   -7.8286   -0.0255   -8.4084 C   0  0  0  0  0  0  0  0  0  0  0  0
   -8.6661    0.2608   -9.1406 N   0  0  0  0  0  0  0  0  0  0  0  0
   -7.4643   -1.1001   -6.3889 C   0  0  0  0  0  0  0  0  0  0  0  0
   -8.0473   -1.5802   -5.5215 N   0  0  0  0  0  0  0  0  0  0  0  0
   -4.4116    2.9962  -11.5963 C   0  0  0  0  0  0  0  0  0  0  0  0
   -4.9431    4.4360  -11.4350 C   0  0  0  0  0  0  0  0  0  0  0  0
   -4.2673    5.1976  -12.5522 C   0  0  0  0  0  0  0  0  0  0  0  0
   -2.9841    5.3208  -12.2379 C   0  0  0  0  0  0  0  0  0  0  0  0
   -2.7710    4.6443  -10.9029 C   0  0  0  0  0  0  0  0  0  0  0  0
   -4.1228    4.9379  -10.2396 C   0  0  0  0  0  0  0  0  0  0  0  0
   -2.9006    3.1405  -11.2256 C   0  0  0  0  0  0  0  0  0  0  0  0
   -3.7071   -1.7774   -4.6416 C   0  0  0  0  0  0  0  0  0  0  0  0
   -3.2647   -2.9960   -4.0904 C   0  0  0  0  0  0  0  0  0  0  0  0
   -3.7697   -4.2307   -4.3886 N   0  0  0  0  0  0  0  0  0  0  0  0
   -5.1416   -4.4144   -4.6350 C   0  0  0  0  0  0  0  0  0  0  0  0
   -6.0972   -3.7627   -3.8591 C   0  0  0  0  0  0  0  0  0  0  0  0
   -7.4428   -3.9500   -4.0993 C   0  0  0  0  0  0  0  0  0  0  0  0
   -7.8549   -4.7895   -5.1287 C   0  0  0  0  0  0  0  0  0  0  0  0
   -9.5405   -5.0831   -5.5308 S   0  0  0  0  0  0  0  0  0  0  0  0
  -10.4088   -3.7165   -4.7111 C   0  0  0  0  0  0  0  0  0  0  0  0
   -6.8989   -5.4617   -5.8906 C   0  0  0  0  0  0  0  0  0  0  0  0
   -5.5564   -5.2797   -5.6474 C   0  0  0  0  0  0  0  0  0  0  0  0
   -2.9423   -5.3664   -4.3619 C   0  0  0  0  0  0  0  0  0  0  0  0
   -3.3884   -6.5520   -3.7873 C   0  0  0  0  0  0  0  0  0  0  0  0
   -2.5845   -7.6749   -3.7865 C   0  0  0  0  0  0  0  0  0  0  0  0
   -1.3246   -7.6291   -4.3705 C   0  0  0  0  0  0  0  0  0  0  0  0
   -0.2093   -8.9925   -4.4338 S   0  0  0  0  0  0  0  0  0  0  0  0
   -1.1490  -10.3668   -3.7092 C   0  0  0  0  0  0  0  0  0  0  0  0
   -0.8820   -6.4436   -4.9544 C   0  0  0  0  0  0  0  0  0  0  0  0
   -1.6786   -5.3228   -4.9451 C   0  0  0  0  0  0  0  0  0  0  0  0
   -2.2029   -2.7686   -3.1847 C   0  0  0  0  0  0  0  0  0  0  0  0
   -1.1453   -3.7941   -2.2734 S   0  0  0  0  0  0  0  0  0  0  0  0
   -0.4633   -2.3982   -1.4689 C   0  0  0  0  0  0  0  0  0  0  0  0
   -1.0577   -1.2123   -1.8516 C   0  0  0  0  0  0  0  0  0  0  0  0
   -0.8854    0.0233   -1.1865 N   0  0  0  0  0  0  0  0  0  0  0  0
    0.2585    0.8197   -1.4307 C   0  0  0  0  0  0  0  0  0  0  0  0
    0.4511    1.4377   -2.6634 C   0  0  0  0  0  0  0  0  0  0  0  0
    1.5927    2.1833   -2.8900 C   0  0  0  0  0  0  0  0  0  0  0  0
    2.5553    2.3258   -1.8928 C   0  0  0  0  0  0  0  0  0  0  0  0
    4.0139    3.2280   -2.3075 S   0  0  0  0  0  0  0  0  0  0  0  0
    5.0581    3.0643   -0.8327 C   0  0  0  0  0  0  0  0  0  0  0  0
    2.3363    1.7599   -0.6439 C   0  0  0  0  0  0  0  0  0  0  0  0
    1.1946    1.0195   -0.4211 C   0  0  0  0  0  0  0  0  0  0  0  0
   -1.6198    0.2819   -0.0338 C   0  0  0  0  0  0  0  0  0  0  0  0
   -1.6053    1.5756    0.5014 C   0  0  0  0  0  0  0  0  0  0  0  0
   -2.2708    1.8664    1.6704 C   0  0  0  0  0  0  0  0  0  0  0  0
   -2.9893    0.8784    2.3287 C   0  0  0  0  0  0  0  0  0  0  0  0
   -3.7849    1.2105    3.8859 S   0  0  0  0  0  0  0  0  0  0  0  0
   -4.8087    2.6511    3.4335 C   0  0  0  0  0  0  0  0  0  0  0  0
   -3.0618   -0.3917    1.7779 C   0  0  0  0  0  0  0  0  0  0  0  0
   -2.3978   -0.6861    0.6030 C   0  0  0  0  0  0  0  0  0  0  0  0
   -1.9895   -1.4265   -2.8911 C   0  0  0  0  0  0  0  0  0  0  0  0
   -2.9384   -0.3892   -3.8750 S   0  0  0  0  0  0  0  0  0  0  0  0
    0.5422   -2.4877   -0.4361 C   0  0  0  0  0  0  0  0  0  0  0  0
    1.8372   -2.0023   -0.4940 C   0  0  0  0  0  0  0  0  0  0  0  0
    2.5044   -1.7439   -1.6616 N   0  0  0  0  0  0  0  0  0  0  0  0
    2.0082   -2.2431   -2.9064 C   0  0  0  0  0  0  0  0  0  0  0  0
    2.1857   -3.5829   -3.2368 C   0  0  0  0  0  0  0  0  0  0  0  0
    1.7905   -4.0473   -4.4734 C   0  0  0  0  0  0  0  0  0  0  0  0
    1.2005   -3.1857   -5.3975 C   0  0  0  0  0  0  0  0  0  0  0  0
    0.7560   -3.8601   -6.9663 S   0  0  0  0  0  0  0  0  0  0  0  0
    0.0244   -2.4556   -7.8531 C   0  0  0  0  0  0  0  0  0  0  0  0
    1.0052   -1.8539   -5.0613 C   0  0  0  0  0  0  0  0  0  0  0  0
    1.4248   -1.3914   -3.8295 C   0  0  0  0  0  0  0  0  0  0  0  0
    3.8698   -1.3837   -1.6847 C   0  0  0  0  0  0  0  0  0  0  0  0
    4.8191   -2.0327   -0.8973 C   0  0  0  0  0  0  0  0  0  0  0  0
    6.1402   -1.6404   -0.9385 C   0  0  0  0  0  0  0  0  0  0  0  0
    6.5463   -0.6095   -1.7819 C   0  0  0  0  0  0  0  0  0  0  0  0
    8.2529   -0.1628   -1.7203 S   0  0  0  0  0  0  0  0  0  0  0  0
    8.4166    1.1110   -3.0037 C   0  0  0  0  0  0  0  0  0  0  0  0
    5.6135   -0.0020   -2.6121 C   0  0  0  0  0  0  0  0  0  0  0  0
    4.2899   -0.3914   -2.5630 C   0  0  0  0  0  0  0  0  0  0  0  0
    2.3279   -1.7546    0.8225 C   0  0  0  0  0  0  0  0  0  0  0  0
    3.6306   -0.8033    1.4737 S   0  0  0  0  0  0  0  0  0  0  0  0
    2.9596   -0.9402    3.0851 C   0  0  0  0  0  0  0  0  0  0  0  0
    1.7929   -1.6708    3.1113 C   0  0  0  0  0  0  0  0  0  0  0  0
    0.9889   -1.7732    4.2430 N   0  0  0  0  0  0  0  0  0  0  0  0
    0.6078   -0.5603    4.8525 C   0  0  0  0  0  0  0  0  0  0  0  0
    0.1322    0.4839    4.0657 C   0  0  0  0  0  0  0  0  0  0  0  0
   -0.2075    1.6936    4.6356 C   0  0  0  0  0  0  0  0  0  0  0  0
   -0.0881    1.8656    6.0060 C   0  0  0  0  0  0  0  0  0  0  0  0
   -0.5097    3.3822    6.8148 S   0  0  0  0  0  0  0  0  0  0  0  0
   -1.7640    4.0771    5.7019 C   0  0  0  0  0  0  0  0  0  0  0  0
    0.4008    0.8301    6.7961 C   0  0  0  0  0  0  0  0  0  0  0  0
    0.7478   -0.3753    6.2252 C   0  0  0  0  0  0  0  0  0  0  0  0
    0.4397   -2.9917    4.6127 C   0  0  0  0  0  0  0  0  0  0  0  0
   -0.7415   -3.0547    5.3556 C   0  0  0  0  0  0  0  0  0  0  0  0
   -1.2578   -4.2724    5.7346 C   0  0  0  0  0  0  0  0  0  0  0  0
   -0.6207   -5.4588    5.3762 C   0  0  0  0  0  0  0  0  0  0  0  0
   -1.3682   -6.9565    5.9461 S   0  0  0  0  0  0  0  0  0  0  0  0
   -0.3714   -8.2630    5.1738 C   0  0  0  0  0  0  0  0  0  0  0  0
    0.5423   -5.4041    4.6230 C   0  0  0  0  0  0  0  0  0  0  0  0
    1.0675   -4.1821    4.2499 C   0  0  0  0  0  0  0  0  0  0  0  0
    1.4416   -2.1253    1.8202 C   0  0  0  0  0  0  0  0  0  0  0  0
   -0.0055   -2.8209    1.2081 S   0  0  0  0  0  0  0  0  0  0  0  0
    3.4548   -0.2249    4.2361 C   0  0  0  0  0  0  0  0  0  0  0  0
    3.9038   -0.7783    5.4134 C   0  0  0  0  0  0  0  0  0  0  0  0
    4.1014    0.1645    6.4223 C   0  0  0  0  0  0  0  0  0  0  0  0
    4.6933   -0.1413    7.7250 C   0  0  0  0  0  0  0  0  0  0  0  0
    5.7911    0.6206    8.1735 C   0  0  0  0  0  0  0  0  0  0  0  0
    6.2217    1.5817    7.3159 O   0  0  0  0  0  0  0  0  0  0  0  0
    7.3536    2.3678    7.6407 C   0  0  0  0  0  0  0  0  0  0  0  0
    8.6680    1.6329    7.3971 C   0  0  0  0  0  0  0  0  0  0  0  0
    6.3698    0.3381    9.4046 C   0  0  0  0  0  0  0  0  0  0  0  0
    5.8664   -0.6892   10.1769 C   0  0  0  0  0  0  0  0  0  0  0  0
    4.8143   -1.4708    9.7384 C   0  0  0  0  0  0  0  0  0  0  0  0
    4.2254   -1.2123    8.5054 C   0  0  0  0  0  0  0  0  0  0  0  0
    3.1847   -1.9298    8.0000 O   0  0  0  0  0  0  0  0  0  0  0  0
    2.7574   -3.0803    8.7102 C   0  0  0  0  0  0  0  0  0  0  0  0
    1.7007   -3.7995    7.8869 C   0  0  0  0  0  0  0  0  0  0  0  0
    3.7015    1.4579    6.0317 C   0  0  0  0  0  0  0  0  0  0  0  0
    3.2429    1.4853    4.3479 S   0  0  0  0  0  0  0  0  0  0  0  0
    3.5428    2.5106    6.9358 C   0  0  0  0  0  0  0  0  0  0  0  0
    2.9924    3.7592    6.7639 C   0  0  0  0  0  0  0  0  0  0  0  0
    2.3686    4.2705    5.5429 C   0  0  0  0  0  0  0  0  0  0  0  0
    2.3922    3.7920    4.4235 O   0  0  0  0  0  0  0  0  0  0  0  0
    1.6757    5.5174    5.9364 C   0  0  0  0  0  0  0  0  0  0  0  0
    0.8761    6.3359    5.1689 C   0  0  0  0  0  0  0  0  0  0  0  0
    0.2827    7.4298    5.7947 C   0  0  0  0  0  0  0  0  0  0  0  0
   -0.6206    8.3038    4.9715 C   0  0  0  0  0  0  0  0  0  0  0  0
   -1.2548    9.2429    5.6824 F   0  0  0  0  0  0  0  0  0  0  0  0
   -1.5784    7.5840    4.3523 F   0  0  0  0  0  0  0  0  0  0  0  0
    0.0446    8.9471    3.9948 F   0  0  0  0  0  0  0  0  0  0  0  0
    0.5080    7.6982    7.1383 C   0  0  0  0  0  0  0  0  0  0  0  0
    1.3354    6.8807    7.8979 C   0  0  0  0  0  0  0  0  0  0  0  0
    1.9216    5.7809    7.2945 C   0  0  0  0  0  0  0  0  0  0  0  0
    2.8000    4.7323    7.8163 C   0  0  0  0  0  0  0  0  0  0  0  0
    3.3801    4.7377    9.0586 C   0  0  0  0  0  0  0  0  0  0  0  0
    4.3256    3.8035    9.5280 C   0  0  0  0  0  0  0  0  0  0  0  0
    5.1294    3.1245    9.9902 N   0  0  0  0  0  0  0  0  0  0  0  0
    3.1572    5.7360   10.0299 C   0  0  0  0  0  0  0  0  0  0  0  0
    3.0210    6.5137   10.8635 N   0  0  0  0  0  0  0  0  0  0  0  0
   -5.4484   -2.2696   -5.7758 H   0  0  0  0  0  0  0  0  0  0  0  0
   -1.5816    1.6559   -8.6951 H   0  0  0  0  0  0  0  0  0  0  0  0
   -6.4723    1.2414   -9.9468 H   0  0  0  0  0  0  0  0  0  0  0  0
   -4.6729    2.5506  -12.5543 H   0  0  0  0  0  0  0  0  0  0  0  0
   -6.0247    4.5173  -11.3707 H   0  0  0  0  0  0  0  0  0  0  0  0
   -4.7642    5.5092  -13.4521 H   0  0  0  0  0  0  0  0  0  0  0  0
   -2.1949    5.7557  -12.8230 H   0  0  0  0  0  0  0  0  0  0  0  0
   -1.8736    4.9174  -10.3540 H   0  0  0  0  0  0  0  0  0  0  0  0
   -4.2694    6.0012  -10.0574 H   0  0  0  0  0  0  0  0  0  0  0  0
   -4.2954    4.3836   -9.3189 H   0  0  0  0  0  0  0  0  0  0  0  0
   -2.1544    2.7922  -11.9377 H   0  0  0  0  0  0  0  0  0  0  0  0
   -5.7799   -3.1071   -3.0617 H   0  0  0  0  0  0  0  0  0  0  0  0
   -8.1593   -3.4402   -3.4787 H   0  0  0  0  0  0  0  0  0  0  0  0
  -11.4076   -3.7041   -5.1359 H   0  0  0  0  0  0  0  0  0  0  0  0
   -9.8910   -2.7889   -4.9362 H   0  0  0  0  0  0  0  0  0  0  0  0
  -10.4661   -3.8956   -3.6412 H   0  0  0  0  0  0  0  0  0  0  0  0
   -7.2262   -6.1175   -6.6825 H   0  0  0  0  0  0  0  0  0  0  0  0
   -4.8176   -5.7915   -6.2460 H   0  0  0  0  0  0  0  0  0  0  0  0
   -4.3687   -6.5928   -3.3361 H   0  0  0  0  0  0  0  0  0  0  0  0
   -2.9539   -8.5764   -3.3256 H   0  0  0  0  0  0  0  0  0  0  0  0
   -2.0570  -10.5360   -4.2803 H   0  0  0  0  0  0  0  0  0  0  0  0
   -1.3690  -10.1601   -2.6659 H   0  0  0  0  0  0  0  0  0  0  0  0
   -0.5003  -11.2341   -3.7832 H   0  0  0  0  0  0  0  0  0  0  0  0
    0.0832   -6.4168   -5.4344 H   0  0  0  0  0  0  0  0  0  0  0  0
   -1.3394   -4.4118   -5.4107 H   0  0  0  0  0  0  0  0  0  0  0  0
   -0.2983    1.3342   -3.4353 H   0  0  0  0  0  0  0  0  0  0  0  0
    1.7530    2.6568   -3.8470 H   0  0  0  0  0  0  0  0  0  0  0  0
    5.2447    2.0132   -0.6283 H   0  0  0  0  0  0  0  0  0  0  0  0
    5.9886    3.5688   -1.0757 H   0  0  0  0  0  0  0  0  0  0  0  0
    4.5892    3.5555    0.0148 H   0  0  0  0  0  0  0  0  0  0  0  0
    3.0423    1.8787    0.1609 H   0  0  0  0  0  0  0  0  0  0  0  0
    1.0211    0.5943    0.5558 H   0  0  0  0  0  0  0  0  0  0  0  0
   -1.0568    2.3559   -0.0035 H   0  0  0  0  0  0  0  0  0  0  0  0
   -2.2302    2.8697    2.0674 H   0  0  0  0  0  0  0  0  0  0  0  0
   -4.1847    3.5187    3.2407 H   0  0  0  0  0  0  0  0  0  0  0  0
   -5.4012    2.4032    2.5585 H   0  0  0  0  0  0  0  0  0  0  0  0
   -5.4564    2.8435    4.2825 H   0  0  0  0  0  0  0  0  0  0  0  0
   -3.6325   -1.1575    2.2802 H   0  0  0  0  0  0  0  0  0  0  0  0
   -2.4762   -1.6802    0.1903 H   0  0  0  0  0  0  0  0  0  0  0  0
    2.6414   -4.2562   -2.5261 H   0  0  0  0  0  0  0  0  0  0  0  0
    1.9472   -5.0812   -4.7379 H   0  0  0  0  0  0  0  0  0  0  0  0
    0.7877   -1.7082   -8.0497 H   0  0  0  0  0  0  0  0  0  0  0  0
   -0.8005   -2.0291   -7.2886 H   0  0  0  0  0  0  0  0  0  0  0  0
   -0.3409   -2.8641   -8.7906 H   0  0  0  0  0  0  0  0  0  0  0  0
    0.5330   -1.1631   -5.7398 H   0  0  0  0  0  0  0  0  0  0  0  0
    1.2897   -0.3528   -3.5835 H   0  0  0  0  0  0  0  0  0  0  0  0
    4.5263   -2.8572   -0.2655 H   0  0  0  0  0  0  0  0  0  0  0  0
    6.8746   -2.1345   -0.3214 H   0  0  0  0  0  0  0  0  0  0  0  0
    7.8022    1.9722   -2.7581 H   0  0  0  0  0  0  0  0  0  0  0  0
    8.1484    0.6980   -3.9716 H   0  0  0  0  0  0  0  0  0  0  0  0
    9.4648    1.3934   -3.0009 H   0  0  0  0  0  0  0  0  0  0  0  0
    5.8955    0.7824   -3.2950 H   0  0  0  0  0  0  0  0  0  0  0  0
    3.5741    0.0869   -3.2117 H   0  0  0  0  0  0  0  0  0  0  0  0
    0.0241    0.3485    2.9996 H   0  0  0  0  0  0  0  0  0  0  0  0
   -0.5553    2.4917    4.0023 H   0  0  0  0  0  0  0  0  0  0  0  0
   -2.2988    4.8261    6.2774 H   0  0  0  0  0  0  0  0  0  0  0  0
   -2.4376    3.2811    5.3986 H   0  0  0  0  0  0  0  0  0  0  0  0
   -1.2894    4.5472    4.8448 H   0  0  0  0  0  0  0  0  0  0  0  0
    0.5105    0.9827    7.8590 H   0  0  0  0  0  0  0  0  0  0  0  0
    1.1511   -1.1694    6.8317 H   0  0  0  0  0  0  0  0  0  0  0  0
   -1.2535   -2.1430    5.6235 H   0  0  0  0  0  0  0  0  0  0  0  0
   -2.1699   -4.3207    6.3095 H   0  0  0  0  0  0  0  0  0  0  0  0
   -0.8454   -9.1978    5.4565 H   0  0  0  0  0  0  0  0  0  0  0  0
    0.6444   -8.2356    5.5577 H   0  0  0  0  0  0  0  0  0  0  0  0
   -0.3893   -8.1511    4.0937 H   0  0  0  0  0  0  0  0  0  0  0  0
    1.0595   -6.3024    4.3262 H   0  0  0  0  0  0  0  0  0  0  0  0
    1.9831   -4.1509    3.6771 H   0  0  0  0  0  0  0  0  0  0  0  0
    4.0987   -1.8284    5.5342 H   0  0  0  0  0  0  0  0  0  0  0  0
    7.2828    2.7325    8.6710 H   0  0  0  0  0  0  0  0  0  0  0  0
    7.2804    3.2264    6.9665 H   0  0  0  0  0  0  0  0  0  0  0  0
    8.7486    0.7554    8.0335 H   0  0  0  0  0  0  0  0  0  0  0  0
    8.7227    1.3108    6.3600 H   0  0  0  0  0  0  0  0  0  0  0  0
    9.5015    2.2980    7.6050 H   0  0  0  0  0  0  0  0  0  0  0  0
    7.1943    0.9200    9.7775 H   0  0  0  0  0  0  0  0  0  0  0  0
    6.3096   -0.8933   11.1395 H   0  0  0  0  0  0  0  0  0  0  0  0
    4.4587   -2.2698   10.3670 H   0  0  0  0  0  0  0  0  0  0  0  0
    3.6133   -3.7481    8.8782 H   0  0  0  0  0  0  0  0  0  0  0  0
    2.3410   -2.7887    9.6838 H   0  0  0  0  0  0  0  0  0  0  0  0
    0.8028   -3.1956    7.7920 H   0  0  0  0  0  0  0  0  0  0  0  0
    2.0781   -4.0118    6.8902 H   0  0  0  0  0  0  0  0  0  0  0  0
    1.4369   -4.7352    8.3713 H   0  0  0  0  0  0  0  0  0  0  0  0
    3.8326    2.2522    7.9474 H   0  0  0  0  0  0  0  0  0  0  0  0
    0.7122    6.1285    4.1222 H   0  0  0  0  0  0  0  0  0  0  0  0
    0.0315    8.5500    7.5986 H   0  0  0  0  0  0  0  0  0  0  0  0
    1.4927    7.1075    8.9392 H   0  0  0  0  0  0  0  0  0  0  0  0
  1  2  2  0  0  0  0
  2  3  1  0  0  0  0
  3  4  2  0  0  0  0
  3  5  1  0  0  0  0
  5  6  2  0  0  0  0
  6  7  1  0  0  0  0
  7  8  2  0  0  0  0
  8  9  1  0  0  0  0
  9 10  2  0  0  0  0
 10 11  1  0  0  0  0
 11 12  2  0  0  0  0
 12 13  1  0  0  0  0
 13 14  3  0  0  0  0
 12 15  1  0  0  0  0
 15 16  3  0  0  0  0
  8 17  1  0  0  0  0
 17 18  1  0  0  0  0
 18 19  1  0  0  0  0
 19 20  2  0  0  0  0
 20 21  1  0  0  0  0
 21 22  1  0  0  0  0
 21 23  1  0  0  0  0
  1 24  1  0  0  0  0
 24 25  2  0  0  0  0
 25 26  1  0  0  0  0
 26 27  1  0  0  0  0
 27 28  2  0  0  0  0
 28 29  1  0  0  0  0
 29 30  2  0  0  0  0
 30 31  1  0  0  0  0
 31 32  1  0  0  0  0
 30 33  1  0  0  0  0
 33 34  2  0  0  0  0
 26 35  1  0  0  0  0
 35 36  2  0  0  0  0
 36 37  1  0  0  0  0
 37 38  2  0  0  0  0
 38 39  1  0  0  0  0
 39 40  1  0  0  0  0
 38 41  1  0  0  0  0
 41 42  2  0  0  0  0
 25 43  1  0  0  0  0
 43 44  1  0  0  0  0
 44 45  1  0  0  0  0
 45 46  2  0  0  0  0
 46 47  1  0  0  0  0
 47 48  1  0  0  0  0
 48 49  2  0  0  0  0
 49 50  1  0  0  0  0
 50 51  2  0  0  0  0
 51 52  1  0  0  0  0
 52 53  1  0  0  0  0
 51 54  1  0  0  0  0
 54 55  2  0  0  0  0
 47 56  1  0  0  0  0
 56 57  2  0  0  0  0
 57 58  1  0  0  0  0
 58 59  2  0  0  0  0
 59 60  1  0  0  0  0
 60 61  1  0  0  0  0
 59 62  1  0  0  0  0
 62 63  2  0  0  0  0
 46 64  1  0  0  0  0
 64 65  1  0  0  0  0
 45 66  1  0  0  0  0
 66 67  2  0  0  0  0
 67 68  1  0  0  0  0
 68 69  1  0  0  0  0
 69 70  2  0  0  0  0
 70 71  1  0  0  0  0
 71 72  2  0  0  0  0
 72 73  1  0  0  0  0
 73 74  1  0  0  0  0
 72 75  1  0  0  0  0
 75 76  2  0  0  0  0
 68 77  1  0  0  0  0
 77 78  2  0  0  0  0
 78 79  1  0  0  0  0
 79 80  2  0  0  0  0
 80 81  1  0  0  0  0
 81 82  1  0  0  0  0
 80 83  1  0  0  0  0
 83 84  2  0  0  0  0
 67 85  1  0  0  0  0
 85 86  1  0  0  0  0
 86 87  1  0  0  0  0
 87 88  2  0  0  0  0
 88 89  1  0  0  0  0
 89 90  1  0  0  0  0
 90 91  2  0  0  0  0
 91 92  1  0  0  0  0
 92 93  2  0  0  0  0
 93 94  1  0  0  0  0
 94 95  1  0  0  0  0
 93 96  1  0  0  0  0
 96 97  2  0  0  0  0
 89 98  1  0  0  0  0
 98 99  2  0  0  0  0
 99100  1  0  0  0  0
100101  2  0  0  0  0
101102  1  0  0  0  0
102103  1  0  0  0  0
101104  1  0  0  0  0
104105  2  0  0  0  0
 88106  1  0  0  0  0
106107  1  0  0  0  0
 87108  1  0  0  0  0
108109  2  0  0  0  0
109110  1  0  0  0  0
110111  1  0  0  0  0
111112  2  0  0  0  0
112113  1  0  0  0  0
113114  1  0  0  0  0
114115  1  0  0  0  0
112116  1  0  0  0  0
116117  2  0  0  0  0
117118  1  0  0  0  0
118119  2  0  0  0  0
119120  1  0  0  0  0
120121  1  0  0  0  0
121122  1  0  0  0  0
110123  2  0  0  0  0
123124  1  0  0  0  0
123125  1  0  0  0  0
125126  2  0  0  0  0
126127  1  0  0  0  0
127128  2  0  0  0  0
127129  1  0  0  0  0
129130  2  0  0  0  0
130131  1  0  0  0  0
131132  1  0  0  0  0
132133  1  0  0  0  0
132134  1  0  0  0  0
132135  1  0  0  0  0
131136  2  0  0  0  0
136137  1  0  0  0  0
137138  2  0  0  0  0
138139  1  0  0  0  0
139140  2  0  0  0  0
140141  1  0  0  0  0
141142  3  0  0  0  0
140143  1  0  0  0  0
143144  3  0  0  0  0
 11  2  1  0  0  0  0
 23 17  1  0  0  0  0
 65 24  1  0  0  0  0
107 66  1  0  0  0  0
124108  1  0  0  0  0
139126  1  0  0  0  0
 10  5  1  0  0  0  0
 22 18  1  0  0  0  0
 34 27  1  0  0  0  0
 42 35  1  0  0  0  0
 64 43  2  0  0  0  0
 76 69  1  0  0  0  0
 84 77  1  0  0  0  0
106 85  2  0  0  0  0
119111  1  0  0  0  0
138129  1  0  0  0  0
 23  7  1  0  0  0  0
 55 48  1  0  0  0  0
 63 56  1  0  0  0  0
 97 90  1  0  0  0  0
105 98  1  0  0  0  0
  1145  1  0  0  0  0
  6146  1  0  0  0  0
  9147  1  0  0  0  0
 17148  1  0  0  0  0
 18149  1  0  0  0  0
 19150  1  0  0  0  0
 20151  1  0  0  0  0
 21152  1  0  0  0  0
 22153  1  0  0  0  0
 22154  1  0  0  0  0
 23155  1  0  0  0  0
 28156  1  0  0  0  0
 29157  1  0  0  0  0
 32158  1  0  0  0  0
 32159  1  0  0  0  0
 32160  1  0  0  0  0
 33161  1  0  0  0  0
 34162  1  0  0  0  0
 36163  1  0  0  0  0
 37164  1  0  0  0  0
 40165  1  0  0  0  0
 40166  1  0  0  0  0
 40167  1  0  0  0  0
 41168  1  0  0  0  0
 42169  1  0  0  0  0
 49170  1  0  0  0  0
 50171  1  0  0  0  0
 53172  1  0  0  0  0
 53173  1  0  0  0  0
 53174  1  0  0  0  0
 54175  1  0  0  0  0
 55176  1  0  0  0  0
 57177  1  0  0  0  0
 58178  1  0  0  0  0
 61179  1  0  0  0  0
 61180  1  0  0  0  0
 61181  1  0  0  0  0
 62182  1  0  0  0  0
 63183  1  0  0  0  0
 70184  1  0  0  0  0
 71185  1  0  0  0  0
 74186  1  0  0  0  0
 74187  1  0  0  0  0
 74188  1  0  0  0  0
 75189  1  0  0  0  0
 76190  1  0  0  0  0
 78191  1  0  0  0  0
 79192  1  0  0  0  0
 82193  1  0  0  0  0
 82194  1  0  0  0  0
 82195  1  0  0  0  0
 83196  1  0  0  0  0
 84197  1  0  0  0  0
 91198  1  0  0  0  0
 92199  1  0  0  0  0
 95200  1  0  0  0  0
 95201  1  0  0  0  0
 95202  1  0  0  0  0
 96203  1  0  0  0  0
 97204  1  0  0  0  0
 99205  1  0  0  0  0
100206  1  0  0  0  0
103207  1  0  0  0  0
103208  1  0  0  0  0
103209  1  0  0  0  0
104210  1  0  0  0  0
105211  1  0  0  0  0
109212  1  0  0  0  0
114213  1  0  0  0  0
114214  1  0  0  0  0
115215  1  0  0  0  0
115216  1  0  0  0  0
115217  1  0  0  0  0
116218  1  0  0  0  0
117219  1  0  0  0  0
118220  1  0  0  0  0
121221  1  0  0  0  0
121222  1  0  0  0  0
122223  1  0  0  0  0
122224  1  0  0  0  0
122225  1  0  0  0  0
125226  1  0  0  0  0
130227  1  0  0  0  0
136228  1  0  0  0  0
137229  1  0  0  0  0
M  END
