226

C         -0.82980        7.48010       -2.93410
C         -1.77400        8.09840       -3.72450
C         -3.15700        7.66710       -3.92500
O         -3.71100        6.68100       -3.46150
C         -3.79930        8.69660       -4.75960
C         -5.10370        8.68940       -5.24820
C         -5.41930        9.78860       -6.01060
C         -4.50450       10.81660       -6.27000
C         -3.21110       10.82980       -5.80190
C         -2.87000        9.72270       -5.02070
C         -1.59820        9.36720       -4.38980
C         -0.45110       10.12210       -4.45040
C          0.81810        9.73830       -3.97960
N          1.90160        9.50690       -3.66970
C         -0.36720       11.40840       -5.01960
N         -0.21390       12.46790       -5.43700
C         -5.49410       11.59770       -7.09830
C         -6.15270       12.81690       -6.41890
C         -7.38230       13.07730       -7.25860
C         -8.24930       12.10210       -7.01760
C         -7.62060       11.16660       -6.01040
C         -6.80510       12.17320       -5.18850
C         -6.51400       10.44920       -6.81180
C         -0.87170        6.25180       -2.27660
C          0.16580        5.76800       -1.44060
N          1.24640        6.48520       -1.00360
C          2.43910        5.78380       -0.73630
C          3.14390        5.99630        0.44680
C          4.25590        5.23520        0.73010
C          4.68250        4.24860       -0.15750
S          6.06260        3.26730        0.32800
C          5.89810        1.79090       -0.71810
C          4.01960        4.08060       -1.36660
C          2.90760        4.84540       -1.65180
C          1.18840        7.85900       -0.71850
C          2.29340        8.66570       -0.97160
C          2.23690       10.02580       -0.73750
C          1.06650       10.60120       -0.26440
S          0.86300       12.33560       -0.01470
C          2.21300       13.05560       -0.99170
C         -0.02420        9.78700        0.04180
C          0.03740        8.42950       -0.17110
C         -0.04980        4.41560       -1.11230
S          0.83980        3.24590       -0.20590
C         -0.36560        2.01710       -0.55390
C         -1.41450        2.49990       -1.32440
N         -2.49210        1.79470       -1.82760
C         -2.45540        0.42250       -2.07770
C         -1.29800       -0.20980       -2.53380
C         -1.25880       -1.58130       -2.66800
C         -2.38430       -2.34880       -2.38240
S         -2.24010       -4.10420       -2.53360
C         -3.59950       -4.71070       -1.48520
C         -3.56550       -1.71560       -2.02080
C         -3.59970       -0.34620       -1.86900
C         -3.67920        2.50180       -2.09140
C         -4.38060        2.27860       -3.27560
C         -5.48870        3.03770       -3.58000
C         -5.91520        4.03710       -2.71150
S         -7.29610        5.02680       -3.19660
C         -6.88420        6.62020       -2.42170
C         -5.25910        4.22190       -1.50330
C         -4.14970        3.45960       -1.19750
C         -1.21760        3.87600       -1.63200
S         -2.13490        5.04300       -2.51850
C         -0.06080        0.66950       -0.10970
C         -1.02020       -0.18960        0.49290
N         -2.27540        0.24090        0.68730
C         -3.16120       -0.55340        1.24800
C         -4.55000       -0.10590        1.21240
C         -4.84500        1.24760        1.26340
C         -6.15410        1.68700        1.17040
C         -7.19790        0.78410        1.03520
O         -8.51530        1.09040        0.97300
C         -8.92160        2.44040        0.86450
C         -8.68840        3.01020       -0.53040
C         -6.90470       -0.60360        0.98390
C         -5.59330       -1.02500        1.05180
O         -7.99120       -1.41450        0.88290
C         -7.82400       -2.81630        0.91090
C         -7.44030       -3.39230       -0.44970
C         -2.74750       -1.81630        1.78830
C         -3.55830       -2.65070        2.67390
C         -4.48170       -2.12620        3.56740
C         -5.21090       -2.96920        4.38940
C         -5.03120       -4.34420        4.34640
O         -5.71630       -5.26130        5.07220
C         -6.62500       -4.84070        6.06890
C         -5.92430       -4.36900        7.34000
C         -4.05630       -4.88330        3.46880
O         -3.93380       -6.23630        3.50320
C         -2.84920       -6.85630        2.84100
C         -1.51400       -6.62640        3.54250
C         -3.34050       -4.03290        2.65180
N         -1.55150       -2.28000        1.50990
C         -0.68070       -1.53000        0.82140
C          0.59640       -2.07270        0.51730
C          1.52030       -1.19370       -0.00340
C          1.20390        0.13770       -0.29600
F          2.17980        0.87170       -0.87250
F          2.76690       -1.60450       -0.31460
C          0.87970       -3.49210        0.73880
C          2.09290       -3.90370        1.27510
C          2.30830       -5.26340        1.44190
N          3.41260       -5.91790        1.92250
C          4.63830       -5.30280        2.35990
C          4.60310       -4.97980        3.85290
C          3.16290       -7.26660        1.90270
C          1.85970       -7.49670        1.38790
C          1.31480       -6.21250        1.08810
C          0.10910       -5.78250        0.54240
C         -0.09660       -4.43460        0.37510
C          1.37530       -8.79940        1.28770
C          2.18860       -9.83700        1.66990
C          3.50590       -9.61600        2.13290
C          3.98170       -8.31280        2.28520
C          4.29620      -10.77260        2.45220
C          5.64110      -10.94770        2.36230
C          6.62590      -10.07840        1.66350
O          6.51110       -8.92280        1.31480
C          7.80510      -10.93320        1.42510
C          8.94380      -10.59040        0.69740
C          9.88210      -11.59090        0.62290
C          9.70140      -12.84580        1.22170
C          8.58540      -13.19730        1.94190
C          7.62000      -12.18890        2.03590
C          6.32360      -12.19020        2.70040
C          5.86390      -13.14860        3.56260
C          6.56990      -14.32380        3.89540
N          7.09150      -15.29830        4.20570
C          4.64960      -13.07290        4.27910
N          3.69390      -13.07580        4.91560
C         11.03460      -13.35810        0.73660
C         12.17300      -13.41130        1.77720
C         13.42760      -13.47960        0.93660
C         13.60020      -12.29130        0.37190
C         12.46520      -11.39950        0.82140
C         12.24230      -11.94900        2.23630
C         11.23730      -11.95860        0.07180
H          0.10090        8.01780       -2.80700
H         -5.77190        7.86850       -5.04030
H         -2.51610       11.62250       -6.02280
H         -5.20290       11.79120       -8.12900
H         -5.48680       13.65880       -6.25040
H         -7.46920       13.88570       -7.96050
H         -9.20510       11.93320       -7.47820
H         -8.29400       10.50600       -5.47050
H         -6.09710       11.71450       -4.50060
H         -7.43950       12.87230       -4.64600
H         -6.90040        9.87470       -7.65180
H          2.79730        6.73920        1.14950
H          4.79280        5.37690        1.65530
H          6.55040        1.04280       -0.27850
H          6.22240        2.00730       -1.73190
H          4.86850        1.44770       -0.69770
H          4.35500        3.35500       -2.08880
H          2.38770        4.71030       -2.58880
H          3.19350        8.22940       -1.37500
H          3.10490       10.62510       -0.95470
H          3.16450       12.90510       -0.48990
H          2.21490       12.61510       -1.98440
H          1.99610       14.11730       -1.05620
H         -0.91810       10.23690        0.44570
H         -0.81190        7.80510        0.06260
H         -0.42540        0.37700       -2.77670
H         -0.35510       -2.07300       -2.99450
H         -3.59890       -4.17580       -0.53920
H         -4.55200       -4.60190       -1.99600
H         -3.39590       -5.76400       -1.31920
H         -4.46580       -2.28250       -1.84590
H         -4.51370        0.13380       -1.55490
H         -4.03080        1.52740       -3.96820
H         -6.01650        2.88620       -4.50890
H         -5.82160        6.79890       -2.55950
H         -7.15240        6.61450       -1.36890
H         -7.47000        7.37300       -2.94030
H         -5.59530        4.96910       -0.80200
H         -3.62920        3.61860       -0.26580
H         -4.03860        1.95090        1.38820
H         -6.34890        2.74610        1.21450
H         -8.42900        3.05600        1.62800
H         -9.99260        2.41490        1.08340
H         -9.22180        2.41590       -1.26740
H         -9.05170        4.03270       -0.57900
H         -7.63150        2.99650       -0.78450
H         -5.35090       -2.07160        0.97460
H         -8.80460       -3.20120        1.20560
H         -7.09370       -3.10550        1.67820
H         -6.49250       -2.98260       -0.78880
H         -7.35520       -4.47350       -0.37920
H         -8.20210       -3.14170       -1.18340
H         -4.62660       -1.06000        3.64170
H         -5.92380       -2.53080        5.06910
H         -7.21810       -5.73380        6.28400
H         -7.29800       -4.06550        5.68140
H         -5.30610       -3.49640        7.14380
H         -6.66430       -4.11610        8.09430
H         -5.28650       -5.16200        7.72180
H         -3.10240       -7.91990        2.86320
H         -2.79780       -6.53360        1.79340
H         -1.22630       -5.57880        3.50110
H         -1.59420       -6.92510        4.58470
H         -0.73980       -7.21940        3.06400
H         -2.58500       -4.40460        1.97950
H          2.83730       -3.18000        1.56690
H          5.46190       -5.98660        2.13930
H          4.79090       -4.38830        1.78090
H          4.45890       -5.88820        4.43320
H          3.78540       -4.29720        4.07330
H          5.53740       -4.51590        4.15690
H         -0.64070       -6.49980        0.24450
H         -1.00710       -4.07820       -0.07420
H          0.37840       -8.98510        0.91710
H          1.83360      -10.85410        1.59230
H          4.95370       -8.13630        2.71030
H          3.71160      -11.64330        2.72970
H          9.03830       -9.61620        0.24390
H          8.45310      -14.16970        2.38610
H         11.00020      -14.23850        0.09770
H         12.05400      -14.17250        2.54320
H         14.00990      -14.37170        0.79950
H         14.35550      -11.99260       -0.33110
H         12.61400      -10.32810        0.71690
H         11.33250      -11.59010        2.71400
H         13.09380      -11.76290        2.88870
H         11.33910      -11.90550       -1.01060
