
  xtb     02142202383D
 energy: -392.700279743273 gnorm: 0.000489178230 xtb: 6.4.1 (unknown)
224246  0     0  0            999 V2000
    5.0676    9.6823   -0.6899 C   0  0  0  0  0  0  0  0  0  0  0  0
    5.6893   10.4866    0.2186 C   0  0  0  0  0  0  0  0  0  0  0  0
    5.6706   10.3223    1.6852 C   0  0  0  0  0  0  0  0  0  0  0  0
    5.0592    9.4927    2.3297 O   0  0  0  0  0  0  0  0  0  0  0  0
    6.5461   11.3719    2.2275 C   0  0  0  0  0  0  0  0  0  0  0  0
    6.8580   11.5854    3.5690 C   0  0  0  0  0  0  0  0  0  0  0  0
    7.7130   12.6392    3.7819 C   0  0  0  0  0  0  0  0  0  0  0  0
    8.2235   13.4219    2.7366 C   0  0  0  0  0  0  0  0  0  0  0  0
    7.9259   13.2203    1.4100 C   0  0  0  0  0  0  0  0  0  0  0  0
    7.0526   12.1537    1.1691 C   0  0  0  0  0  0  0  0  0  0  0  0
    6.5172   11.6426   -0.0900 C   0  0  0  0  0  0  0  0  0  0  0  0
    6.7491   12.1839   -1.3273 C   0  0  0  0  0  0  0  0  0  0  0  0
    6.2178   11.7178   -2.5488 C   0  0  0  0  0  0  0  0  0  0  0  0
    5.8297   11.4129   -3.5862 N   0  0  0  0  0  0  0  0  0  0  0  0
    7.5555   13.3176   -1.5663 C   0  0  0  0  0  0  0  0  0  0  0  0
    8.1933   14.2316   -1.8414 N   0  0  0  0  0  0  0  0  0  0  0  0
    9.0130   14.3010    3.6739 C   0  0  0  0  0  0  0  0  0  0  0  0
    8.4231   15.6959    3.9719 C   0  0  0  0  0  0  0  0  0  0  0  0
    9.1205   16.1183    5.2449 C   0  0  0  0  0  0  0  0  0  0  0  0
    8.6378   15.3775    6.2343 C   0  0  0  0  0  0  0  0  0  0  0  0
    7.6060   14.4419    5.6469 C   0  0  0  0  0  0  0  0  0  0  0  0
    7.0421   15.3359    4.5350 C   0  0  0  0  0  0  0  0  0  0  0  0
    8.4441   13.4284    4.8386 C   0  0  0  0  0  0  0  0  0  0  0  0
    4.2577    8.5384   -0.5020 C   0  0  0  0  0  0  0  0  0  0  0  0
    3.7416    7.8378   -1.5756 C   0  0  0  0  0  0  0  0  0  0  0  0
    2.9643    6.7251   -1.2131 C   0  0  0  0  0  0  0  0  0  0  0  0
    2.2893    5.8163   -2.0570 C   0  0  0  0  0  0  0  0  0  0  0  0
    2.4092    5.8737   -3.5195 C   0  0  0  0  0  0  0  0  0  0  0  0
    3.6599    5.9436   -4.1266 C   0  0  0  0  0  0  0  0  0  0  0  0
    3.7500    5.9489   -5.5043 C   0  0  0  0  0  0  0  0  0  0  0  0
    4.9776    5.9985   -6.0584 F   0  0  0  0  0  0  0  0  0  0  0  0
    2.6420    5.8909   -6.3423 C   0  0  0  0  0  0  0  0  0  0  0  0
    2.7632    5.9324   -7.8360 C   0  0  0  0  0  0  0  0  0  0  0  0
    2.6976    7.3764   -8.3395 C   0  0  0  0  0  0  0  0  0  0  0  0
    1.4119    5.8342   -5.6967 C   0  0  0  0  0  0  0  0  0  0  0  0
    0.2927    5.7882   -6.4489 F   0  0  0  0  0  0  0  0  0  0  0  0
    1.2747    5.8165   -4.3238 C   0  0  0  0  0  0  0  0  0  0  0  0
    1.5472    4.8305   -1.4336 C   0  0  0  0  0  0  0  0  0  0  0  0
    1.4558    4.6986   -0.0213 C   0  0  0  0  0  0  0  0  0  0  0  0
    2.1230    5.6051    0.8155 C   0  0  0  0  0  0  0  0  0  0  0  0
    2.0250    5.5059    2.2766 C   0  0  0  0  0  0  0  0  0  0  0  0
    3.1641    5.5525    3.0740 C   0  0  0  0  0  0  0  0  0  0  0  0
    3.0369    5.4499    4.4445 C   0  0  0  0  0  0  0  0  0  0  0  0
    1.8145    5.3060    5.0922 C   0  0  0  0  0  0  0  0  0  0  0  0
    1.7009    5.2414    6.5862 C   0  0  0  0  0  0  0  0  0  0  0  0
    1.5543    6.6485    7.1703 C   0  0  0  0  0  0  0  0  0  0  0  0
    0.7011    5.2802    4.2606 C   0  0  0  0  0  0  0  0  0  0  0  0
    0.7805    5.3709    2.8859 C   0  0  0  0  0  0  0  0  0  0  0  0
   -0.5211    5.1506    4.8204 F   0  0  0  0  0  0  0  0  0  0  0  0
    4.1578    5.4717    5.1928 F   0  0  0  0  0  0  0  0  0  0  0  0
    2.8777    6.5958    0.1997 C   0  0  0  0  0  0  0  0  0  0  0  0
    3.7799    7.8314    1.0272 S   0  0  0  0  0  0  0  0  0  0  0  0
    0.7372    3.5363    0.3517 C   0  0  0  0  0  0  0  0  0  0  0  0
    0.3131    2.7890   -0.7061 C   0  0  0  0  0  0  0  0  0  0  0  0
    0.7058    3.5354   -2.2457 S   0  0  0  0  0  0  0  0  0  0  0  0
   -0.2800    1.4904   -0.6900 C   0  0  0  0  0  0  0  0  0  0  0  0
    0.0347    0.4181    0.1344 C   0  0  0  0  0  0  0  0  0  0  0  0
    1.0136    0.3815    1.1073 N   0  0  0  0  0  0  0  0  0  0  0  0
    2.1917    1.1300    1.0076 C   0  0  0  0  0  0  0  0  0  0  0  0
    2.7853    1.3847   -0.2259 C   0  0  0  0  0  0  0  0  0  0  0  0
    3.8613    2.2436   -0.3276 C   0  0  0  0  0  0  0  0  0  0  0  0
    4.3754    2.8490    0.8108 C   0  0  0  0  0  0  0  0  0  0  0  0
    5.6740    4.0439    0.7849 S   0  0  0  0  0  0  0  0  0  0  0  0
    5.7993    4.4932   -0.9688 C   0  0  0  0  0  0  0  0  0  0  0  0
    3.8502    2.5170    2.0580 C   0  0  0  0  0  0  0  0  0  0  0  0
    2.7676    1.6729    2.1570 C   0  0  0  0  0  0  0  0  0  0  0  0
    0.8494   -0.5347    2.1642 C   0  0  0  0  0  0  0  0  0  0  0  0
    1.8782   -1.4034    2.5129 C   0  0  0  0  0  0  0  0  0  0  0  0
    1.6800   -2.3675    3.4806 C   0  0  0  0  0  0  0  0  0  0  0  0
    0.4471   -2.4780    4.1129 C   0  0  0  0  0  0  0  0  0  0  0  0
    0.0726   -3.7207    5.3064 S   0  0  0  0  0  0  0  0  0  0  0  0
    1.3045   -5.0086    4.9601 C   0  0  0  0  0  0  0  0  0  0  0  0
   -0.5642   -1.5696    3.8077 C   0  0  0  0  0  0  0  0  0  0  0  0
   -0.3664   -0.6065    2.8435 C   0  0  0  0  0  0  0  0  0  0  0  0
   -0.7465   -0.7142   -0.2108 C   0  0  0  0  0  0  0  0  0  0  0  0
   -0.8543   -2.3275    0.3892 S   0  0  0  0  0  0  0  0  0  0  0  0
   -2.0332   -2.7467   -0.8490 C   0  0  0  0  0  0  0  0  0  0  0  0
   -2.3440   -1.6680   -1.6646 C   0  0  0  0  0  0  0  0  0  0  0  0
   -3.1745   -1.6616   -2.7829 N   0  0  0  0  0  0  0  0  0  0  0  0
   -2.6517   -0.9148   -3.8631 C   0  0  0  0  0  0  0  0  0  0  0  0
   -3.3464    0.1431   -4.4396 C   0  0  0  0  0  0  0  0  0  0  0  0
   -2.7473    0.9353   -5.3996 C   0  0  0  0  0  0  0  0  0  0  0  0
   -1.4375    0.6896   -5.7905 C   0  0  0  0  0  0  0  0  0  0  0  0
   -0.5484    1.6856   -6.9416 S   0  0  0  0  0  0  0  0  0  0  0  0
   -1.5976    3.1525   -7.1400 C   0  0  0  0  0  0  0  0  0  0  0  0
   -0.7558   -0.3993   -5.2490 C   0  0  0  0  0  0  0  0  0  0  0  0
   -1.3562   -1.1942   -4.2997 C   0  0  0  0  0  0  0  0  0  0  0  0
   -4.5534   -1.8669   -2.6932 C   0  0  0  0  0  0  0  0  0  0  0  0
   -5.2366   -1.7695   -1.4835 C   0  0  0  0  0  0  0  0  0  0  0  0
   -6.6162   -1.8508   -1.4443 C   0  0  0  0  0  0  0  0  0  0  0  0
   -7.3401   -2.0229   -2.6165 C   0  0  0  0  0  0  0  0  0  0  0  0
   -9.0997   -1.9727   -2.7177 S   0  0  0  0  0  0  0  0  0  0  0  0
   -9.6347   -1.6360   -1.0196 C   0  0  0  0  0  0  0  0  0  0  0  0
   -6.6529   -2.2059   -3.8170 C   0  0  0  0  0  0  0  0  0  0  0  0
   -5.2801   -2.1374   -3.8558 C   0  0  0  0  0  0  0  0  0  0  0  0
   -1.5905   -0.5251   -1.2905 C   0  0  0  0  0  0  0  0  0  0  0  0
   -1.4663    1.0790   -1.9199 S   0  0  0  0  0  0  0  0  0  0  0  0
   -2.4247   -4.1154   -0.8991 C   0  0  0  0  0  0  0  0  0  0  0  0
   -3.4862   -4.7383   -1.4928 C   0  0  0  0  0  0  0  0  0  0  0  0
   -3.4865   -6.1449   -1.3163 C   0  0  0  0  0  0  0  0  0  0  0  0
   -4.4489   -7.0724   -1.7485 C   0  0  0  0  0  0  0  0  0  0  0  0
   -5.7429   -6.6567   -2.3048 C   0  0  0  0  0  0  0  0  0  0  0  0
   -6.5413   -5.7713   -1.5894 C   0  0  0  0  0  0  0  0  0  0  0  0
   -7.8160   -5.4911   -2.0381 C   0  0  0  0  0  0  0  0  0  0  0  0
   -8.5838   -4.6916   -1.2698 F   0  0  0  0  0  0  0  0  0  0  0  0
   -8.3514   -6.0218   -3.2057 C   0  0  0  0  0  0  0  0  0  0  0  0
   -9.7392   -5.7140   -3.6848 C   0  0  0  0  0  0  0  0  0  0  0  0
   -9.7214   -4.8430   -4.9420 C   0  0  0  0  0  0  0  0  0  0  0  0
   -7.5070   -6.8791   -3.9054 C   0  0  0  0  0  0  0  0  0  0  0  0
   -7.9605   -7.4414   -5.0433 F   0  0  0  0  0  0  0  0  0  0  0  0
   -6.2375   -7.2133   -3.4790 C   0  0  0  0  0  0  0  0  0  0  0  0
   -4.1791   -8.4135   -1.5163 C   0  0  0  0  0  0  0  0  0  0  0  0
   -3.0035   -8.8546   -0.8568 C   0  0  0  0  0  0  0  0  0  0  0  0
   -2.0822   -7.9240   -0.3435 C   0  0  0  0  0  0  0  0  0  0  0  0
   -0.9835   -8.3853    0.5168 C   0  0  0  0  0  0  0  0  0  0  0  0
   -0.8733   -7.8956    1.8145 C   0  0  0  0  0  0  0  0  0  0  0  0
    0.0795   -8.4261    2.6600 C   0  0  0  0  0  0  0  0  0  0  0  0
    0.9542   -9.4422    2.2890 C   0  0  0  0  0  0  0  0  0  0  0  0
    1.9653  -10.0041    3.2422 C   0  0  0  0  0  0  0  0  0  0  0  0
    3.1654   -9.0655    3.3832 C   0  0  0  0  0  0  0  0  0  0  0  0
    0.8339   -9.8771    0.9749 C   0  0  0  0  0  0  0  0  0  0  0  0
   -0.1036   -9.3757    0.0929 C   0  0  0  0  0  0  0  0  0  0  0  0
    1.6546  -10.8555    0.5352 F   0  0  0  0  0  0  0  0  0  0  0  0
    0.1552   -7.9456    3.9169 F   0  0  0  0  0  0  0  0  0  0  0  0
   -2.3508   -6.5923   -0.5888 C   0  0  0  0  0  0  0  0  0  0  0  0
   -1.3608   -5.2557   -0.0847 S   0  0  0  0  0  0  0  0  0  0  0  0
   -2.9965  -10.2484   -0.6626 C   0  0  0  0  0  0  0  0  0  0  0  0
   -4.1336  -10.8788   -1.0937 C   0  0  0  0  0  0  0  0  0  0  0  0
   -5.2407   -9.7506   -1.8614 S   0  0  0  0  0  0  0  0  0  0  0  0
   -4.4586  -12.2555   -1.0025 C   0  0  0  0  0  0  0  0  0  0  0  0
   -3.8675  -13.2111   -0.2364 C   0  0  0  0  0  0  0  0  0  0  0  0
   -4.0823  -14.6473   -0.5905 C   0  0  0  0  0  0  0  0  0  0  0  0
   -4.9506  -15.0898   -1.3056 O   0  0  0  0  0  0  0  0  0  0  0  0
   -2.9778  -15.3708    0.0627 C   0  0  0  0  0  0  0  0  0  0  0  0
   -2.6208  -16.7019   -0.0355 C   0  0  0  0  0  0  0  0  0  0  0  0
   -1.5043  -17.1383    0.6607 C   0  0  0  0  0  0  0  0  0  0  0  0
   -0.7452  -16.2656    1.4377 C   0  0  0  0  0  0  0  0  0  0  0  0
    0.4778  -16.7474    2.1503 C   0  0  0  0  0  0  0  0  0  0  0  0
   -1.1153  -14.9246    1.5388 C   0  0  0  0  0  0  0  0  0  0  0  0
   -2.2337  -14.4790    0.8586 C   0  0  0  0  0  0  0  0  0  0  0  0
   -2.8771  -13.1672    0.8223 C   0  0  0  0  0  0  0  0  0  0  0  0
   -2.7177  -12.1934    1.7734 C   0  0  0  0  0  0  0  0  0  0  0  0
   -1.7157  -12.2061    2.7642 C   0  0  0  0  0  0  0  0  0  0  0  0
   -0.8895  -12.1251    3.5576 N   0  0  0  0  0  0  0  0  0  0  0  0
   -3.5535  -11.0636    1.8952 C   0  0  0  0  0  0  0  0  0  0  0  0
   -4.2224  -10.1471    2.0676 N   0  0  0  0  0  0  0  0  0  0  0  0
    5.2039    9.9260   -1.7367 H   0  0  0  0  0  0  0  0  0  0  0  0
    6.4464   10.9525    4.3395 H   0  0  0  0  0  0  0  0  0  0  0  0
    8.3346   13.8278    0.6204 H   0  0  0  0  0  0  0  0  0  0  0  0
   10.0890   14.3195    3.5131 H   0  0  0  0  0  0  0  0  0  0  0  0
    8.4594   16.3925    3.1389 H   0  0  0  0  0  0  0  0  0  0  0  0
    9.9063   16.8495    5.2839 H   0  0  0  0  0  0  0  0  0  0  0  0
    8.9401   15.3662    7.2651 H   0  0  0  0  0  0  0  0  0  0  0  0
    6.8978   13.9966    6.3404 H   0  0  0  0  0  0  0  0  0  0  0  0
    6.5205   16.2054    4.9313 H   0  0  0  0  0  0  0  0  0  0  0  0
    6.3968   14.8147    3.8302 H   0  0  0  0  0  0  0  0  0  0  0  0
    9.1405   12.8638    5.4556 H   0  0  0  0  0  0  0  0  0  0  0  0
    3.9105    8.1418   -2.5937 H   0  0  0  0  0  0  0  0  0  0  0  0
    4.5657    5.9687   -3.5415 H   0  0  0  0  0  0  0  0  0  0  0  0
    1.9513    5.3544   -8.2807 H   0  0  0  0  0  0  0  0  0  0  0  0
    3.7137    5.4874   -8.1339 H   0  0  0  0  0  0  0  0  0  0  0  0
    2.7849    7.3968   -9.4225 H   0  0  0  0  0  0  0  0  0  0  0  0
    3.5085    7.9637   -7.9149 H   0  0  0  0  0  0  0  0  0  0  0  0
    1.7519    7.8346   -8.0586 H   0  0  0  0  0  0  0  0  0  0  0  0
    0.2881    5.7773   -3.8910 H   0  0  0  0  0  0  0  0  0  0  0  0
    4.1470    5.6454    2.6416 H   0  0  0  0  0  0  0  0  0  0  0  0
    0.8302    4.6427    6.8589 H   0  0  0  0  0  0  0  0  0  0  0  0
    2.5950    4.7700    6.9973 H   0  0  0  0  0  0  0  0  0  0  0  0
    2.4169    7.2576    6.9100 H   0  0  0  0  0  0  0  0  0  0  0  0
    0.6591    7.1288    6.7816 H   0  0  0  0  0  0  0  0  0  0  0  0
    1.4783    6.5966    8.2533 H   0  0  0  0  0  0  0  0  0  0  0  0
   -0.1268    5.3649    2.3029 H   0  0  0  0  0  0  0  0  0  0  0  0
    0.5702    3.2482    1.3725 H   0  0  0  0  0  0  0  0  0  0  0  0
    2.3908    0.9206   -1.1177 H   0  0  0  0  0  0  0  0  0  0  0  0
    4.2847    2.4324   -1.3010 H   0  0  0  0  0  0  0  0  0  0  0  0
    6.4269    5.3788   -1.0012 H   0  0  0  0  0  0  0  0  0  0  0  0
    6.2670    3.6915   -1.5334 H   0  0  0  0  0  0  0  0  0  0  0  0
    4.8092    4.7220   -1.3517 H   0  0  0  0  0  0  0  0  0  0  0  0
    4.2855    2.9490    2.9450 H   0  0  0  0  0  0  0  0  0  0  0  0
    2.3409    1.4493    3.1235 H   0  0  0  0  0  0  0  0  0  0  0  0
    2.8299   -1.3302    2.0074 H   0  0  0  0  0  0  0  0  0  0  0  0
    2.4887   -3.0368    3.7259 H   0  0  0  0  0  0  0  0  0  0  0  0
    0.9472   -5.9020    5.4624 H   0  0  0  0  0  0  0  0  0  0  0  0
    1.3476   -5.1820    3.8892 H   0  0  0  0  0  0  0  0  0  0  0  0
    2.2754   -4.7238    5.3556 H   0  0  0  0  0  0  0  0  0  0  0  0
   -1.5078   -1.6403    4.3257 H   0  0  0  0  0  0  0  0  0  0  0  0
   -1.1569    0.0862    2.5945 H   0  0  0  0  0  0  0  0  0  0  0  0
   -4.3521    0.3654   -4.1156 H   0  0  0  0  0  0  0  0  0  0  0  0
   -3.3073    1.7560   -5.8169 H   0  0  0  0  0  0  0  0  0  0  0  0
   -2.5077    2.8959   -7.6744 H   0  0  0  0  0  0  0  0  0  0  0  0
   -1.8138    3.5788   -6.1654 H   0  0  0  0  0  0  0  0  0  0  0  0
   -1.0146    3.8570   -7.7238 H   0  0  0  0  0  0  0  0  0  0  0  0
    0.2534   -0.6010   -5.5734 H   0  0  0  0  0  0  0  0  0  0  0  0
   -0.8192   -2.0252   -3.8660 H   0  0  0  0  0  0  0  0  0  0  0  0
   -4.6863   -1.5981   -0.5700 H   0  0  0  0  0  0  0  0  0  0  0  0
   -7.1145   -1.7523   -0.4937 H   0  0  0  0  0  0  0  0  0  0  0  0
   -9.3531   -2.4629   -0.3757 H   0  0  0  0  0  0  0  0  0  0  0  0
   -9.2110   -0.6962   -0.6773 H   0  0  0  0  0  0  0  0  0  0  0  0
  -10.7165   -1.5579   -1.0669 H   0  0  0  0  0  0  0  0  0  0  0  0
   -7.2119   -2.3804   -4.7235 H   0  0  0  0  0  0  0  0  0  0  0  0
   -4.7563   -2.2634   -4.7913 H   0  0  0  0  0  0  0  0  0  0  0  0
   -4.2509   -4.2188   -2.0393 H   0  0  0  0  0  0  0  0  0  0  0  0
   -6.1968   -5.3394   -0.6632 H   0  0  0  0  0  0  0  0  0  0  0  0
  -10.2494   -6.6538   -3.9101 H   0  0  0  0  0  0  0  0  0  0  0  0
  -10.2882   -5.1994   -2.8958 H   0  0  0  0  0  0  0  0  0  0  0  0
   -9.2451   -3.8889   -4.7321 H   0  0  0  0  0  0  0  0  0  0  0  0
   -9.1847   -5.3384   -5.7467 H   0  0  0  0  0  0  0  0  0  0  0  0
  -10.7395   -4.6530   -5.2710 H   0  0  0  0  0  0  0  0  0  0  0  0
   -5.6467   -7.9005   -4.0633 H   0  0  0  0  0  0  0  0  0  0  0  0
   -1.5431   -7.1340    2.1799 H   0  0  0  0  0  0  0  0  0  0  0  0
    2.2999  -10.9768    2.8809 H   0  0  0  0  0  0  0  0  0  0  0  0
    1.4927  -10.1402    4.2164 H   0  0  0  0  0  0  0  0  0  0  0  0
    3.8899   -9.4905    4.0729 H   0  0  0  0  0  0  0  0  0  0  0  0
    3.6486   -8.9181    2.4195 H   0  0  0  0  0  0  0  0  0  0  0  0
    2.8498   -8.0976    3.7660 H   0  0  0  0  0  0  0  0  0  0  0  0
   -0.1340   -9.7516   -0.9181 H   0  0  0  0  0  0  0  0  0  0  0  0
   -2.1621  -10.7707   -0.2345 H   0  0  0  0  0  0  0  0  0  0  0  0
   -5.2381  -12.6133   -1.6674 H   0  0  0  0  0  0  0  0  0  0  0  0
   -3.2067  -17.3767   -0.6402 H   0  0  0  0  0  0  0  0  0  0  0  0
   -1.2116  -18.1763    0.5996 H   0  0  0  0  0  0  0  0  0  0  0  0
    0.5820  -16.2533    3.1135 H   0  0  0  0  0  0  0  0  0  0  0  0
    0.4462  -17.8232    2.3013 H   0  0  0  0  0  0  0  0  0  0  0  0
    1.3634  -16.5126    1.5589 H   0  0  0  0  0  0  0  0  0  0  0  0
   -0.5179  -14.2527    2.1349 H   0  0  0  0  0  0  0  0  0  0  0  0
  1  2  2  0  0  0  0
  2  3  1  0  0  0  0
  3  4  2  0  0  0  0
  3  5  1  0  0  0  0
  5  6  2  0  0  0  0
  6  7  1  0  0  0  0
  7  8  2  0  0  0  0
  8  9  1  0  0  0  0
  9 10  2  0  0  0  0
 10 11  1  0  0  0  0
 11 12  2  0  0  0  0
 12 13  1  0  0  0  0
 13 14  3  0  0  0  0
 12 15  1  0  0  0  0
 15 16  3  0  0  0  0
  8 17  1  0  0  0  0
 17 18  1  0  0  0  0
 18 19  1  0  0  0  0
 19 20  2  0  0  0  0
 20 21  1  0  0  0  0
 21 22  1  0  0  0  0
 21 23  1  0  0  0  0
  1 24  1  0  0  0  0
 24 25  2  0  0  0  0
 25 26  1  0  0  0  0
 26 27  2  0  0  0  0
 27 28  1  0  0  0  0
 28 29  2  0  0  0  0
 29 30  1  0  0  0  0
 30 31  1  0  0  0  0
 30 32  2  0  0  0  0
 32 33  1  0  0  0  0
 33 34  1  0  0  0  0
 32 35  1  0  0  0  0
 35 36  1  0  0  0  0
 35 37  2  0  0  0  0
 27 38  1  0  0  0  0
 38 39  2  0  0  0  0
 39 40  1  0  0  0  0
 40 41  1  0  0  0  0
 41 42  2  0  0  0  0
 42 43  1  0  0  0  0
 43 44  2  0  0  0  0
 44 45  1  0  0  0  0
 45 46  1  0  0  0  0
 44 47  1  0  0  0  0
 47 48  2  0  0  0  0
 47 49  1  0  0  0  0
 43 50  1  0  0  0  0
 40 51  2  0  0  0  0
 51 52  1  0  0  0  0
 39 53  1  0  0  0  0
 53 54  2  0  0  0  0
 54 55  1  0  0  0  0
 54 56  1  0  0  0  0
 56 57  2  0  0  0  0
 57 58  1  0  0  0  0
 58 59  1  0  0  0  0
 59 60  2  0  0  0  0
 60 61  1  0  0  0  0
 61 62  2  0  0  0  0
 62 63  1  0  0  0  0
 63 64  1  0  0  0  0
 62 65  1  0  0  0  0
 65 66  2  0  0  0  0
 58 67  1  0  0  0  0
 67 68  2  0  0  0  0
 68 69  1  0  0  0  0
 69 70  2  0  0  0  0
 70 71  1  0  0  0  0
 71 72  1  0  0  0  0
 70 73  1  0  0  0  0
 73 74  2  0  0  0  0
 57 75  1  0  0  0  0
 75 76  1  0  0  0  0
 76 77  1  0  0  0  0
 77 78  2  0  0  0  0
 78 79  1  0  0  0  0
 79 80  1  0  0  0  0
 80 81  2  0  0  0  0
 81 82  1  0  0  0  0
 82 83  2  0  0  0  0
 83 84  1  0  0  0  0
 84 85  1  0  0  0  0
 83 86  1  0  0  0  0
 86 87  2  0  0  0  0
 79 88  1  0  0  0  0
 88 89  2  0  0  0  0
 89 90  1  0  0  0  0
 90 91  2  0  0  0  0
 91 92  1  0  0  0  0
 92 93  1  0  0  0  0
 91 94  1  0  0  0  0
 94 95  2  0  0  0  0
 78 96  1  0  0  0  0
 96 97  1  0  0  0  0
 77 98  1  0  0  0  0
 98 99  2  0  0  0  0
 99100  1  0  0  0  0
100101  2  0  0  0  0
101102  1  0  0  0  0
102103  2  0  0  0  0
103104  1  0  0  0  0
104105  1  0  0  0  0
104106  2  0  0  0  0
106107  1  0  0  0  0
107108  1  0  0  0  0
106109  1  0  0  0  0
109110  1  0  0  0  0
109111  2  0  0  0  0
101112  1  0  0  0  0
112113  2  0  0  0  0
113114  1  0  0  0  0
114115  1  0  0  0  0
115116  2  0  0  0  0
116117  1  0  0  0  0
117118  2  0  0  0  0
118119  1  0  0  0  0
119120  1  0  0  0  0
118121  1  0  0  0  0
121122  2  0  0  0  0
121123  1  0  0  0  0
117124  1  0  0  0  0
114125  2  0  0  0  0
125126  1  0  0  0  0
113127  1  0  0  0  0
127128  2  0  0  0  0
128129  1  0  0  0  0
128130  1  0  0  0  0
130131  2  0  0  0  0
131132  1  0  0  0  0
132133  2  0  0  0  0
132134  1  0  0  0  0
134135  2  0  0  0  0
135136  1  0  0  0  0
136137  2  0  0  0  0
137138  1  0  0  0  0
137139  1  0  0  0  0
139140  2  0  0  0  0
140141  1  0  0  0  0
141142  2  0  0  0  0
142143  1  0  0  0  0
143144  3  0  0  0  0
142145  1  0  0  0  0
145146  3  0  0  0  0
 11  2  1  0  0  0  0
 23 17  1  0  0  0  0
 52 24  1  0  0  0  0
 97 56  1  0  0  0  0
126 98  1  0  0  0  0
141131  1  0  0  0  0
 10  5  1  0  0  0  0
 22 18  1  0  0  0  0
 51 26  1  0  0  0  0
 66 59  1  0  0  0  0
 74 67  1  0  0  0  0
 96 75  2  0  0  0  0
125100  1  0  0  0  0
140134  1  0  0  0  0
 23  7  1  0  0  0  0
 37 28  1  0  0  0  0
 55 38  1  0  0  0  0
 87 80  1  0  0  0  0
 95 88  1  0  0  0  0
111102  1  0  0  0  0
129112  1  0  0  0  0
 48 41  1  0  0  0  0
122115  1  0  0  0  0
  1147  1  0  0  0  0
  6148  1  0  0  0  0
  9149  1  0  0  0  0
 17150  1  0  0  0  0
 18151  1  0  0  0  0
 19152  1  0  0  0  0
 20153  1  0  0  0  0
 21154  1  0  0  0  0
 22155  1  0  0  0  0
 22156  1  0  0  0  0
 23157  1  0  0  0  0
 25158  1  0  0  0  0
 29159  1  0  0  0  0
 33160  1  0  0  0  0
 33161  1  0  0  0  0
 34162  1  0  0  0  0
 34163  1  0  0  0  0
 34164  1  0  0  0  0
 37165  1  0  0  0  0
 42166  1  0  0  0  0
 45167  1  0  0  0  0
 45168  1  0  0  0  0
 46169  1  0  0  0  0
 46170  1  0  0  0  0
 46171  1  0  0  0  0
 48172  1  0  0  0  0
 53173  1  0  0  0  0
 60174  1  0  0  0  0
 61175  1  0  0  0  0
 64176  1  0  0  0  0
 64177  1  0  0  0  0
 64178  1  0  0  0  0
 65179  1  0  0  0  0
 66180  1  0  0  0  0
 68181  1  0  0  0  0
 69182  1  0  0  0  0
 72183  1  0  0  0  0
 72184  1  0  0  0  0
 72185  1  0  0  0  0
 73186  1  0  0  0  0
 74187  1  0  0  0  0
 81188  1  0  0  0  0
 82189  1  0  0  0  0
 85190  1  0  0  0  0
 85191  1  0  0  0  0
 85192  1  0  0  0  0
 86193  1  0  0  0  0
 87194  1  0  0  0  0
 89195  1  0  0  0  0
 90196  1  0  0  0  0
 93197  1  0  0  0  0
 93198  1  0  0  0  0
 93199  1  0  0  0  0
 94200  1  0  0  0  0
 95201  1  0  0  0  0
 99202  1  0  0  0  0
103203  1  0  0  0  0
107204  1  0  0  0  0
107205  1  0  0  0  0
108206  1  0  0  0  0
108207  1  0  0  0  0
108208  1  0  0  0  0
111209  1  0  0  0  0
116210  1  0  0  0  0
119211  1  0  0  0  0
119212  1  0  0  0  0
120213  1  0  0  0  0
120214  1  0  0  0  0
120215  1  0  0  0  0
122216  1  0  0  0  0
127217  1  0  0  0  0
130218  1  0  0  0  0
135219  1  0  0  0  0
136220  1  0  0  0  0
138221  1  0  0  0  0
138222  1  0  0  0  0
138223  1  0  0  0  0
139224  1  0  0  0  0
M  END
