179

C          6.32030       -3.37630        6.87550
C          7.08410       -4.44280        6.50630
C          8.39800       -4.68680        7.15530
O          8.82130       -4.15250        8.15700
C          9.08290       -5.67050        6.29270
C         10.39900       -6.11720        6.39400
C         10.76280       -7.01280        5.41690
C          9.89060       -7.42580        4.40070
C          8.58860       -6.99910        4.29030
C          8.19510       -6.10200        5.28570
C          6.89720       -5.46840        5.50700
C          5.69760       -5.98140        5.08140
C          4.43900       -5.50150        5.49200
N          3.38450       -5.19080        5.82720
C          5.58290       -7.15790        4.31380
N          5.42750       -8.13380        3.72870
C         10.92620       -8.31850        3.76400
C         10.77890       -9.83280        4.02310
C         12.14850      -10.38850        3.70680
C         12.97310      -10.00300        4.67220
C         12.17460       -9.18020        5.65750
C         10.81840       -9.89020        5.55570
C         11.89690       -7.86400        4.90070
C          5.28850       -2.74870        6.14850
S          5.21860       -2.80520        4.38930
C          3.80280       -1.84690        4.41230
C          2.87550       -1.32340        3.49230
C          1.83830       -0.69410        4.18690
C          2.08120       -0.75340        5.67800
C          2.25650        0.63430        6.33540
C          1.39210        1.75020        5.75960
C          1.04120       -1.64300        6.39500
C         -0.37480       -1.09000        6.46590
C          3.39300       -1.51060        5.70600
C          4.25440       -1.98440        6.67790
C          0.84010       -0.24750        3.33430
C          1.09710       -0.53680        2.00000
S          2.65020       -1.31560        1.79230
C          0.22300       -0.20520        0.93050
C          0.08200       -0.69840       -0.36470
N          0.80100       -1.71470       -0.96460
C          1.02040       -1.63520       -2.35000
C          1.39500       -0.42580       -2.93670
C          1.55690       -0.33770       -4.30070
C          1.35870       -1.45530       -5.10930
S          1.55550       -1.20950       -6.84560
C          1.18270       -2.83320       -7.56530
C          1.02150       -2.66930       -4.52520
C          0.85170       -2.75540       -3.15770
C          1.26450       -2.83110       -0.26060
C          0.54750       -3.36970        0.80480
C          1.07110       -4.40510        1.55590
C          2.31570       -4.93440        1.24020
S          3.13680       -6.19330        2.15950
C          1.89350       -6.76290        3.34780
C          3.00860       -4.43620        0.13620
C          2.49440       -3.39900       -0.60390
C         -0.96540       -0.02290       -1.04580
S         -1.62460       -0.13620       -2.64150
C         -2.80020        1.12230       -2.27280
C         -2.64840        1.63020       -0.98700
N         -3.31220        2.72020       -0.44940
C         -3.67240        3.80970       -1.25310
C         -4.88660        4.46410       -1.05210
C         -5.32870        5.42420       -1.94160
C         -4.55680        5.75360       -3.04780
S         -5.07060        6.86040       -4.32210
C         -6.60080        7.59560       -3.68370
C         -3.30270        5.16410       -3.20380
C         -2.86200        4.20830       -2.31760
C         -3.56020        2.73750        0.92950
C         -3.94430        1.56930        1.58990
C         -4.12670        1.57140        2.95410
C         -3.94210        2.74020        3.69000
S         -4.15820        2.60620        5.43670
C         -3.99760        4.31290        6.03340
C         -3.59480        3.91280        3.03200
C         -3.40400        3.90880        1.66430
C         -1.61700        0.94310       -0.30050
S         -0.96340        1.05510        1.29160
C         -3.67940        1.55580       -3.30470
S         -5.31090        2.07780       -2.95100
C         -5.47080        2.65110       -4.55980
C         -6.36090        3.46770       -5.27560
C         -5.84690        3.65870       -6.57480
C         -4.53790        2.91620       -6.74800
C         -4.71060        1.81430       -7.81110
C         -3.48980        0.92320       -7.99780
C         -3.36590        3.87920       -7.02170
C         -3.38260        4.55400       -8.38630
C         -4.37100        2.33620       -5.36050
C         -3.36080        1.70660       -4.64500
C         -6.65070        4.48130       -7.32150
C         -7.74960        4.98600       -6.59890
S         -7.77150        4.36660       -4.95120
C         -8.67990        5.85100       -7.16900
C         -9.75140        6.51410       -6.60560
C        -10.07070        6.56530       -5.18250
O         -9.50290        5.99900       -4.26100
C        -11.21460        7.49220       -5.05240
C        -11.87450        7.88640       -3.90810
C        -12.93230        8.77710       -4.05320
Cl       -13.79440        9.30390       -2.65580
C        -13.30710        9.25140       -5.30370
C        -12.63560        8.84740       -6.44900
C        -11.57830        7.95920       -6.32700
C        -10.68810        7.35390       -7.31830
C        -10.77730        7.54400       -8.67530
C         -9.95770        6.93780       -9.64890
N         -9.33950        6.48560      -10.50570
C        -11.73120        8.37690       -9.29490
N        -12.47380        9.04340       -9.86300
H          6.58700       -2.91390        7.82130
H         11.04530       -5.76660        7.18340
H          7.92630       -7.30860        3.49810
H         11.18630       -8.08560        2.73310
H          9.93270      -10.29870        3.52600
H         12.38130      -10.93900        2.81410
H         14.03220      -10.16720        4.74710
H         12.60170       -9.05460        6.64890
H         10.00120       -9.35930        6.04010
H         10.86000      -10.91230        5.92820
H         12.80570       -7.33030        4.62780
H          3.30300        0.92970        6.22420
H          2.05840        0.53030        7.40370
H          1.65180        1.94090        4.72140
H          1.56370        2.66370        6.32560
H          0.33500        1.51090        5.81150
H          1.02510       -2.60760        5.88160
H          1.40470       -1.82120        7.40940
H         -1.02000       -1.82270        6.94620
H         -0.41340       -0.17650        7.05240
H         -0.77050       -0.89220        5.47410
H          4.13940       -1.84050        7.73710
H         -0.06610        0.24750        3.63290
H          1.55440        0.44220       -2.31400
H          1.83950        0.59790       -4.75840
H          0.16850       -3.12720       -7.31130
H          1.27050       -2.70290       -8.63940
H          1.90630       -3.56750       -7.22360
H          0.87520       -3.55460       -5.12220
H          0.57530       -3.69780       -2.70880
H         -0.41640       -2.95660        1.06440
H          0.50480       -4.78070        2.39300
H          1.70620       -5.99290        4.09130
H          0.98740       -7.04960        2.82270
H          2.33560       -7.63130        3.82720
H          3.96800       -4.86200       -0.11240
H          3.05150       -2.99710       -1.43650
H         -5.51050        4.18020       -0.21800
H         -6.29360        5.87640       -1.78270
H         -6.40780        8.05800       -2.72020
H         -7.38700        6.84820       -3.61840
H         -6.87860        8.35660       -4.40740
H         -2.68220        5.45950       -4.03580
H         -1.89540        3.74830       -2.45790
H         -4.09940        0.66290        1.02390
H         -4.41550        0.66760        3.46810
H         -4.74150        4.94290        5.55480
H         -2.99130        4.67970        5.85270
H         -4.18580        4.26690        7.10150
H         -3.45270        4.83440        3.57270
H         -3.11580        4.81930        1.16000
H         -5.56040        1.19560       -7.51060
H         -4.97100        2.28800       -8.75840
H         -3.70370        0.16810       -8.75100
H         -3.23720        0.41540       -7.07080
H         -2.62780        1.49550       -8.32880
H         -2.43490        3.32270       -6.90330
H         -3.39240        4.64980       -6.24730
H         -2.51120        5.19860       -8.47780
H         -4.26860        5.17040       -8.50290
H         -3.34960        3.82650       -9.19250
H         -2.39580        1.42650       -5.02850
H         -6.49770        4.75040       -8.35120
H         -8.50580        6.02870       -8.22330
H        -11.57730        7.51170       -2.94140
H        -14.13100        9.94310       -5.38300
H        -12.94550        9.23160       -7.40670
