172

C          0.37650       -0.46050        6.62050
C         -0.68550       -1.14490        7.13610
C         -1.09450       -0.90940        8.53890
O         -0.42330       -0.40440        9.41590
C         -2.47750       -1.41670        8.63490
C         -3.34340       -1.31540        9.72160
C         -4.58550       -1.86100        9.50170
C         -4.94490       -2.46590        8.29020
C         -4.09700       -2.58820        7.21470
C         -2.82830       -2.04070        7.41820
C         -1.65230       -2.04040        6.54870
C         -1.40780       -2.93820        5.53740
C         -0.10500       -3.18070        5.05780
N          0.96460       -3.44970        4.73640
C         -2.39750       -3.75640        4.96950
N         -3.20290       -4.39610        4.45780
C         -6.34140       -2.77830        8.76750
C         -7.47000       -1.86000        8.25260
C         -8.59860       -2.09060        9.23150
C         -8.25810       -1.52180       10.38090
C         -6.89390       -0.89670       10.19800
C         -6.98930       -0.48150        8.72420
C         -5.93980       -2.10730       10.12010
C          0.76730       -0.27020        5.28330
C          1.99570        0.25550        4.84750
N          3.07630        0.50990        5.64630
C          4.01420        1.47780        5.24440
C          5.38090        1.23330        5.37130
C          6.29060        2.17050        4.93720
C          5.85790        3.36770        4.36720
S          7.10430        4.47940        3.80630
C          6.18840        5.63570        2.74610
C          4.49740        3.63180        4.28070
C          3.58480        2.69360        4.71970
C          3.28970       -0.18830        6.85140
C          3.03970       -1.55800        6.93020
C          3.12150       -2.19960        8.14710
C          3.47000       -1.48790        9.28840
S          3.44380       -2.26370       10.88570
C          1.71010       -2.81940       10.89490
C          3.82040       -0.14950        9.19200
C          3.72930        0.50110        7.97780
C          2.00340        0.42380        3.44160
S          3.15190        1.01840        2.29060
C          2.07360        0.61870        0.97630
C          0.86760        0.09460        1.40790
N         -0.19540       -0.31540        0.61120
C         -0.52550        0.38160       -0.55270
C         -0.38380        1.76710       -0.60140
C         -0.58500        2.46110       -1.77740
C         -0.94190        1.78320       -2.93480
S         -1.15760        2.55430       -4.50920
C         -0.63270        4.26890       -4.22750
C         -1.15380        0.40770       -2.87740
C         -0.95530       -0.28360       -1.70300
C         -0.72710       -1.59180        0.88400
C         -2.08990       -1.84050        0.76190
C         -2.59870       -3.10310        1.00070
C         -1.75190       -4.13940        1.37610
S         -2.26440       -5.80590        1.61980
C         -4.07470       -5.70420        1.67610
C         -0.39090       -3.88320        1.53250
C          0.11640       -2.62820        1.28630
C          0.84060        0.00050        2.81820
S         -0.34010       -0.56010        3.93850
C          2.41500        0.88350       -0.40870
C          2.19010       -0.09180       -1.38090
C          2.28000        0.19790       -2.73200
O          2.08960       -0.69680       -3.71380
C          1.74870       -2.04150       -3.42320
C          1.66220       -2.77800       -4.74950
C          2.56210        1.52190       -3.15400
C          2.90580        2.45930       -2.17780
C          2.85040        2.13440       -0.84330
F          3.13390        3.09670        0.06580
C          2.40140        1.89480       -4.53420
C          2.57440        3.16250       -5.06900
C          2.17920        3.26630       -6.39700
C          2.20230        4.52540       -7.14150
C          3.34840        5.31700       -7.13950
C          3.37850        6.50390       -7.84650
C          2.26340        6.92190       -8.55360
C          1.11240        6.15260       -8.54330
C          1.07890        4.96280       -7.84150
C          1.71650        2.04340       -6.91700
S          1.76120        0.79590       -5.70190
C          1.38420        1.88060       -8.26960
C          0.87030        0.79980       -8.93790
C          0.45140       -0.47450       -8.34380
O          0.52650       -0.81680       -7.17630
C         -0.09510       -1.28470       -9.44660
C         -0.61730       -2.57350       -9.35930
C         -1.04130       -3.08740      -10.56100
C         -0.94830       -2.37310      -11.76260
C         -0.43410       -1.10210      -11.86240
C         -0.00090       -0.55740      -10.64950
C          0.59460        0.74710      -10.36010
C          0.84150        1.72490      -11.29050
C          1.42100        2.98770      -11.04480
N          1.88170        4.03720      -10.95720
C          0.54420        1.61290      -12.66500
N          0.32820        1.60220      -13.79300
C         -1.56160       -3.49120      -12.56850
C         -3.03840       -3.31420      -12.97960
C         -3.49220       -4.71720      -13.31220
C         -3.58280       -5.39250      -12.17350
C         -3.19160       -4.45720      -11.05220
C         -3.72020       -3.13250      -11.61730
C         -1.66750       -4.28700      -11.22800
H          0.95210        0.08200        7.36320
H         -3.02800       -0.84520       10.63990
H         -4.38140       -3.05740        6.28730
H         -6.61720       -3.83110        8.76960
H         -7.70540       -1.97530        7.19810
H         -9.47410       -2.67290        9.01150
H         -8.79260       -1.53380       11.31260
H         -6.60510       -0.13390       10.91600
H         -6.04160       -0.16940        8.28910
H         -7.73740        0.29290        8.56230
H         -5.94670       -2.71400       11.02370
H          5.71870        0.29960        5.79490
H          7.34970        1.98090        5.01780
H          6.94350        6.21070        2.21910
H          5.57850        6.30120        3.35030
H          5.58380        5.07670        2.03830
H          4.13420        4.56280        3.87790
H          2.52750        2.90680        4.65970
H          2.75020       -2.10920        6.04770
H          2.91000       -3.25590        8.20830
H          1.57590       -3.65090       10.20920
H          1.07220       -1.98390       10.61960
H          1.49750       -3.13800       11.91010
H          4.12620        0.38460       10.07770
H          3.95640        1.55450        7.90560
H         -0.09910        2.30580        0.29020
H         -0.45630        3.53120       -1.77490
H         -0.63880        4.74440       -5.20360
H         -1.33390        4.77230       -3.56800
H          0.37410        4.28050       -3.82160
H         -1.45180       -0.11420       -3.77380
H         -1.11320       -1.35180       -1.67290
H         -2.75140       -1.03910        0.46730
H         -3.65840       -3.26660        0.89090
H         -4.41330       -6.70570        1.92230
H         -4.46790       -5.41000        0.70720
H         -4.36190       -5.01280        2.46160
H          0.26410       -4.68300        1.84070
H          1.17530       -2.44870        1.40220
H          1.91350       -1.08120       -1.05480
H          2.51680       -2.49070       -2.77940
H          0.78490       -2.07290       -2.90110
H          0.99880       -2.24100       -5.42110
H          1.28880       -3.78520       -4.58920
H          2.64350       -2.83030       -5.21270
H          3.17870        3.46560       -2.44900
H          2.95030        4.00500       -4.51560
H          4.22350        4.98010       -6.60260
H          4.27760        7.10240       -7.85090
H          2.29130        7.84550       -9.11150
H          0.23890        6.47760       -9.08810
H          0.17380        4.37160       -7.81790
H          1.57950        2.76380       -8.86590
H         -0.66310       -3.08980       -8.41310
H         -0.36760       -0.57070      -12.79660
H         -0.94250       -3.89560      -13.36700
H         -3.21250       -2.55140      -13.73350
H         -3.64150       -5.07810      -14.31290
H         -3.82290       -6.43020      -12.03320
H         -3.50650       -4.73590      -10.05010
H         -3.38890       -2.25240      -11.06920
H         -4.80590       -3.12370      -11.69850
H         -1.12100       -5.22370      -11.13380
