210

C          3.62450        6.62390        7.55300
C          4.89190        6.73950        8.06120
C          6.12160        6.05970        7.59820
O          6.24360        5.17920        6.76230
C          7.23690        6.73180        8.29040
C          8.59560        6.45050        8.15320
C          9.41370        7.24830        8.91560
C          8.92190        8.26570        9.74390
C          7.58620        8.55590        9.88800
C          6.73500        7.74430        9.13200
C          5.27880        7.73940        9.04050
C          4.43250        8.48890        9.81630
C          3.02350        8.40500        9.81610
N          1.87850        8.38710        9.90640
C          4.85480        9.43720       10.77150
N          5.12360       10.22600       11.56150
C         10.30040        8.66670       10.20610
C         10.71450        8.20020       11.61770
C         12.22250        8.30380       11.60540
C         12.68710        7.33480       10.82710
C         11.50080        6.56010       10.29970
C         10.55370        6.67890       11.50070
C         10.84880        7.52710        9.28820
C          3.10800        5.63310        6.69820
C          3.56860        4.36760        6.42300
C          2.78660        3.65970        5.49760
C          3.09880        2.40540        4.91310
C          4.37770        1.77550        5.10140
C          4.66390        0.43470        5.00860
C          6.01770        0.08480        5.06070
C          6.88290        1.14140        5.16440
S          8.61440        0.93170        5.23000
C          9.22140        2.54560        4.61450
C          9.32370        3.58530        5.71180
Se         5.96950        2.77080        5.34400
C          2.11890        1.88100        4.07230
C          0.90780        2.55090        3.77640
C          0.66990        3.86710        4.24010
C         -0.41200        4.67940        3.73420
C         -1.05440        5.71590        4.35450
C         -1.92250        6.48310        3.55420
C         -1.99270        6.10570        2.24400
S         -3.03230        6.88260        1.06920
C         -2.24760        6.42680       -0.52180
C         -2.72820        5.08950       -1.04950
Se        -0.93970        4.57880        1.92230
C          1.61860        4.37610        5.12090
S          1.59180        5.94960        5.86330
C          0.07440        1.77590        2.94300
C          0.63360        0.59710        2.51950
S          2.23250        0.37920        3.18750
C         -0.00930       -0.29930        1.61680
C          0.49140       -1.13370        0.62410
N          1.81630       -1.48710        0.42870
C          2.60240       -1.96370        1.48430
C          3.99130       -1.82460        1.43130
C          4.77500       -2.29020        2.46030
C          4.19510       -2.90750        3.56830
S          5.29670       -3.48340        4.82340
C          4.21080       -3.75820        6.25200
C          2.81740       -3.05750        3.62230
C          2.02890       -2.58960        2.58810
C          2.23580       -1.69370       -0.89740
C          2.95130       -2.83490       -1.25850
C          3.25460       -3.06960       -2.57940
C          2.83740       -2.18530       -3.57280
S          3.18860       -2.64000       -5.24140
C          2.06190       -1.59910       -6.20820
C          2.17860       -1.01810       -3.21150
C          1.88820       -0.77380       -1.88320
C         -0.55220       -1.56300       -0.23690
S         -0.58600       -2.45720       -1.71150
C         -2.33250       -2.22560       -1.85610
C         -2.86560       -1.59040       -0.73270
N         -4.19710       -1.38740       -0.43610
C         -5.19210       -2.31350       -0.77090
C         -4.93090       -3.67850       -0.86390
C         -5.91360       -4.55460       -1.28320
C         -7.17770       -4.08090       -1.60470
S         -8.47200       -5.11310       -2.21820
C         -7.56220       -6.44970       -3.04130
C         -7.46400       -2.72860       -1.43650
C         -6.48620       -1.85390       -1.02800
C         -4.55720       -0.33560        0.43120
C         -5.38940       -0.59570        1.52090
C         -5.73890        0.41620        2.38250
C         -5.25860        1.71080        2.18510
S         -5.76940        2.91580        3.36540
C         -4.65260        4.30770        3.05860
C         -4.44170        1.97730        1.09500
C         -4.09850        0.96090        0.22130
C         -1.82340       -1.16420        0.13500
S         -1.76910       -0.19680        1.56590
C         -2.88510       -2.61310       -3.10870
C         -2.15500       -3.08450       -4.17300
C         -2.91300       -3.34750       -5.33250
C         -2.46470       -3.83820       -6.57850
C         -1.07870       -4.12070       -6.88660
C         -0.45360       -3.86850       -8.07800
C          0.84800       -4.38100       -8.22020
C          1.31540       -5.08720       -7.14730
S          2.87900       -5.86410       -7.13410
C          2.74290       -7.01520       -5.72060
C          3.06650       -6.34500       -4.40170
Se         0.07310       -5.07330       -5.73430
C         -3.45010       -4.04540       -7.53780
C         -4.83200       -3.81870       -7.31830
C         -5.28050       -3.32830       -6.07070
C         -6.68190       -3.18100       -5.74510
C         -7.26560       -2.21630       -4.97100
C         -8.64810       -2.35470       -4.73200
C         -9.21660       -3.46570       -5.28240
S        -10.87090       -4.02070       -5.28630
C        -11.74150       -2.78050       -4.26800
C        -11.56030       -3.02950       -2.78410
Se        -7.96880       -4.49070       -6.22950
C         -4.28620       -3.06040       -5.13580
S         -4.57080       -2.42330       -3.54210
C         -5.60170       -4.11340       -8.46360
C         -4.86640       -4.54250       -9.53650
S         -3.16380       -4.67460       -9.13530
C         -5.37250       -4.90900      -10.81260
C         -4.71660       -4.94790      -11.99870
C         -5.25440       -5.76850      -13.13060
O         -6.36530       -6.23590      -13.21830
C         -4.11850       -5.90550      -14.05360
C         -3.82540       -6.56160      -15.26150
C         -2.55810       -6.27890      -15.67670
S         -1.70040       -5.20780      -14.62640
C         -3.05750       -5.14020      -13.58460
C         -3.41810       -4.42160      -12.39320
C         -2.77210       -3.31060      -11.91490
C         -1.52090       -2.91440      -12.42740
N         -0.48930       -2.59660      -12.81740
C         -3.31820       -2.41930      -10.97000
N         -3.74850       -1.62400      -10.26230
H          2.91880        7.40720        7.80280
H          8.93730        5.66620        7.49780
H          7.22310        9.34700       10.52220
H         10.59250        9.69310        9.99340
H         10.19540        8.69860       12.43160
H         12.77460        9.07910       12.10320
H         13.70490        7.13900       10.54490
H         11.69930        5.56350        9.91460
H         10.93360        6.15680       12.37720
H          9.53500        6.35450       11.29700
H         11.51110        7.79250        8.46620
H          4.41020        3.94750        6.94030
H          3.89460       -0.31310        4.91930
H          6.36310       -0.93190        4.99050
H          8.54040        2.86360        3.82290
H         10.19900        2.32570        4.18510
H          9.75090        4.50060        5.30490
H          8.33380        3.81090        6.11240
H          9.95990        3.22440        6.51770
H         -0.92560        5.92880        5.40170
H         -2.47360        7.32470        3.93640
H         -1.16800        6.43380       -0.36100
H         -2.51660        7.23460       -1.20180
H         -3.81170        5.08400       -1.14530
H         -2.42850        4.28120       -0.37940
H         -2.29000        4.90170       -2.02750
H         -0.93050        2.05240        2.66760
H          4.44420       -1.33690        0.58160
H          5.84710       -2.17510        2.42410
H          4.87320       -3.93140        7.09440
H          3.58650       -4.63240        6.09110
H          3.61090       -2.87060        6.42940
H          2.34200       -3.54450        4.45870
H          0.95770       -2.71880        2.63670
H          3.24180       -3.54840       -0.50250
H          3.79730       -3.95780       -2.86030
H          1.05350       -1.69170       -5.81410
H          2.39690       -0.56600       -6.20040
H          2.09850       -1.98960       -7.22070
H          1.88110       -0.29500       -3.95370
H          1.36610        0.13070       -1.60570
H         -3.94730       -4.05550       -0.62540
H         -5.68120       -5.60510       -1.35980
H         -6.75220       -6.02120       -3.62570
H         -7.18890       -7.16400       -2.31310
H         -8.27830       -6.93450       -3.69840
H         -8.45730       -2.36780       -1.65080
H         -6.70520       -0.80140       -0.93420
H         -5.74870       -1.60000        1.68840
H         -6.37590        0.21780        3.23040
H         -3.62520        3.95220        3.07540
H         -4.81210        5.00650        3.87360
H         -4.89000        4.79070        2.11540
H         -4.06840        2.97240        0.91290
H         -3.46980        1.17380       -0.63120
H         -1.08860       -3.23180       -4.11200
H         -0.91880       -3.28830       -8.85730
H          1.42650       -4.25870       -9.11970
H          3.45490       -7.80950       -5.94380
H          1.73020       -7.42460       -5.73200
H          3.02330       -7.07310       -3.59420
H          2.35120       -5.54890       -4.19030
H          4.06360       -5.91280       -4.43850
H         -6.71950       -1.36390       -4.60380
H         -9.19470       -1.62620       -4.15960
H        -12.78680       -2.88580       -4.55850
H        -11.38850       -1.79690       -4.57450
H        -11.98070       -3.99350       -2.50910
H        -10.50630       -3.03950       -2.51860
H        -12.06330       -2.25160       -2.21300
H         -6.66310       -3.94590       -8.53490
H         -6.39650       -5.26930      -10.82910
H         -4.51000       -7.19820      -15.79060
H         -2.06390       -6.63420      -16.55980
