
  xtb     02132207193D
 energy: -318.922139001794 gnorm: 0.000396484462 xtb: 6.4.1 (unknown)
185204  0     0  0            999 V2000
   -7.9756    0.3204   -4.1903 C   0  0  0  0  0  0  0  0  0  0  0  0
   -7.9985   -0.3629   -5.3537 C   0  0  0  0  0  0  0  0  0  0  0  0
   -6.7884   -0.9388   -6.0155 C   0  0  0  0  0  0  0  0  0  0  0  0
   -5.6300   -0.8045   -5.6896 O   0  0  0  0  0  0  0  0  0  0  0  0
   -7.2814   -1.5944   -7.2376 C   0  0  0  0  0  0  0  0  0  0  0  0
   -6.5202   -2.3130   -8.1589 C   0  0  0  0  0  0  0  0  0  0  0  0
   -7.2395   -2.8018   -9.2215 C   0  0  0  0  0  0  0  0  0  0  0  0
   -8.6184   -2.5871   -9.3639 C   0  0  0  0  0  0  0  0  0  0  0  0
   -9.3805   -1.8786   -8.4675 C   0  0  0  0  0  0  0  0  0  0  0  0
   -8.6673   -1.3723   -7.3737 C   0  0  0  0  0  0  0  0  0  0  0  0
   -9.1373   -0.5940   -6.2337 C   0  0  0  0  0  0  0  0  0  0  0  0
  -10.4273   -0.1994   -6.0100 C   0  0  0  0  0  0  0  0  0  0  0  0
  -11.5056   -0.4454   -6.8880 C   0  0  0  0  0  0  0  0  0  0  0  0
  -12.4264   -0.6007   -7.5553 N   0  0  0  0  0  0  0  0  0  0  0  0
  -10.8809    0.5054   -4.8731 C   0  0  0  0  0  0  0  0  0  0  0  0
  -11.3388    1.0620   -3.9798 N   0  0  0  0  0  0  0  0  0  0  0  0
   -8.6838   -3.3505  -10.6630 C   0  0  0  0  0  0  0  0  0  0  0  0
   -8.7663   -2.5083  -11.9539 C   0  0  0  0  0  0  0  0  0  0  0  0
   -8.3369   -3.4685  -13.0397 C   0  0  0  0  0  0  0  0  0  0  0  0
   -7.0328   -3.6731  -12.9049 C   0  0  0  0  0  0  0  0  0  0  0  0
   -6.5586   -2.8543  -11.7259 C   0  0  0  0  0  0  0  0  0  0  0  0
   -7.4999   -1.6489  -11.8462 C   0  0  0  0  0  0  0  0  0  0  0  0
   -7.1481   -3.5906  -10.5037 C   0  0  0  0  0  0  0  0  0  0  0  0
   -6.8348    0.3184   -3.2995 C   0  0  0  0  0  0  0  0  0  0  0  0
   -6.1699   -0.8963   -2.9816 C   0  0  0  0  0  0  0  0  0  0  0  0
   -6.6800   -2.0551   -3.4544 N   0  0  0  0  0  0  0  0  0  0  0  0
   -6.0506   -3.1537   -3.1884 C   0  0  0  0  0  0  0  0  0  0  0  0
   -4.8668   -3.1633   -2.3893 C   0  0  0  0  0  0  0  0  0  0  0  0
   -4.3200   -4.3497   -2.1608 O   0  0  0  0  0  0  0  0  0  0  0  0
   -3.2038   -4.4081   -1.2769 C   0  0  0  0  0  0  0  0  0  0  0  0
   -1.9107   -4.0001   -1.9665 C   0  0  0  0  0  0  0  0  0  0  0  0
   -4.3880   -2.0604   -1.8669 N   0  0  0  0  0  0  0  0  0  0  0  0
   -5.0143   -0.9022   -2.1596 C   0  0  0  0  0  0  0  0  0  0  0  0
   -4.5198    0.3204   -1.6359 C   0  0  0  0  0  0  0  0  0  0  0  0
   -5.2258    1.4764   -1.9040 C   0  0  0  0  0  0  0  0  0  0  0  0
   -6.3736    1.4758   -2.7060 C   0  0  0  0  0  0  0  0  0  0  0  0
   -6.9769    2.6450   -2.9700 F   0  0  0  0  0  0  0  0  0  0  0  0
   -4.7739    2.6559   -1.4536 F   0  0  0  0  0  0  0  0  0  0  0  0
   -3.2411    0.3993   -0.9212 C   0  0  0  0  0  0  0  0  0  0  0  0
   -3.1129    1.0036    0.3101 C   0  0  0  0  0  0  0  0  0  0  0  0
   -4.2056    1.4495    0.9544 F   0  0  0  0  0  0  0  0  0  0  0  0
   -1.8752    1.1459    0.9486 C   0  0  0  0  0  0  0  0  0  0  0  0
   -1.8338    1.8817    2.0746 F   0  0  0  0  0  0  0  0  0  0  0  0
   -0.7095    0.6104    0.4205 C   0  0  0  0  0  0  0  0  0  0  0  0
   -0.8003    0.0936   -0.9047 C   0  0  0  0  0  0  0  0  0  0  0  0
    0.3257   -0.2373   -1.5466 N   0  0  0  0  0  0  0  0  0  0  0  0
    0.2745   -0.6521   -2.7906 C   0  0  0  0  0  0  0  0  0  0  0  0
    1.5958   -0.8764   -3.4557 C   0  0  0  0  0  0  0  0  0  0  0  0
    2.2658    0.4725   -3.7281 C   0  0  0  0  0  0  0  0  0  0  0  0
   -0.9856   -0.8066   -3.4378 C   0  0  0  0  0  0  0  0  0  0  0  0
   -2.0971   -0.4899   -2.8194 N   0  0  0  0  0  0  0  0  0  0  0  0
   -2.0491   -0.0214   -1.5632 C   0  0  0  0  0  0  0  0  0  0  0  0
   -1.1569   -1.3190   -4.8362 C   0  0  0  0  0  0  0  0  0  0  0  0
   -0.9047   -0.2208   -5.8707 C   0  0  0  0  0  0  0  0  0  0  0  0
    0.5402    0.5872    1.1209 C   0  0  0  0  0  0  0  0  0  0  0  0
    0.7433    0.5052    2.4967 C   0  0  0  0  0  0  0  0  0  0  0  0
   -0.2195    0.2575    3.4523 N   0  0  0  0  0  0  0  0  0  0  0  0
   -0.0032    0.7651    4.7455 C   0  0  0  0  0  0  0  0  0  0  0  0
    0.3890    2.0923    4.9122 C   0  0  0  0  0  0  0  0  0  0  0  0
    0.7413    2.5582    6.1599 C   0  0  0  0  0  0  0  0  0  0  0  0
    0.7084    1.7044    7.2566 C   0  0  0  0  0  0  0  0  0  0  0  0
    1.2697    2.3291    8.8100 S   0  0  0  0  0  0  0  0  0  0  0  0
    1.9932    0.8366    9.5581 C   0  0  0  0  0  0  0  0  0  0  0  0
    0.2411    0.4052    7.1063 C   0  0  0  0  0  0  0  0  0  0  0  0
   -0.1129   -0.0628    5.8575 C   0  0  0  0  0  0  0  0  0  0  0  0
   -1.3122   -0.5677    3.1727 C   0  0  0  0  0  0  0  0  0  0  0  0
   -1.1778   -1.6533    2.3066 C   0  0  0  0  0  0  0  0  0  0  0  0
   -2.2859   -2.3631    1.9048 C   0  0  0  0  0  0  0  0  0  0  0  0
   -3.5522   -2.0030    2.3564 C   0  0  0  0  0  0  0  0  0  0  0  0
   -4.9464   -2.8631    1.6860 S   0  0  0  0  0  0  0  0  0  0  0  0
   -6.2415   -1.5895    1.7381 C   0  0  0  0  0  0  0  0  0  0  0  0
   -3.6786   -0.9916    3.2999 C   0  0  0  0  0  0  0  0  0  0  0  0
   -2.5667   -0.2843    3.7098 C   0  0  0  0  0  0  0  0  0  0  0  0
    2.1202    0.6002    2.8102 C   0  0  0  0  0  0  0  0  0  0  0  0
    2.9786    0.6820    4.3023 S   0  0  0  0  0  0  0  0  0  0  0  0
    4.5014    0.8034    3.4261 C   0  0  0  0  0  0  0  0  0  0  0  0
    4.3081    0.8140    2.0231 C   0  0  0  0  0  0  0  0  0  0  0  0
    5.3042    0.9860    1.0880 N   0  0  0  0  0  0  0  0  0  0  0  0
    6.3835    1.8540    1.3339 C   0  0  0  0  0  0  0  0  0  0  0  0
    6.1743    3.0572    2.0122 C   0  0  0  0  0  0  0  0  0  0  0  0
    7.2435    3.8488    2.3607 C   0  0  0  0  0  0  0  0  0  0  0  0
    8.5431    3.4727    2.0188 C   0  0  0  0  0  0  0  0  0  0  0  0
    9.8483    4.5134    2.5885 S   0  0  0  0  0  0  0  0  0  0  0  0
   11.3250    3.4729    2.4158 C   0  0  0  0  0  0  0  0  0  0  0  0
    8.7438    2.3247    1.2650 C   0  0  0  0  0  0  0  0  0  0  0  0
    7.6731    1.5163    0.9339 C   0  0  0  0  0  0  0  0  0  0  0  0
    5.2255    0.3050   -0.1331 C   0  0  0  0  0  0  0  0  0  0  0  0
    5.6758    0.9008   -1.3080 C   0  0  0  0  0  0  0  0  0  0  0  0
    5.6402    0.2143   -2.5050 C   0  0  0  0  0  0  0  0  0  0  0  0
    5.1460   -1.0824   -2.5490 C   0  0  0  0  0  0  0  0  0  0  0  0
    5.0450   -2.0509   -4.0231 S   0  0  0  0  0  0  0  0  0  0  0  0
    6.0706   -1.1373   -5.2110 C   0  0  0  0  0  0  0  0  0  0  0  0
    4.6787   -1.6767   -1.3789 C   0  0  0  0  0  0  0  0  0  0  0  0
    4.7211   -0.9954   -0.1840 C   0  0  0  0  0  0  0  0  0  0  0  0
    2.9453    0.6891    1.6961 C   0  0  0  0  0  0  0  0  0  0  0  0
    2.0391    0.6010    0.2117 S   0  0  0  0  0  0  0  0  0  0  0  0
    5.7510    0.8712    4.0493 C   0  0  0  0  0  0  0  0  0  0  0  0
    6.0746    1.1141    5.3621 C   0  0  0  0  0  0  0  0  0  0  0  0
    5.1466    1.3690    6.4702 C   0  0  0  0  0  0  0  0  0  0  0  0
    3.9527    1.1251    6.5181 O   0  0  0  0  0  0  0  0  0  0  0  0
    5.9546    1.9517    7.5555 C   0  0  0  0  0  0  0  0  0  0  0  0
    5.4950    2.4373    8.7773 C   0  0  0  0  0  0  0  0  0  0  0  0
    6.4896    2.9195    9.5944 C   0  0  0  0  0  0  0  0  0  0  0  0
    7.8410    2.9194    9.2247 C   0  0  0  0  0  0  0  0  0  0  0  0
    8.3067    2.4465    8.0202 C   0  0  0  0  0  0  0  0  0  0  0  0
    7.3111    1.9539    7.1723 C   0  0  0  0  0  0  0  0  0  0  0  0
    7.4154    1.3727    5.8358 C   0  0  0  0  0  0  0  0  0  0  0  0
    8.5878    1.1150    5.1683 C   0  0  0  0  0  0  0  0  0  0  0  0
    8.6948    0.4005    3.9606 C   0  0  0  0  0  0  0  0  0  0  0  0
    8.8883   -0.2005    2.9994 N   0  0  0  0  0  0  0  0  0  0  0  0
    9.8692    1.4978    5.6097 C   0  0  0  0  0  0  0  0  0  0  0  0
   10.9478    1.7974    5.8692 N   0  0  0  0  0  0  0  0  0  0  0  0
    8.2781    3.5589   10.5193 C   0  0  0  0  0  0  0  0  0  0  0  0
    8.6166    5.0637   10.4646 C   0  0  0  0  0  0  0  0  0  0  0  0
    8.5356    5.5050   11.9082 C   0  0  0  0  0  0  0  0  0  0  0  0
    7.2559    5.5042   12.2592 C   0  0  0  0  0  0  0  0  0  0  0  0
    6.4502    5.0628   11.0587 C   0  0  0  0  0  0  0  0  0  0  0  0
    7.3059    5.6585    9.9333 C   0  0  0  0  0  0  0  0  0  0  0  0
    6.7709    3.5584   10.9317 C   0  0  0  0  0  0  0  0  0  0  0  0
   -8.8307    0.8990   -3.8663 H   0  0  0  0  0  0  0  0  0  0  0  0
   -5.4615   -2.4545   -8.0080 H   0  0  0  0  0  0  0  0  0  0  0  0
  -10.4390   -1.7243   -8.5925 H   0  0  0  0  0  0  0  0  0  0  0  0
   -9.3485   -4.2119  -10.6737 H   0  0  0  0  0  0  0  0  0  0  0  0
   -9.7114   -1.9932  -12.1012 H   0  0  0  0  0  0  0  0  0  0  0  0
   -9.0133   -3.9276  -13.7363 H   0  0  0  0  0  0  0  0  0  0  0  0
   -6.4024   -4.3374  -13.4664 H   0  0  0  0  0  0  0  0  0  0  0  0
   -5.4922   -2.6540  -11.6663 H   0  0  0  0  0  0  0  0  0  0  0  0
   -7.3163   -1.0726  -12.7514 H   0  0  0  0  0  0  0  0  0  0  0  0
   -7.4849   -0.9857  -10.9833 H   0  0  0  0  0  0  0  0  0  0  0  0
   -6.7873   -4.6130  -10.4081 H   0  0  0  0  0  0  0  0  0  0  0  0
   -6.4650   -4.0805   -3.5582 H   0  0  0  0  0  0  0  0  0  0  0  0
   -3.1649   -5.4502   -0.9511 H   0  0  0  0  0  0  0  0  0  0  0  0
   -3.4079   -3.7568   -0.4233 H   0  0  0  0  0  0  0  0  0  0  0  0
   -1.0798   -4.0874   -1.2720 H   0  0  0  0  0  0  0  0  0  0  0  0
   -1.9868   -2.9698   -2.3006 H   0  0  0  0  0  0  0  0  0  0  0  0
   -1.7224   -4.6388   -2.8262 H   0  0  0  0  0  0  0  0  0  0  0  0
    2.2342   -1.4454   -2.7786 H   0  0  0  0  0  0  0  0  0  0  0  0
    1.4807   -1.4327   -4.3839 H   0  0  0  0  0  0  0  0  0  0  0  0
    1.6259    1.1101   -4.3346 H   0  0  0  0  0  0  0  0  0  0  0  0
    2.4689    0.9779   -2.7878 H   0  0  0  0  0  0  0  0  0  0  0  0
    3.2031    0.3210   -4.2548 H   0  0  0  0  0  0  0  0  0  0  0  0
   -2.1902   -1.6562   -4.9322 H   0  0  0  0  0  0  0  0  0  0  0  0
   -0.4885   -2.1633   -5.0149 H   0  0  0  0  0  0  0  0  0  0  0  0
    0.1208    0.1362   -5.8255 H   0  0  0  0  0  0  0  0  0  0  0  0
   -1.5756    0.6156   -5.6920 H   0  0  0  0  0  0  0  0  0  0  0  0
   -1.0929   -0.6055   -6.8698 H   0  0  0  0  0  0  0  0  0  0  0  0
    0.4344    2.7425    4.0515 H   0  0  0  0  0  0  0  0  0  0  0  0
    1.0685    3.5776    6.2926 H   0  0  0  0  0  0  0  0  0  0  0  0
    2.6048    0.3418    8.8093 H   0  0  0  0  0  0  0  0  0  0  0  0
    1.2145    0.1782    9.9319 H   0  0  0  0  0  0  0  0  0  0  0  0
    2.6061    1.1765   10.3875 H   0  0  0  0  0  0  0  0  0  0  0  0
    0.1691   -0.2562    7.9550 H   0  0  0  0  0  0  0  0  0  0  0  0
   -0.4489   -1.0820    5.7338 H   0  0  0  0  0  0  0  0  0  0  0  0
   -0.2025   -1.9214    1.9288 H   0  0  0  0  0  0  0  0  0  0  0  0
   -2.1766   -3.1933    1.2260 H   0  0  0  0  0  0  0  0  0  0  0  0
   -6.6725   -1.5267    2.7331 H   0  0  0  0  0  0  0  0  0  0  0  0
   -7.0012   -1.9049    1.0293 H   0  0  0  0  0  0  0  0  0  0  0  0
   -5.8198   -0.6368    1.4340 H   0  0  0  0  0  0  0  0  0  0  0  0
   -4.6447   -0.7309    3.7014 H   0  0  0  0  0  0  0  0  0  0  0  0
   -2.6706    0.5288    4.4121 H   0  0  0  0  0  0  0  0  0  0  0  0
    5.1719    3.3469    2.2896 H   0  0  0  0  0  0  0  0  0  0  0  0
    7.0897    4.7659    2.9082 H   0  0  0  0  0  0  0  0  0  0  0  0
   12.1138    3.9955    2.9476 H   0  0  0  0  0  0  0  0  0  0  0  0
   11.1470    2.5072    2.8795 H   0  0  0  0  0  0  0  0  0  0  0  0
   11.5933    3.3678    1.3685 H   0  0  0  0  0  0  0  0  0  0  0  0
    9.7324    2.0270    0.9574 H   0  0  0  0  0  0  0  0  0  0  0  0
    7.8446    0.5996    0.3919 H   0  0  0  0  0  0  0  0  0  0  0  0
    6.0559    1.9110   -1.2827 H   0  0  0  0  0  0  0  0  0  0  0  0
    5.9950    0.7066   -3.3961 H   0  0  0  0  0  0  0  0  0  0  0  0
    7.0522   -0.9576   -4.7833 H   0  0  0  0  0  0  0  0  0  0  0  0
    5.5880   -0.2061   -5.4946 H   0  0  0  0  0  0  0  0  0  0  0  0
    6.1579   -1.7822   -6.0799 H   0  0  0  0  0  0  0  0  0  0  0  0
    4.3019   -2.6875   -1.4163 H   0  0  0  0  0  0  0  0  0  0  0  0
    4.3866   -1.4755    0.7228 H   0  0  0  0  0  0  0  0  0  0  0  0
    6.5892    0.7807    3.3710 H   0  0  0  0  0  0  0  0  0  0  0  0
    4.4440    2.4294    9.0189 H   0  0  0  0  0  0  0  0  0  0  0  0
    9.3491    2.4556    7.7477 H   0  0  0  0  0  0  0  0  0  0  0  0
    8.9829    2.9855   11.1185 H   0  0  0  0  0  0  0  0  0  0  0  0
    9.5305    5.3053    9.9289 H   0  0  0  0  0  0  0  0  0  0  0  0
    9.3931    5.7116   12.5213 H   0  0  0  0  0  0  0  0  0  0  0  0
    6.8311    5.7102   13.2241 H   0  0  0  0  0  0  0  0  0  0  0  0
    5.3906    5.3035   11.0641 H   0  0  0  0  0  0  0  0  0  0  0  0
    7.0330    5.3135    8.9379 H   0  0  0  0  0  0  0  0  0  0  0  0
    7.3108    6.7470    9.9526 H   0  0  0  0  0  0  0  0  0  0  0  0
    6.4711    2.9838   11.8063 H   0  0  0  0  0  0  0  0  0  0  0  0
  1  2  2  0  0  0  0
  2  3  1  0  0  0  0
  3  4  2  0  0  0  0
  3  5  1  0  0  0  0
  5  6  2  0  0  0  0
  6  7  1  0  0  0  0
  7  8  2  0  0  0  0
  8  9  1  0  0  0  0
  9 10  2  0  0  0  0
 10 11  1  0  0  0  0
 11 12  2  0  0  0  0
 12 13  1  0  0  0  0
 13 14  3  0  0  0  0
 12 15  1  0  0  0  0
 15 16  3  0  0  0  0
  8 17  1  0  0  0  0
 17 18  1  0  0  0  0
 18 19  1  0  0  0  0
 19 20  2  0  0  0  0
 20 21  1  0  0  0  0
 21 22  1  0  0  0  0
 21 23  1  0  0  0  0
  1 24  1  0  0  0  0
 24 25  1  0  0  0  0
 25 26  2  0  0  0  0
 26 27  1  0  0  0  0
 27 28  2  0  0  0  0
 28 29  1  0  0  0  0
 29 30  1  0  0  0  0
 30 31  1  0  0  0  0
 28 32  1  0  0  0  0
 32 33  2  0  0  0  0
 33 34  1  0  0  0  0
 34 35  2  0  0  0  0
 35 36  1  0  0  0  0
 36 37  1  0  0  0  0
 35 38  1  0  0  0  0
 34 39  1  0  0  0  0
 39 40  2  0  0  0  0
 40 41  1  0  0  0  0
 40 42  1  0  0  0  0
 42 43  1  0  0  0  0
 42 44  2  0  0  0  0
 44 45  1  0  0  0  0
 45 46  2  0  0  0  0
 46 47  1  0  0  0  0
 47 48  1  0  0  0  0
 48 49  1  0  0  0  0
 47 50  2  0  0  0  0
 50 51  1  0  0  0  0
 51 52  2  0  0  0  0
 50 53  1  0  0  0  0
 53 54  1  0  0  0  0
 44 55  1  0  0  0  0
 55 56  2  0  0  0  0
 56 57  1  0  0  0  0
 57 58  1  0  0  0  0
 58 59  2  0  0  0  0
 59 60  1  0  0  0  0
 60 61  2  0  0  0  0
 61 62  1  0  0  0  0
 62 63  1  0  0  0  0
 61 64  1  0  0  0  0
 64 65  2  0  0  0  0
 57 66  1  0  0  0  0
 66 67  2  0  0  0  0
 67 68  1  0  0  0  0
 68 69  2  0  0  0  0
 69 70  1  0  0  0  0
 70 71  1  0  0  0  0
 69 72  1  0  0  0  0
 72 73  2  0  0  0  0
 56 74  1  0  0  0  0
 74 75  1  0  0  0  0
 75 76  1  0  0  0  0
 76 77  2  0  0  0  0
 77 78  1  0  0  0  0
 78 79  1  0  0  0  0
 79 80  2  0  0  0  0
 80 81  1  0  0  0  0
 81 82  2  0  0  0  0
 82 83  1  0  0  0  0
 83 84  1  0  0  0  0
 82 85  1  0  0  0  0
 85 86  2  0  0  0  0
 78 87  1  0  0  0  0
 87 88  2  0  0  0  0
 88 89  1  0  0  0  0
 89 90  2  0  0  0  0
 90 91  1  0  0  0  0
 91 92  1  0  0  0  0
 90 93  1  0  0  0  0
 93 94  2  0  0  0  0
 77 95  1  0  0  0  0
 95 96  1  0  0  0  0
 76 97  1  0  0  0  0
 97 98  2  0  0  0  0
 98 99  1  0  0  0  0
 99100  2  0  0  0  0
 99101  1  0  0  0  0
101102  2  0  0  0  0
102103  1  0  0  0  0
103104  2  0  0  0  0
104105  1  0  0  0  0
105106  2  0  0  0  0
106107  1  0  0  0  0
107108  2  0  0  0  0
108109  1  0  0  0  0
109110  3  0  0  0  0
108111  1  0  0  0  0
111112  3  0  0  0  0
104113  1  0  0  0  0
113114  1  0  0  0  0
114115  1  0  0  0  0
115116  2  0  0  0  0
116117  1  0  0  0  0
117118  1  0  0  0  0
117119  1  0  0  0  0
 11  2  1  0  0  0  0
 23 17  1  0  0  0  0
 36 24  2  0  0  0  0
 52 39  1  0  0  0  0
 96 55  1  0  0  0  0
107 98  1  0  0  0  0
119113  1  0  0  0  0
 10  5  1  0  0  0  0
 22 18  1  0  0  0  0
 33 25  1  0  0  0  0
 52 45  1  0  0  0  0
 65 58  1  0  0  0  0
 73 66  1  0  0  0  0
 95 74  2  0  0  0  0
106101  1  0  0  0  0
118114  1  0  0  0  0
 23  7  1  0  0  0  0
 86 79  1  0  0  0  0
 94 87  1  0  0  0  0
119103  1  0  0  0  0
  1120  1  0  0  0  0
  6121  1  0  0  0  0
  9122  1  0  0  0  0
 17123  1  0  0  0  0
 18124  1  0  0  0  0
 19125  1  0  0  0  0
 20126  1  0  0  0  0
 21127  1  0  0  0  0
 22128  1  0  0  0  0
 22129  1  0  0  0  0
 23130  1  0  0  0  0
 27131  1  0  0  0  0
 30132  1  0  0  0  0
 30133  1  0  0  0  0
 31134  1  0  0  0  0
 31135  1  0  0  0  0
 31136  1  0  0  0  0
 48137  1  0  0  0  0
 48138  1  0  0  0  0
 49139  1  0  0  0  0
 49140  1  0  0  0  0
 49141  1  0  0  0  0
 53142  1  0  0  0  0
 53143  1  0  0  0  0
 54144  1  0  0  0  0
 54145  1  0  0  0  0
 54146  1  0  0  0  0
 59147  1  0  0  0  0
 60148  1  0  0  0  0
 63149  1  0  0  0  0
 63150  1  0  0  0  0
 63151  1  0  0  0  0
 64152  1  0  0  0  0
 65153  1  0  0  0  0
 67154  1  0  0  0  0
 68155  1  0  0  0  0
 71156  1  0  0  0  0
 71157  1  0  0  0  0
 71158  1  0  0  0  0
 72159  1  0  0  0  0
 73160  1  0  0  0  0
 80161  1  0  0  0  0
 81162  1  0  0  0  0
 84163  1  0  0  0  0
 84164  1  0  0  0  0
 84165  1  0  0  0  0
 85166  1  0  0  0  0
 86167  1  0  0  0  0
 88168  1  0  0  0  0
 89169  1  0  0  0  0
 92170  1  0  0  0  0
 92171  1  0  0  0  0
 92172  1  0  0  0  0
 93173  1  0  0  0  0
 94174  1  0  0  0  0
 97175  1  0  0  0  0
102176  1  0  0  0  0
105177  1  0  0  0  0
113178  1  0  0  0  0
114179  1  0  0  0  0
115180  1  0  0  0  0
116181  1  0  0  0  0
117182  1  0  0  0  0
118183  1  0  0  0  0
118184  1  0  0  0  0
119185  1  0  0  0  0
M  END
