
  xtb     02092215223D
 energy: -322.962183970542 gnorm: 0.000372761046 xtb: 6.4.1 (unknown)
194215  0     0  0            999 V2000
   -0.6197   -6.2766    4.8181 C   0  0  0  0  0  0  0  0  0  0  0  0
   -1.3163   -7.3639    4.3396 C   0  0  0  0  0  0  0  0  0  0  0  0
   -2.2948   -7.3749    3.2532 C   0  0  0  0  0  0  0  0  0  0  0  0
   -2.8115   -6.4158    2.6990 O   0  0  0  0  0  0  0  0  0  0  0  0
   -2.5725   -8.7896    2.9555 C   0  0  0  0  0  0  0  0  0  0  0  0
   -3.4214   -9.2892    1.9705 C   0  0  0  0  0  0  0  0  0  0  0  0
   -3.4604  -10.6618    1.9125 C   0  0  0  0  0  0  0  0  0  0  0  0
   -2.7142  -11.4761    2.7738 C   0  0  0  0  0  0  0  0  0  0  0  0
   -1.8819  -10.9948    3.7576 C   0  0  0  0  0  0  0  0  0  0  0  0
   -1.8237   -9.6006    3.8316 C   0  0  0  0  0  0  0  0  0  0  0  0
   -1.0877   -8.7303    4.7497 C   0  0  0  0  0  0  0  0  0  0  0  0
   -0.3372   -9.1580    5.8192 C   0  0  0  0  0  0  0  0  0  0  0  0
   -0.0173  -10.5050    6.0781 C   0  0  0  0  0  0  0  0  0  0  0  0
    0.3174  -11.5771    6.3198 N   0  0  0  0  0  0  0  0  0  0  0  0
    0.1793   -8.3252    6.8298 C   0  0  0  0  0  0  0  0  0  0  0  0
    0.5810   -7.7190    7.7206 N   0  0  0  0  0  0  0  0  0  0  0  0
   -3.2227  -12.7482    2.1418 C   0  0  0  0  0  0  0  0  0  0  0  0
   -2.2588  -13.4703    1.1766 C   0  0  0  0  0  0  0  0  0  0  0  0
   -3.1645  -14.3689    0.3658 C   0  0  0  0  0  0  0  0  0  0  0  0
   -3.8734  -13.5981   -0.4490 C   0  0  0  0  0  0  0  0  0  0  0  0
   -3.4586  -12.1655   -0.2028 C   0  0  0  0  0  0  0  0  0  0  0  0
   -1.9779  -12.3750    0.1396 C   0  0  0  0  0  0  0  0  0  0  0  0
   -4.0566  -11.8396    1.1823 C   0  0  0  0  0  0  0  0  0  0  0  0
   -0.6179   -4.9455    4.4039 C   0  0  0  0  0  0  0  0  0  0  0  0
    0.2469   -3.9541    4.9333 C   0  0  0  0  0  0  0  0  0  0  0  0
    1.2715   -4.1600    5.8208 N   0  0  0  0  0  0  0  0  0  0  0  0
    2.0825   -5.3073    5.8083 C   0  0  0  0  0  0  0  0  0  0  0  0
    2.3911   -5.9543    4.6131 C   0  0  0  0  0  0  0  0  0  0  0  0
    3.1490   -7.1073    4.6151 C   0  0  0  0  0  0  0  0  0  0  0  0
    3.6355   -7.6201    5.8126 C   0  0  0  0  0  0  0  0  0  0  0  0
    4.5911   -9.0973    5.9292 S   0  0  0  0  0  0  0  0  0  0  0  0
    4.2425   -9.9498    4.3636 C   0  0  0  0  0  0  0  0  0  0  0  0
    3.3798   -6.9411    7.0009 C   0  0  0  0  0  0  0  0  0  0  0  0
    2.6032   -5.8038    7.0035 C   0  0  0  0  0  0  0  0  0  0  0  0
    1.5955   -3.1186    6.7119 C   0  0  0  0  0  0  0  0  0  0  0  0
    2.9224   -2.7440    6.9202 C   0  0  0  0  0  0  0  0  0  0  0  0
    3.2204   -1.7149    7.7832 C   0  0  0  0  0  0  0  0  0  0  0  0
    2.2044   -1.0350    8.4553 C   0  0  0  0  0  0  0  0  0  0  0  0
    2.7113    0.2712    9.5230 S   0  0  0  0  0  0  0  0  0  0  0  0
    1.1510    1.0227   10.0679 C   0  0  0  0  0  0  0  0  0  0  0  0
    0.8833   -1.4166    8.2614 C   0  0  0  0  0  0  0  0  0  0  0  0
    0.5848   -2.4519    7.3979 C   0  0  0  0  0  0  0  0  0  0  0  0
   -0.0675   -2.6854    4.4097 C   0  0  0  0  0  0  0  0  0  0  0  0
    0.6079   -1.0990    4.6170 S   0  0  0  0  0  0  0  0  0  0  0  0
   -0.5232   -0.4584    3.4406 C   0  0  0  0  0  0  0  0  0  0  0  0
   -1.3304   -1.4326    2.8757 C   0  0  0  0  0  0  0  0  0  0  0  0
   -2.2182   -1.2053    1.8377 N   0  0  0  0  0  0  0  0  0  0  0  0
   -3.3178   -2.0611    1.6801 C   0  0  0  0  0  0  0  0  0  0  0  0
   -4.0319   -2.4957    2.7949 C   0  0  0  0  0  0  0  0  0  0  0  0
   -5.0398   -3.4284    2.6589 C   0  0  0  0  0  0  0  0  0  0  0  0
   -5.3533   -3.9311    1.4047 C   0  0  0  0  0  0  0  0  0  0  0  0
   -6.5648   -5.2039    1.1924 S   0  0  0  0  0  0  0  0  0  0  0  0
   -6.1550   -6.2834    2.5996 C   0  0  0  0  0  0  0  0  0  0  0  0
   -4.7017   -3.4380    0.2807 C   0  0  0  0  0  0  0  0  0  0  0  0
   -3.6899   -2.5126    0.4148 C   0  0  0  0  0  0  0  0  0  0  0  0
   -1.9010   -0.2889    0.8163 C   0  0  0  0  0  0  0  0  0  0  0  0
   -2.8820    0.5618    0.3159 C   0  0  0  0  0  0  0  0  0  0  0  0
   -2.5798    1.4970   -0.6547 C   0  0  0  0  0  0  0  0  0  0  0  0
   -1.2863    1.5918   -1.1500 C   0  0  0  0  0  0  0  0  0  0  0  0
   -0.7671    2.7629   -2.3671 S   0  0  0  0  0  0  0  0  0  0  0  0
   -2.2301    3.7970   -2.6441 C   0  0  0  0  0  0  0  0  0  0  0  0
   -0.3103    0.7152   -0.6817 C   0  0  0  0  0  0  0  0  0  0  0  0
   -0.6126   -0.2148    0.2887 C   0  0  0  0  0  0  0  0  0  0  0  0
   -1.0823   -2.6993    3.4628 C   0  0  0  0  0  0  0  0  0  0  0  0
   -1.7288   -4.2776    3.2024 S   0  0  0  0  0  0  0  0  0  0  0  0
   -0.5450    0.9286    3.0734 C   0  0  0  0  0  0  0  0  0  0  0  0
   -1.6447    1.7630    3.0520 C   0  0  0  0  0  0  0  0  0  0  0  0
   -2.9604    1.4707    3.6971 C   0  0  0  0  0  0  0  0  0  0  0  0
   -2.8173    1.2774    5.2064 C   0  0  0  0  0  0  0  0  0  0  0  0
   -1.4556    2.9289    2.4140 N   0  0  0  0  0  0  0  0  0  0  0  0
   -0.2587    3.0499    1.9286 C   0  0  0  0  0  0  0  0  0  0  0  0
    0.8100    1.7129    2.3149 S   0  0  0  0  0  0  0  0  0  0  0  0
    0.1183    4.0557    0.9984 C   0  0  0  0  0  0  0  0  0  0  0  0
   -0.6822    5.0651    0.5405 C   0  0  0  0  0  0  0  0  0  0  0  0
   -0.1432    5.7496   -0.5724 C   0  0  0  0  0  0  0  0  0  0  0  0
   -0.7876    6.7361   -1.3569 C   0  0  0  0  0  0  0  0  0  0  0  0
   -2.0466    7.3315   -0.9677 C   0  0  0  0  0  0  0  0  0  0  0  0
   -3.0831    7.7020   -1.7795 C   0  0  0  0  0  0  0  0  0  0  0  0
   -4.1650    8.3445   -1.1485 C   0  0  0  0  0  0  0  0  0  0  0  0
   -4.0214    8.5395    0.1960 C   0  0  0  0  0  0  0  0  0  0  0  0
   -5.1854    9.4012    1.1752 S   0  0  0  0  0  0  0  0  0  0  0  0
   -4.6673    8.9423    2.8663 C   0  0  0  0  0  0  0  0  0  0  0  0
   -5.0384    7.5151    3.2143 C   0  0  0  0  0  0  0  0  0  0  0  0
   -2.3766    7.8625    0.8134 Se  0  0  0  0  0  2  0  0  0  0  0  0
   -0.1394    7.0990   -2.5313 C   0  0  0  0  0  0  0  0  0  0  0  0
    1.1177    6.5649   -2.9155 C   0  0  0  0  0  0  0  0  0  0  0  0
    1.7630    5.5721   -2.1382 C   0  0  0  0  0  0  0  0  0  0  0  0
    2.9298    4.8798   -2.6116 C   0  0  0  0  0  0  0  0  0  0  0  0
    3.9117    4.2801   -1.8637 C   0  0  0  0  0  0  0  0  0  0  0  0
    4.8671    3.5434   -2.5765 C   0  0  0  0  0  0  0  0  0  0  0  0
    4.6624    3.4939   -3.9298 C   0  0  0  0  0  0  0  0  0  0  0  0
    5.6849    2.5884   -5.0183 S   0  0  0  0  0  0  0  0  0  0  0  0
    5.0877    3.1563   -6.6499 C   0  0  0  0  0  0  0  0  0  0  0  0
    5.6169    4.5325   -7.0008 C   0  0  0  0  0  0  0  0  0  0  0  0
    3.1544    4.4799   -4.4464 Se  0  0  0  0  0  2  0  0  0  0  0  0
    1.1087    5.2119   -0.9620 C   0  0  0  0  0  0  0  0  0  0  0  0
    1.6117    3.9365    0.1121 S   0  0  0  0  0  0  0  0  0  0  0  0
    1.5816    7.1201   -4.1182 C   0  0  0  0  0  0  0  0  0  0  0  0
    0.6968    7.9824   -4.7190 C   0  0  0  0  0  0  0  0  0  0  0  0
   -0.7217    8.2416   -3.7135 S   0  0  0  0  0  0  0  0  0  0  0  0
    0.8145    8.6167   -5.9723 C   0  0  0  0  0  0  0  0  0  0  0  0
    1.5294    8.1375   -7.0391 C   0  0  0  0  0  0  0  0  0  0  0  0
    1.9710    6.7386   -7.2374 C   0  0  0  0  0  0  0  0  0  0  0  0
    1.9662    5.8088   -6.4475 O   0  0  0  0  0  0  0  0  0  0  0  0
    2.3486    6.6354   -8.6566 C   0  0  0  0  0  0  0  0  0  0  0  0
    2.7739    5.4846   -9.3172 C   0  0  0  0  0  0  0  0  0  0  0  0
    3.0715    5.6795  -10.6440 C   0  0  0  0  0  0  0  0  0  0  0  0
    2.9466    6.9267  -11.2717 C   0  0  0  0  0  0  0  0  0  0  0  0
    2.5207    8.0676  -10.6332 C   0  0  0  0  0  0  0  0  0  0  0  0
    2.2161    7.8914   -9.2807 C   0  0  0  0  0  0  0  0  0  0  0  0
    1.7408    8.8486   -8.2863 C   0  0  0  0  0  0  0  0  0  0  0  0
    1.6021   10.1989   -8.4748 C   0  0  0  0  0  0  0  0  0  0  0  0
    1.2476   11.1217   -7.4673 C   0  0  0  0  0  0  0  0  0  0  0  0
    0.9905   11.9372   -6.7010 N   0  0  0  0  0  0  0  0  0  0  0  0
    1.8343   10.8606   -9.6983 C   0  0  0  0  0  0  0  0  0  0  0  0
    1.9993   11.4581  -10.6647 N   0  0  0  0  0  0  0  0  0  0  0  0
    3.3956    6.3882  -12.6069 C   0  0  0  0  0  0  0  0  0  0  0  0
    2.3112    6.1231  -13.6804 C   0  0  0  0  0  0  0  0  0  0  0  0
    1.0276    5.8506  -12.9361 C   0  0  0  0  0  0  0  0  0  0  0  0
    1.1468    4.6711  -12.3414 C   0  0  0  0  0  0  0  0  0  0  0  0
    2.5135    4.1244  -12.6731 C   0  0  0  0  0  0  0  0  0  0  0  0
    2.6958    4.6923  -14.0897 C   0  0  0  0  0  0  0  0  0  0  0  0
    3.5366    4.9995  -11.9072 C   0  0  0  0  0  0  0  0  0  0  0  0
    0.0717   -6.4855    5.6237 H   0  0  0  0  0  0  0  0  0  0  0  0
   -3.9791   -8.6255    1.3281 H   0  0  0  0  0  0  0  0  0  0  0  0
   -1.3209  -11.6365    4.4163 H   0  0  0  0  0  0  0  0  0  0  0  0
   -3.7514  -13.4303    2.8048 H   0  0  0  0  0  0  0  0  0  0  0  0
   -1.4035  -13.9399    1.6547 H   0  0  0  0  0  0  0  0  0  0  0  0
   -3.2339  -15.4320    0.5033 H   0  0  0  0  0  0  0  0  0  0  0  0
   -4.6534  -13.8885   -1.1281 H   0  0  0  0  0  0  0  0  0  0  0  0
   -3.6961  -11.4463   -0.9821 H   0  0  0  0  0  0  0  0  0  0  0  0
   -1.4080  -12.7487   -0.7095 H   0  0  0  0  0  0  0  0  0  0  0  0
   -1.4877  -11.4928    0.5472 H   0  0  0  0  0  0  0  0  0  0  0  0
   -5.1421  -11.9154    1.2060 H   0  0  0  0  0  0  0  0  0  0  0  0
    2.0221   -5.5591    3.6780 H   0  0  0  0  0  0  0  0  0  0  0  0
    3.3645   -7.5911    3.6758 H   0  0  0  0  0  0  0  0  0  0  0  0
    4.7381   -9.4487    3.5369 H   0  0  0  0  0  0  0  0  0  0  0  0
    4.6461  -10.9506    4.4799 H   0  0  0  0  0  0  0  0  0  0  0  0
    3.1687  -10.0015    4.2096 H   0  0  0  0  0  0  0  0  0  0  0  0
    3.7676   -7.3353    7.9264 H   0  0  0  0  0  0  0  0  0  0  0  0
    2.3758   -5.3088    7.9341 H   0  0  0  0  0  0  0  0  0  0  0  0
    3.7120   -3.2585    6.3939 H   0  0  0  0  0  0  0  0  0  0  0  0
    4.2447   -1.4152    7.9416 H   0  0  0  0  0  0  0  0  0  0  0  0
    1.4355    1.8825   10.6665 H   0  0  0  0  0  0  0  0  0  0  0  0
    0.5891    0.3213   10.6778 H   0  0  0  0  0  0  0  0  0  0  0  0
    0.5776    1.3471    9.2046 H   0  0  0  0  0  0  0  0  0  0  0  0
    0.0773   -0.9237    8.7801 H   0  0  0  0  0  0  0  0  0  0  0  0
   -0.4430   -2.7532    7.2568 H   0  0  0  0  0  0  0  0  0  0  0  0
   -3.7849   -2.1093    3.7734 H   0  0  0  0  0  0  0  0  0  0  0  0
   -5.5714   -3.7675    3.5340 H   0  0  0  0  0  0  0  0  0  0  0  0
   -6.6293   -5.9230    3.5080 H   0  0  0  0  0  0  0  0  0  0  0  0
   -6.5392   -7.2686    2.3537 H   0  0  0  0  0  0  0  0  0  0  0  0
   -5.0743   -6.3099    2.7051 H   0  0  0  0  0  0  0  0  0  0  0  0
   -4.9722   -3.8135   -0.6940 H   0  0  0  0  0  0  0  0  0  0  0  0
   -3.1560   -2.1617   -0.4557 H   0  0  0  0  0  0  0  0  0  0  0  0
   -3.8899    0.4943    0.6973 H   0  0  0  0  0  0  0  0  0  0  0  0
   -3.3602    2.1513   -1.0073 H   0  0  0  0  0  0  0  0  0  0  0  0
   -3.0279    3.2057   -3.0840 H   0  0  0  0  0  0  0  0  0  0  0  0
   -1.9120    4.5648   -3.3430 H   0  0  0  0  0  0  0  0  0  0  0  0
   -2.5427    4.2556   -1.7103 H   0  0  0  0  0  0  0  0  0  0  0  0
    0.6904    0.7803   -1.0813 H   0  0  0  0  0  0  0  0  0  0  0  0
    0.1528   -0.8865    0.6490 H   0  0  0  0  0  0  0  0  0  0  0  0
   -3.6227    2.3111    3.4887 H   0  0  0  0  0  0  0  0  0  0  0  0
   -3.3952    0.5710    3.2569 H   0  0  0  0  0  0  0  0  0  0  0  0
   -2.3955    2.1693    5.6641 H   0  0  0  0  0  0  0  0  0  0  0  0
   -3.7900    1.0855    5.6526 H   0  0  0  0  0  0  0  0  0  0  0  0
   -2.1625    0.4364    5.4244 H   0  0  0  0  0  0  0  0  0  0  0  0
   -1.6563    5.2377    0.9644 H   0  0  0  0  0  0  0  0  0  0  0  0
   -3.1010    7.4715   -2.8311 H   0  0  0  0  0  0  0  0  0  0  0  0
   -5.0452    8.6613   -1.6804 H   0  0  0  0  0  0  0  0  0  0  0  0
   -5.1786    9.6541    3.5135 H   0  0  0  0  0  0  0  0  0  0  0  0
   -3.5877    9.1093    2.9320 H   0  0  0  0  0  0  0  0  0  0  0  0
   -4.7402    7.2953    4.2372 H   0  0  0  0  0  0  0  0  0  0  0  0
   -4.5331    6.8132    2.5505 H   0  0  0  0  0  0  0  0  0  0  0  0
   -6.1121    7.3693    3.1214 H   0  0  0  0  0  0  0  0  0  0  0  0
    3.9820    4.4124   -0.7970 H   0  0  0  0  0  0  0  0  0  0  0  0
    5.6952    3.0448   -2.1030 H   0  0  0  0  0  0  0  0  0  0  0  0
    3.9937    3.1411   -6.6174 H   0  0  0  0  0  0  0  0  0  0  0  0
    5.4414    2.4030   -7.3535 H   0  0  0  0  0  0  0  0  0  0  0  0
    6.7040    4.5420   -6.9681 H   0  0  0  0  0  0  0  0  0  0  0  0
    5.2919    4.8140   -8.0006 H   0  0  0  0  0  0  0  0  0  0  0  0
    5.2383    5.2749   -6.2973 H   0  0  0  0  0  0  0  0  0  0  0  0
    2.5727    6.9688   -4.5042 H   0  0  0  0  0  0  0  0  0  0  0  0
    0.2347    9.5222   -6.1026 H   0  0  0  0  0  0  0  0  0  0  0  0
    2.8454    4.5428   -8.7956 H   0  0  0  0  0  0  0  0  0  0  0  0
    2.4207    9.0169  -11.1324 H   0  0  0  0  0  0  0  0  0  0  0  0
    4.2916    6.8417  -13.0259 H   0  0  0  0  0  0  0  0  0  0  0  0
    2.2611    6.8727  -14.4654 H   0  0  0  0  0  0  0  0  0  0  0  0
    0.2121    6.5471  -12.8741 H   0  0  0  0  0  0  0  0  0  0  0  0
    0.4510    4.1852  -11.6827 H   0  0  0  0  0  0  0  0  0  0  0  0
    2.6473    3.0538  -12.5417 H   0  0  0  0  0  0  0  0  0  0  0  0
    2.0025    4.2594  -14.8091 H   0  0  0  0  0  0  0  0  0  0  0  0
    3.7152    4.6069  -14.4637 H   0  0  0  0  0  0  0  0  0  0  0  0
    4.5253    4.5458  -11.8703 H   0  0  0  0  0  0  0  0  0  0  0  0
  1  2  2  0  0  0  0
  2  3  1  0  0  0  0
  3  4  2  0  0  0  0
  3  5  1  0  0  0  0
  5  6  2  0  0  0  0
  6  7  1  0  0  0  0
  7  8  2  0  0  0  0
  8  9  1  0  0  0  0
  9 10  2  0  0  0  0
 10 11  1  0  0  0  0
 11 12  2  0  0  0  0
 12 13  1  0  0  0  0
 13 14  3  0  0  0  0
 12 15  1  0  0  0  0
 15 16  3  0  0  0  0
  8 17  1  0  0  0  0
 17 18  1  0  0  0  0
 18 19  1  0  0  0  0
 19 20  2  0  0  0  0
 20 21  1  0  0  0  0
 21 22  1  0  0  0  0
 21 23  1  0  0  0  0
  1 24  1  0  0  0  0
 24 25  2  0  0  0  0
 25 26  1  0  0  0  0
 26 27  1  0  0  0  0
 27 28  2  0  0  0  0
 28 29  1  0  0  0  0
 29 30  2  0  0  0  0
 30 31  1  0  0  0  0
 31 32  1  0  0  0  0
 30 33  1  0  0  0  0
 33 34  2  0  0  0  0
 26 35  1  0  0  0  0
 35 36  2  0  0  0  0
 36 37  1  0  0  0  0
 37 38  2  0  0  0  0
 38 39  1  0  0  0  0
 39 40  1  0  0  0  0
 38 41  1  0  0  0  0
 41 42  2  0  0  0  0
 25 43  1  0  0  0  0
 43 44  1  0  0  0  0
 44 45  1  0  0  0  0
 45 46  2  0  0  0  0
 46 47  1  0  0  0  0
 47 48  1  0  0  0  0
 48 49  2  0  0  0  0
 49 50  1  0  0  0  0
 50 51  2  0  0  0  0
 51 52  1  0  0  0  0
 52 53  1  0  0  0  0
 51 54  1  0  0  0  0
 54 55  2  0  0  0  0
 47 56  1  0  0  0  0
 56 57  2  0  0  0  0
 57 58  1  0  0  0  0
 58 59  2  0  0  0  0
 59 60  1  0  0  0  0
 60 61  1  0  0  0  0
 59 62  1  0  0  0  0
 62 63  2  0  0  0  0
 46 64  1  0  0  0  0
 64 65  1  0  0  0  0
 45 66  1  0  0  0  0
 66 67  2  0  0  0  0
 67 68  1  0  0  0  0
 68 69  1  0  0  0  0
 67 70  1  0  0  0  0
 70 71  2  0  0  0  0
 71 72  1  0  0  0  0
 71 73  1  0  0  0  0
 73 74  2  0  0  0  0
 74 75  1  0  0  0  0
 75 76  2  0  0  0  0
 76 77  1  0  0  0  0
 77 78  2  0  0  0  0
 78 79  1  0  0  0  0
 79 80  2  0  0  0  0
 80 81  1  0  0  0  0
 81 82  1  0  0  0  0
 82 83  1  0  0  0  0
 80 84  1  0  0  0  0
 76 85  1  0  0  0  0
 85 86  2  0  0  0  0
 86 87  1  0  0  0  0
 87 88  1  0  0  0  0
 88 89  2  0  0  0  0
 89 90  1  0  0  0  0
 90 91  2  0  0  0  0
 91 92  1  0  0  0  0
 92 93  1  0  0  0  0
 93 94  1  0  0  0  0
 91 95  1  0  0  0  0
 87 96  2  0  0  0  0
 96 97  1  0  0  0  0
 86 98  1  0  0  0  0
 98 99  2  0  0  0  0
 99100  1  0  0  0  0
 99101  1  0  0  0  0
101102  2  0  0  0  0
102103  1  0  0  0  0
103104  2  0  0  0  0
103105  1  0  0  0  0
105106  2  0  0  0  0
106107  1  0  0  0  0
107108  2  0  0  0  0
108109  1  0  0  0  0
109110  2  0  0  0  0
110111  1  0  0  0  0
111112  2  0  0  0  0
112113  1  0  0  0  0
113114  3  0  0  0  0
112115  1  0  0  0  0
115116  3  0  0  0  0
108117  1  0  0  0  0
117118  1  0  0  0  0
118119  1  0  0  0  0
119120  2  0  0  0  0
120121  1  0  0  0  0
121122  1  0  0  0  0
121123  1  0  0  0  0
 11  2  1  0  0  0  0
 23 17  1  0  0  0  0
 65 24  1  0  0  0  0
 72 66  1  0  0  0  0
 97 73  1  0  0  0  0
111102  1  0  0  0  0
123117  1  0  0  0  0
 10  5  1  0  0  0  0
 22 18  1  0  0  0  0
 34 27  1  0  0  0  0
 42 35  1  0  0  0  0
 64 43  2  0  0  0  0
 96 75  1  0  0  0  0
110105  1  0  0  0  0
122118  1  0  0  0  0
 23  7  1  0  0  0  0
 55 48  1  0  0  0  0
 63 56  1  0  0  0  0
 84 77  1  0  0  0  0
100 85  1  0  0  0  0
123107  1  0  0  0  0
 95 88  1  0  0  0  0
  1124  1  0  0  0  0
  6125  1  0  0  0  0
  9126  1  0  0  0  0
 17127  1  0  0  0  0
 18128  1  0  0  0  0
 19129  1  0  0  0  0
 20130  1  0  0  0  0
 21131  1  0  0  0  0
 22132  1  0  0  0  0
 22133  1  0  0  0  0
 23134  1  0  0  0  0
 28135  1  0  0  0  0
 29136  1  0  0  0  0
 32137  1  0  0  0  0
 32138  1  0  0  0  0
 32139  1  0  0  0  0
 33140  1  0  0  0  0
 34141  1  0  0  0  0
 36142  1  0  0  0  0
 37143  1  0  0  0  0
 40144  1  0  0  0  0
 40145  1  0  0  0  0
 40146  1  0  0  0  0
 41147  1  0  0  0  0
 42148  1  0  0  0  0
 49149  1  0  0  0  0
 50150  1  0  0  0  0
 53151  1  0  0  0  0
 53152  1  0  0  0  0
 53153  1  0  0  0  0
 54154  1  0  0  0  0
 55155  1  0  0  0  0
 57156  1  0  0  0  0
 58157  1  0  0  0  0
 61158  1  0  0  0  0
 61159  1  0  0  0  0
 61160  1  0  0  0  0
 62161  1  0  0  0  0
 63162  1  0  0  0  0
 68163  1  0  0  0  0
 68164  1  0  0  0  0
 69165  1  0  0  0  0
 69166  1  0  0  0  0
 69167  1  0  0  0  0
 74168  1  0  0  0  0
 78169  1  0  0  0  0
 79170  1  0  0  0  0
 82171  1  0  0  0  0
 82172  1  0  0  0  0
 83173  1  0  0  0  0
 83174  1  0  0  0  0
 83175  1  0  0  0  0
 89176  1  0  0  0  0
 90177  1  0  0  0  0
 93178  1  0  0  0  0
 93179  1  0  0  0  0
 94180  1  0  0  0  0
 94181  1  0  0  0  0
 94182  1  0  0  0  0
 98183  1  0  0  0  0
101184  1  0  0  0  0
106185  1  0  0  0  0
109186  1  0  0  0  0
117187  1  0  0  0  0
118188  1  0  0  0  0
119189  1  0  0  0  0
120190  1  0  0  0  0
121191  1  0  0  0  0
122192  1  0  0  0  0
122193  1  0  0  0  0
123194  1  0  0  0  0
M  END
