215

C          4.09220        1.55900       -5.66190
C          3.63280        1.26460       -6.92640
C          2.55680        0.32850       -7.25700
O          1.84590       -0.29640       -6.48610
C          2.51560        0.24500       -8.72700
C          1.63660       -0.51120       -9.49870
C          1.82400       -0.37240      -10.85330
C          2.81340        0.45530      -11.39840
C          3.68560        1.20790      -10.64670
C          3.51200        1.08310       -9.26550
C          4.20830        1.74460       -8.16060
C          5.19610        2.69050       -8.30030
C          5.76900        3.43370       -7.25110
N          6.26160        4.10830       -6.46060
C          5.75820        3.08170       -9.53170
N          6.27180        3.43740      -10.49570
C          2.42850        0.11690      -12.81760
C          3.33720       -0.88270      -13.56330
C          2.47340       -1.37700      -14.70110
C          1.53560       -2.16100      -14.18470
C          1.74960       -2.20960      -12.68910
C          3.27930       -2.10490      -12.63780
C          1.32400       -0.80580      -12.20940
C          3.55930        1.22670       -4.41650
C          4.15130        1.61130       -3.18500
N          5.40230        2.16830       -3.05570
C          6.47800        1.70720       -3.83480
C          7.44980        2.58860       -4.31150
C          8.48510        2.11900       -5.08780
C          8.57470        0.76660       -5.41200
S          9.93720        0.29090       -6.42640
C          9.60940       -1.45330       -6.81250
C          7.61930       -0.11590       -4.92350
C          6.58520        0.35180       -4.13750
C          5.59590        3.21990       -2.14790
C          4.58240        4.14750       -1.92430
C          4.78000        5.22200       -1.08070
C          6.00950        5.40340       -0.46340
S          6.40490        6.76870        0.57840
C          4.90940        7.79950        0.53370
C          7.02260        4.46830       -0.67080
C          6.81510        3.38140       -1.48830
C          3.28890        1.35120       -2.10760
S          3.38140        1.56570       -0.38110
C          1.80010        0.81450       -0.18970
C          1.22080        0.50470       -1.41480
N         -0.09440        0.08680       -1.55730
C         -0.39970       -0.83730       -2.56170
C          0.45600       -1.91020       -2.79390
C          0.21020       -2.80100       -3.81910
C         -0.90670       -2.63720       -4.62460
S         -1.32590       -3.70570       -5.96530
C         -0.10950       -5.04600       -5.84530
C         -1.77910       -1.57790       -4.38080
C         -1.53100       -0.68560       -3.36220
C         -1.10580        0.77560       -0.87120
C         -2.21370        0.08770       -0.38750
C         -3.20110        0.74130        0.32460
C         -3.10630        2.10890        0.54570
S         -4.27420        3.05650        1.46860
C         -5.63070        1.90130        1.79640
C         -2.01100        2.80740        0.03560
C         -1.01640        2.15010       -0.65300
C          2.08580        0.77290       -2.49410
S          1.98750        0.46000       -4.18530
C          1.18380        0.42130        1.04070
C          0.91490        1.08720        2.22690
N          1.43380        2.31540        2.60260
C          2.81340        2.54240        2.51130
C          3.72250        1.48900        2.58130
C          5.08250        1.72610        2.54000
C          5.55820        3.02410        2.43590
S          7.27660        3.42420        2.43990
C          8.04000        1.90340        1.80120
C          4.65450        4.08210        2.37140
C          3.29930        3.84590        2.39640
C          0.64480        3.14500        3.42090
C          1.17100        3.77250        4.54590
C          0.37400        4.57070        5.34340
C         -0.96860        4.74830        5.03560
S         -2.08420        5.73160        5.98450
C         -1.05740        6.38770        7.33140
C         -1.50080        4.11700        3.91310
C         -0.70390        3.32650        3.11670
C          0.03710        0.32630        3.04200
S         -0.78520        0.63200        4.53100
C         -1.50450       -0.97760        4.49150
C         -1.03330       -1.73740        3.41880
N         -1.26510       -3.08210        3.22410
C         -1.09010       -4.01420        4.25040
C         -0.32040       -3.72830        5.37590
C         -0.16280       -4.66070        6.38220
C         -0.76730       -5.90610        6.28100
S         -0.63570       -7.17750        7.49510
C          0.24190       -6.38150        8.87080
C         -1.52790       -6.20280        5.15010
C         -1.69140       -5.27250        4.15140
C         -1.40310       -3.54220        1.89510
C         -0.52640       -4.49200        1.37340
C         -0.68370       -4.93620        0.08070
C         -1.72290       -4.45070       -0.71320
S         -1.84080       -5.11620       -2.33860
C         -3.36850       -4.40360       -3.00400
C         -2.59590       -3.50430       -0.19370
C         -2.43150       -3.05030        1.10250
C         -0.23430       -0.94510        2.56360
S          0.51210       -1.21590        1.03490
C         -2.58150       -1.25990        5.35780
C         -3.19390       -0.35290        6.20980
C         -4.38840       -0.83600        6.71900
F         -5.14310       -0.12620        7.57110
C         -4.72760       -2.12570        6.33000
S         -3.47030       -2.75370        5.30000
C         -5.85560       -2.90650        6.66680
C         -7.10190       -2.45890        6.98640
C         -8.05310       -3.33600        7.71850
O         -7.93490       -4.52430        7.91830
C         -9.13360       -2.44120        8.17850
C        -10.20760       -2.76770        9.00410
C        -11.04630       -1.71320        9.27590
C        -10.82860       -0.42100        8.77850
C         -9.77590       -0.08340        7.96170
C         -8.92080       -1.14640        7.66010
C         -7.74340       -1.17850        6.79760
C         -7.46800       -0.27150        5.80550
C         -6.49460       -0.45790        4.80790
N         -5.75780       -0.56670        3.93190
C         -8.19970        0.91190        5.58020
N         -8.74930        1.88970        5.33420
C        -12.05670        0.13370        9.45600
C        -13.28730        0.37380        8.55600
C        -14.44050        0.44380        9.53070
C        -14.65050       -0.78100        9.99590
C        -13.64240       -1.69950        9.34350
C        -13.52110       -1.02500        7.97090
C        -12.30360       -1.30810       10.00500
H          4.99110        2.15970       -5.61230
H          0.88240       -1.12810       -9.03520
H          4.43570        1.84530      -11.08380
H          2.12170        0.95710      -13.43770
H          4.31900       -0.49780      -13.82530
H          2.59460       -1.07030      -15.72340
H          0.71700       -2.63960      -14.68950
H          1.28490       -3.03400      -12.15480
H          3.76670       -2.97530      -13.07420
H          3.67800       -1.92490      -11.64110
H          0.28110       -0.58060      -12.42480
H          7.37690        3.64130       -4.09200
H          9.22740        2.80180       -5.46960
H         10.38570       -1.74670       -7.51230
H          9.67900       -2.05810       -5.91290
H          8.63440       -1.55050       -7.28100
H          7.67160       -1.17100       -5.13890
H          5.84740       -0.34050       -3.75910
H          3.63750        4.04210       -2.43640
H          3.97250        5.92080       -0.93590
H          4.06620        7.25810        0.95330
H          4.70810        8.11590       -0.48540
H          5.13420        8.66460        1.14990
H          7.97270        4.61060       -0.18080
H          7.60480        2.66040       -1.63890
H          1.32180       -2.04340       -2.16190
H          0.89600       -3.61710       -3.97430
H         -0.17790       -5.51180       -4.86620
H          0.88720       -4.65850       -6.03550
H         -0.38090       -5.76010       -6.61670
H         -2.64440       -1.45420       -5.01510
H         -2.20110        0.14380       -3.19090
H         -2.28250       -0.97410       -0.56290
H         -4.03490        0.17590        0.70900
H         -6.39340        2.48490        2.30390
H         -6.02270        1.52070        0.85760
H         -5.30020        1.09530        2.44610
H         -1.95610        3.87520        0.18570
H         -0.17020        2.70140       -1.03540
H          3.36460        0.47610        2.69150
H          5.76010        0.89060        2.61110
H          9.04970        2.17580        1.51070
H          8.07680        1.14070        2.57370
H          7.47970        1.56320        0.93570
H          5.03720        5.08790        2.30870
H          2.60040        4.66700        2.33810
H          2.20910        3.62960        4.80690
H          0.81470        5.03770        6.20920
H         -1.72040        7.00850        7.92580
H         -0.67360        5.57320        7.93880
H         -0.25200        6.99290        6.92580
H         -2.54280        4.25330        3.66900
H         -1.12100        2.84130        2.24860
H          0.16930       -2.77020        5.46600
H          0.44340       -4.40240        7.23540
H         -0.30770       -5.50470        9.20020
H          1.25480       -6.12630        8.57330
H          0.26860       -7.12050        9.66560
H         -1.99620       -7.17180        5.07370
H         -2.29550       -5.50710        3.28890
H          0.27250       -4.87570        1.98990
H         -0.00790       -5.66890       -0.33240
H         -4.21120       -4.69790       -2.38530
H         -3.47490       -4.81960       -4.00110
H         -3.27310       -3.32350       -3.07150
H         -3.41510       -3.12390       -0.78300
H         -3.11270       -2.32080        1.51500
H         -2.80940        0.62990        6.41210
H         -5.70450       -3.97940        6.72410
H        -10.33600       -3.77220        9.37600
H         -9.60740        0.91550        7.59410
H        -11.88440        0.93950       10.16690
H        -13.18510        1.19910        7.85680
H        -14.93240        1.35590        9.81400
H        -15.35250       -1.09650       10.74540
H        -13.86580       -2.76280        9.36160
H        -14.44700       -1.08300        7.40100
H        -12.69690       -1.39580        7.36460
H        -12.30010       -1.46390       11.08230
