
  xtb     02062216293D
 energy: -442.997319636868 gnorm: 0.000475614881 xtb: 6.4.1 (unknown)
269293  0     0  0            999 V2000
   -2.7635    4.6815   -7.8581 C   0  0  0  0  0  0  0  0  0  0  0  0
   -3.7802    5.6032   -7.7040 C   0  0  0  0  0  0  0  0  0  0  0  0
   -4.6449    5.6939   -6.5184 C   0  0  0  0  0  0  0  0  0  0  0  0
   -4.5854    5.0236   -5.5016 O   0  0  0  0  0  0  0  0  0  0  0  0
   -5.6838    6.6903   -6.8545 C   0  0  0  0  0  0  0  0  0  0  0  0
   -6.7236    7.1278   -6.0412 C   0  0  0  0  0  0  0  0  0  0  0  0
   -7.5195    8.0898   -6.6179 C   0  0  0  0  0  0  0  0  0  0  0  0
   -7.3016    8.5770   -7.9117 C   0  0  0  0  0  0  0  0  0  0  0  0
   -6.2802    8.1498   -8.7277 C   0  0  0  0  0  0  0  0  0  0  0  0
   -5.4608    7.1745   -8.1580 C   0  0  0  0  0  0  0  0  0  0  0  0
   -4.2684    6.5209   -8.6924 C   0  0  0  0  0  0  0  0  0  0  0  0
   -3.6244    6.8527   -9.8608 C   0  0  0  0  0  0  0  0  0  0  0  0
   -4.0845    7.8028  -10.7901 C   0  0  0  0  0  0  0  0  0  0  0  0
   -4.3847    8.5697  -11.5921 N   0  0  0  0  0  0  0  0  0  0  0  0
   -2.3634    6.3490  -10.2335 C   0  0  0  0  0  0  0  0  0  0  0  0
   -1.3121    6.0354  -10.5771 N   0  0  0  0  0  0  0  0  0  0  0  0
   -8.4816    9.5140   -7.8451 C   0  0  0  0  0  0  0  0  0  0  0  0
   -9.7760    9.1011   -8.5883 C   0  0  0  0  0  0  0  0  0  0  0  0
   -9.7694    7.5942   -8.6555 C   0  0  0  0  0  0  0  0  0  0  0  0
   -9.9754    7.1334   -7.4290 C   0  0  0  0  0  0  0  0  0  0  0  0
  -10.1247    8.3208   -6.5104 C   0  0  0  0  0  0  0  0  0  0  0  0
  -10.8018    9.3176   -7.4644 C   0  0  0  0  0  0  0  0  0  0  0  0
   -8.7239    8.9722   -6.4010 C   0  0  0  0  0  0  0  0  0  0  0  0
   -2.0656    4.0634   -6.8228 C   0  0  0  0  0  0  0  0  0  0  0  0
   -1.8757    4.4432   -5.4755 C   0  0  0  0  0  0  0  0  0  0  0  0
   -2.0757    5.6789   -4.9472 N   0  0  0  0  0  0  0  0  0  0  0  0
   -2.0411    5.8555   -3.5430 C   0  0  0  0  0  0  0  0  0  0  0  0
   -1.0854    6.7039   -2.9969 C   0  0  0  0  0  0  0  0  0  0  0  0
   -1.0025    6.8723   -1.6296 C   0  0  0  0  0  0  0  0  0  0  0  0
   -1.8863    6.1985   -0.7955 C   0  0  0  0  0  0  0  0  0  0  0  0
   -1.8556    6.3376    0.9590 S   0  0  0  0  0  0  0  0  0  0  0  0
   -0.1992    7.0022    1.3023 C   0  0  0  0  0  0  0  0  0  0  0  0
   -2.8737    5.3848   -1.3484 C   0  0  0  0  0  0  0  0  0  0  0  0
   -2.9518    5.2074   -2.7129 C   0  0  0  0  0  0  0  0  0  0  0  0
   -2.1983    6.8470   -5.7148 C   0  0  0  0  0  0  0  0  0  0  0  0
   -3.1414    7.8071   -5.3430 C   0  0  0  0  0  0  0  0  0  0  0  0
   -3.3285    8.9312   -6.1150 C   0  0  0  0  0  0  0  0  0  0  0  0
   -2.5694    9.1339   -7.2673 C   0  0  0  0  0  0  0  0  0  0  0  0
   -2.9595   10.5582   -8.2224 S   0  0  0  0  0  0  0  0  0  0  0  0
   -1.8206   10.4819   -9.6322 C   0  0  0  0  0  0  0  0  0  0  0  0
   -1.5760    8.2173   -7.5965 C   0  0  0  0  0  0  0  0  0  0  0  0
   -1.3966    7.0851   -6.8281 C   0  0  0  0  0  0  0  0  0  0  0  0
   -1.2670    3.3878   -4.7550 C   0  0  0  0  0  0  0  0  0  0  0  0
   -0.8770    3.1374   -3.0895 S   0  0  0  0  0  0  0  0  0  0  0  0
   -0.1191    1.5901   -3.4619 C   0  0  0  0  0  0  0  0  0  0  0  0
   -0.0985    1.3316   -4.8299 C   0  0  0  0  0  0  0  0  0  0  0  0
    0.5820    0.3259   -5.5026 N   0  0  0  0  0  0  0  0  0  0  0  0
   -0.0721   -0.1605   -6.6607 C   0  0  0  0  0  0  0  0  0  0  0  0
   -1.3141   -0.7682   -6.5249 C   0  0  0  0  0  0  0  0  0  0  0  0
   -2.0029   -1.2248   -7.6329 C   0  0  0  0  0  0  0  0  0  0  0  0
   -1.4541   -1.0768   -8.8989 C   0  0  0  0  0  0  0  0  0  0  0  0
   -2.2301   -1.6219  -10.3856 S   0  0  0  0  0  0  0  0  0  0  0  0
   -3.8827   -2.1488   -9.8488 C   0  0  0  0  0  0  0  0  0  0  0  0
   -0.2080   -0.4661   -9.0391 C   0  0  0  0  0  0  0  0  0  0  0  0
    0.4744   -0.0076   -7.9355 C   0  0  0  0  0  0  0  0  0  0  0  0
    1.9495    0.1006   -5.3280 C   0  0  0  0  0  0  0  0  0  0  0  0
    2.5796   -0.9245   -6.0417 C   0  0  0  0  0  0  0  0  0  0  0  0
    3.9276   -1.1522   -5.9018 C   0  0  0  0  0  0  0  0  0  0  0  0
    4.6921   -0.3951   -5.0180 C   0  0  0  0  0  0  0  0  0  0  0  0
    6.4009   -0.8110   -4.8783 S   0  0  0  0  0  0  0  0  0  0  0  0
    6.8822   -0.0583   -3.2994 C   0  0  0  0  0  0  0  0  0  0  0  0
    4.0780    0.6268   -4.3115 C   0  0  0  0  0  0  0  0  0  0  0  0
    2.7277    0.8763   -4.4728 C   0  0  0  0  0  0  0  0  0  0  0  0
   -0.8315    2.3247   -5.5319 C   0  0  0  0  0  0  0  0  0  0  0  0
   -1.2463    2.5361   -7.1945 S   0  0  0  0  0  0  0  0  0  0  0  0
    0.2801    0.8213   -2.3289 C   0  0  0  0  0  0  0  0  0  0  0  0
    0.5729   -0.5204   -2.1827 C   0  0  0  0  0  0  0  0  0  0  0  0
    0.4149   -1.5269   -3.1666 N   0  0  0  0  0  0  0  0  0  0  0  0
    1.5177   -2.3122   -3.5181 C   0  0  0  0  0  0  0  0  0  0  0  0
    1.3726   -3.2679   -4.5247 C   0  0  0  0  0  0  0  0  0  0  0  0
    2.4300   -4.0677   -4.9026 C   0  0  0  0  0  0  0  0  0  0  0  0
    3.6706   -3.9068   -4.3014 C   0  0  0  0  0  0  0  0  0  0  0  0
    5.0766   -4.9023   -4.7100 S   0  0  0  0  0  0  0  0  0  0  0  0
    4.7434   -5.3870   -6.4280 C   0  0  0  0  0  0  0  0  0  0  0  0
    3.8338   -2.9320   -3.3253 C   0  0  0  0  0  0  0  0  0  0  0  0
    2.7729   -2.1431   -2.9361 C   0  0  0  0  0  0  0  0  0  0  0  0
   -0.8512   -2.1497   -3.0162 C   0  0  0  0  0  0  0  0  0  0  0  0
   -0.9764   -3.5034   -2.7173 C   0  0  0  0  0  0  0  0  0  0  0  0
   -2.2172   -4.0795   -2.5248 C   0  0  0  0  0  0  0  0  0  0  0  0
   -3.3664   -3.3070   -2.6117 C   0  0  0  0  0  0  0  0  0  0  0  0
   -5.0018   -3.9308   -2.3778 S   0  0  0  0  0  0  0  0  0  0  0  0
   -4.7519   -5.6724   -1.9339 C   0  0  0  0  0  0  0  0  0  0  0  0
   -3.2482   -1.9466   -2.8872 C   0  0  0  0  0  0  0  0  0  0  0  0
   -2.0096   -1.3742   -3.0797 C   0  0  0  0  0  0  0  0  0  0  0  0
    0.7844   -0.8534   -0.8238 C   0  0  0  0  0  0  0  0  0  0  0  0
    1.1946   -2.3239   -0.0274 S   0  0  0  0  0  0  0  0  0  0  0  0
    1.0375   -1.5281    1.5380 C   0  0  0  0  0  0  0  0  0  0  0  0
    0.6201   -0.2139    1.4383 C   0  0  0  0  0  0  0  0  0  0  0  0
    0.2114    0.6265    2.4585 N   0  0  0  0  0  0  0  0  0  0  0  0
   -0.9125    1.4631    2.2057 C   0  0  0  0  0  0  0  0  0  0  0  0
   -1.0117    2.6810    2.8725 C   0  0  0  0  0  0  0  0  0  0  0  0
   -2.1326    3.4664    2.7196 C   0  0  0  0  0  0  0  0  0  0  0  0
   -3.1742    3.0596    1.8877 C   0  0  0  0  0  0  0  0  0  0  0  0
   -4.5725    4.1299    1.7915 S   0  0  0  0  0  0  0  0  0  0  0  0
   -5.7483    3.2224    0.7418 C   0  0  0  0  0  0  0  0  0  0  0  0
   -3.0723    1.8545    1.2093 C   0  0  0  0  0  0  0  0  0  0  0  0
   -1.9568    1.0581    1.3822 C   0  0  0  0  0  0  0  0  0  0  0  0
    0.2113    0.1581    3.8106 C   0  0  0  0  0  0  0  0  0  0  0  0
    1.0470    0.7369    4.7499 C   0  0  0  0  0  0  0  0  0  0  0  0
    1.0821    0.2606    6.0479 C   0  0  0  0  0  0  0  0  0  0  0  0
    0.2617   -0.7919    6.4228 C   0  0  0  0  0  0  0  0  0  0  0  0
    0.2739   -1.5176    8.0297 S   0  0  0  0  0  0  0  0  0  0  0  0
    1.7447   -0.8220    8.8273 C   0  0  0  0  0  0  0  0  0  0  0  0
   -0.6503   -1.3103    5.5050 C   0  0  0  0  0  0  0  0  0  0  0  0
   -0.6826   -0.8311    4.2140 C   0  0  0  0  0  0  0  0  0  0  0  0
    0.5658    0.1765    0.0716 C   0  0  0  0  0  0  0  0  0  0  0  0
    0.2342    1.6515   -0.7705 S   0  0  0  0  0  0  0  0  0  0  0  0
    1.3331   -2.2909    2.7208 C   0  0  0  0  0  0  0  0  0  0  0  0
    2.4324   -2.1521    3.5431 C   0  0  0  0  0  0  0  0  0  0  0  0
    3.5500   -1.3901    3.1585 N   0  0  0  0  0  0  0  0  0  0  0  0
    4.3117   -1.7986    2.0650 C   0  0  0  0  0  0  0  0  0  0  0  0
    4.0471   -2.9887    1.3848 C   0  0  0  0  0  0  0  0  0  0  0  0
    4.8368   -3.4073    0.3310 C   0  0  0  0  0  0  0  0  0  0  0  0
    5.9368   -2.6604   -0.0598 C   0  0  0  0  0  0  0  0  0  0  0  0
    7.0196   -3.1128   -1.3878 S   0  0  0  0  0  0  0  0  0  0  0  0
    6.7752   -4.9033   -1.5280 C   0  0  0  0  0  0  0  0  0  0  0  0
    6.2239   -1.4832    0.6226 C   0  0  0  0  0  0  0  0  0  0  0  0
    5.4317   -1.0606    1.6659 C   0  0  0  0  0  0  0  0  0  0  0  0
    3.8035   -0.1354    3.7604 C   0  0  0  0  0  0  0  0  0  0  0  0
    3.7087    1.0299    2.9979 C   0  0  0  0  0  0  0  0  0  0  0  0
    3.9846    2.2546    3.5641 C   0  0  0  0  0  0  0  0  0  0  0  0
    4.3497    2.3428    4.9079 C   0  0  0  0  0  0  0  0  0  0  0  0
    4.6566    3.9677    5.5296 S   0  0  0  0  0  0  0  0  0  0  0  0
    5.2820    3.6825    7.2091 C   0  0  0  0  0  0  0  0  0  0  0  0
    4.4377    1.1863    5.6690 C   0  0  0  0  0  0  0  0  0  0  0  0
    4.1738   -0.0446    5.0939 C   0  0  0  0  0  0  0  0  0  0  0  0
    2.3305   -2.9985    4.6742 C   0  0  0  0  0  0  0  0  0  0  0  0
    3.1915   -3.1563    6.1602 S   0  0  0  0  0  0  0  0  0  0  0  0
    2.1245   -4.4643    6.6766 C   0  0  0  0  0  0  0  0  0  0  0  0
    1.0929   -4.7003    5.7356 C   0  0  0  0  0  0  0  0  0  0  0  0
    0.0789   -5.6135    5.8465 N   0  0  0  0  0  0  0  0  0  0  0  0
   -0.4785   -6.0165    7.0746 C   0  0  0  0  0  0  0  0  0  0  0  0
   -0.6730   -5.0998    8.1087 C   0  0  0  0  0  0  0  0  0  0  0  0
   -1.1315   -5.5324    9.3315 C   0  0  0  0  0  0  0  0  0  0  0  0
   -1.4275   -6.8794    9.5398 C   0  0  0  0  0  0  0  0  0  0  0  0
   -1.9161   -7.3538   11.1670 S   0  0  0  0  0  0  0  0  0  0  0  0
   -1.5482   -9.1317   11.1981 C   0  0  0  0  0  0  0  0  0  0  0  0
   -1.3245   -7.7735    8.4833 C   0  0  0  0  0  0  0  0  0  0  0  0
   -0.8440   -7.3459    7.2607 C   0  0  0  0  0  0  0  0  0  0  0  0
   -0.4996   -6.1041    4.6594 C   0  0  0  0  0  0  0  0  0  0  0  0
   -1.8844   -6.1314    4.5019 C   0  0  0  0  0  0  0  0  0  0  0  0
   -2.4333   -6.5277    3.3031 C   0  0  0  0  0  0  0  0  0  0  0  0
   -1.6138   -6.9075    2.2409 C   0  0  0  0  0  0  0  0  0  0  0  0
   -2.4196   -7.3149    0.7258 S   0  0  0  0  0  0  0  0  0  0  0  0
   -1.0556   -7.4639   -0.4646 C   0  0  0  0  0  0  0  0  0  0  0  0
   -0.2373   -6.9440    2.4161 C   0  0  0  0  0  0  0  0  0  0  0  0
    0.3123   -6.5469    3.6189 C   0  0  0  0  0  0  0  0  0  0  0  0
    1.2303   -3.8474    4.6260 C   0  0  0  0  0  0  0  0  0  0  0  0
    0.2738   -3.5985    3.2041 S   0  0  0  0  0  0  0  0  0  0  0  0
    2.3233   -5.2259    7.8256 C   0  0  0  0  0  0  0  0  0  0  0  0
    3.1478   -5.0164    8.9080 C   0  0  0  0  0  0  0  0  0  0  0  0
    3.9634   -3.8263    9.1650 C   0  0  0  0  0  0  0  0  0  0  0  0
    4.1920   -2.8969    8.4042 O   0  0  0  0  0  0  0  0  0  0  0  0
    4.4395   -3.9534   10.5482 C   0  0  0  0  0  0  0  0  0  0  0  0
    5.2272   -3.0967   11.2891 C   0  0  0  0  0  0  0  0  0  0  0  0
    5.5554   -3.4387   12.5922 C   0  0  0  0  0  0  0  0  0  0  0  0
    5.0946   -4.6341   13.1452 C   0  0  0  0  0  0  0  0  0  0  0  0
    5.3629   -5.0533   14.4002 O   0  0  0  0  0  0  0  0  0  0  0  0
    6.1662   -4.2554   15.2383 C   0  0  0  0  0  0  0  0  0  0  0  0
    4.2923   -5.5059   12.3903 C   0  0  0  0  0  0  0  0  0  0  0  0
    3.9678   -5.1621   11.0975 C   0  0  0  0  0  0  0  0  0  0  0  0
    3.1871   -5.8616   10.0764 C   0  0  0  0  0  0  0  0  0  0  0  0
    2.6233   -7.1048   10.2243 C   0  0  0  0  0  0  0  0  0  0  0  0
    2.5998   -7.8346   11.4297 C   0  0  0  0  0  0  0  0  0  0  0  0
    2.5104   -8.4882   12.3699 N   0  0  0  0  0  0  0  0  0  0  0  0
    2.0153   -7.8553    9.2010 C   0  0  0  0  0  0  0  0  0  0  0  0
    1.5408   -8.5618    8.4269 N   0  0  0  0  0  0  0  0  0  0  0  0
   -2.4967    4.3660   -8.8599 H   0  0  0  0  0  0  0  0  0  0  0  0
   -6.8565    6.7312   -5.0465 H   0  0  0  0  0  0  0  0  0  0  0  0
   -6.1237    8.5311   -9.7231 H   0  0  0  0  0  0  0  0  0  0  0  0
   -8.2560   10.5722   -7.9614 H   0  0  0  0  0  0  0  0  0  0  0  0
   -9.9436    9.6225   -9.5269 H   0  0  0  0  0  0  0  0  0  0  0  0
   -9.5634    7.0354   -9.5496 H   0  0  0  0  0  0  0  0  0  0  0  0
   -9.9752    6.1127   -7.0937 H   0  0  0  0  0  0  0  0  0  0  0  0
  -10.6110    8.1317   -5.5567 H   0  0  0  0  0  0  0  0  0  0  0  0
  -11.8083    9.0129   -7.7476 H   0  0  0  0  0  0  0  0  0  0  0  0
  -10.8196   10.3382   -7.0841 H   0  0  0  0  0  0  0  0  0  0  0  0
   -8.6580    9.6781   -5.5750 H   0  0  0  0  0  0  0  0  0  0  0  0
   -0.3992    7.2239   -3.6496 H   0  0  0  0  0  0  0  0  0  0  0  0
   -0.2486    7.5291   -1.2272 H   0  0  0  0  0  0  0  0  0  0  0  0
    0.5440    6.4038    0.7844 H   0  0  0  0  0  0  0  0  0  0  0  0
   -0.0652    6.9111    2.3756 H   0  0  0  0  0  0  0  0  0  0  0  0
   -0.1386    8.0479    1.0149 H   0  0  0  0  0  0  0  0  0  0  0  0
   -3.5728    4.8992   -0.6875 H   0  0  0  0  0  0  0  0  0  0  0  0
   -3.7140    4.5874   -3.1592 H   0  0  0  0  0  0  0  0  0  0  0  0
   -3.7408    7.6470   -4.4598 H   0  0  0  0  0  0  0  0  0  0  0  0
   -4.0802    9.6579   -5.8485 H   0  0  0  0  0  0  0  0  0  0  0  0
   -2.0634   11.3446  -10.2448 H   0  0  0  0  0  0  0  0  0  0  0  0
   -1.9888    9.5737  -10.2031 H   0  0  0  0  0  0  0  0  0  0  0  0
   -0.7936   10.5509   -9.2859 H   0  0  0  0  0  0  0  0  0  0  0  0
   -0.9431    8.3641   -8.4564 H   0  0  0  0  0  0  0  0  0  0  0  0
   -0.6301    6.3772   -7.1053 H   0  0  0  0  0  0  0  0  0  0  0  0
   -1.7440   -0.8892   -5.5422 H   0  0  0  0  0  0  0  0  0  0  0  0
   -2.9625   -1.6946   -7.4895 H   0  0  0  0  0  0  0  0  0  0  0  0
   -4.3861   -1.3269   -9.3484 H   0  0  0  0  0  0  0  0  0  0  0  0
   -4.4151   -2.4096  -10.7582 H   0  0  0  0  0  0  0  0  0  0  0  0
   -3.8090   -3.0198   -9.2041 H   0  0  0  0  0  0  0  0  0  0  0  0
    0.2073   -0.3432  -10.0273 H   0  0  0  0  0  0  0  0  0  0  0  0
    1.4272    0.4857   -8.0544 H   0  0  0  0  0  0  0  0  0  0  0  0
    2.0055   -1.5491   -6.7072 H   0  0  0  0  0  0  0  0  0  0  0  0
    4.4089   -1.9326   -6.4703 H   0  0  0  0  0  0  0  0  0  0  0  0
    6.9791    1.0187   -3.4057 H   0  0  0  0  0  0  0  0  0  0  0  0
    7.8428   -0.4955   -3.0465 H   0  0  0  0  0  0  0  0  0  0  0  0
    6.1530   -0.3189   -2.5387 H   0  0  0  0  0  0  0  0  0  0  0  0
    4.6418    1.2504   -3.6358 H   0  0  0  0  0  0  0  0  0  0  0  0
    2.2898    1.6999   -3.9313 H   0  0  0  0  0  0  0  0  0  0  0  0
    0.4160   -3.3802   -5.0142 H   0  0  0  0  0  0  0  0  0  0  0  0
    2.2784   -4.8081   -5.6726 H   0  0  0  0  0  0  0  0  0  0  0  0
    5.6889   -5.7428   -6.8253 H   0  0  0  0  0  0  0  0  0  0  0  0
    4.0070   -6.1851   -6.4642 H   0  0  0  0  0  0  0  0  0  0  0  0
    4.4072   -4.5193   -6.9871 H   0  0  0  0  0  0  0  0  0  0  0  0
    4.8046   -2.7912   -2.8778 H   0  0  0  0  0  0  0  0  0  0  0  0
    2.9333   -1.3818   -2.1888 H   0  0  0  0  0  0  0  0  0  0  0  0
   -0.0901   -4.1124   -2.6178 H   0  0  0  0  0  0  0  0  0  0  0  0
   -2.2709   -5.1298   -2.2890 H   0  0  0  0  0  0  0  0  0  0  0  0
   -4.2915   -6.2046   -2.7616 H   0  0  0  0  0  0  0  0  0  0  0  0
   -4.1547   -5.7493   -1.0298 H   0  0  0  0  0  0  0  0  0  0  0  0
   -5.7452   -6.0704   -1.7512 H   0  0  0  0  0  0  0  0  0  0  0  0
   -4.1410   -1.3423   -2.9425 H   0  0  0  0  0  0  0  0  0  0  0  0
   -1.9361   -0.3128   -3.2622 H   0  0  0  0  0  0  0  0  0  0  0  0
   -0.2113    2.9977    3.5230 H   0  0  0  0  0  0  0  0  0  0  0  0
   -2.2191    4.4056    3.2428 H   0  0  0  0  0  0  0  0  0  0  0  0
   -6.0004    2.2722    1.2033 H   0  0  0  0  0  0  0  0  0  0  0  0
   -6.6314    3.8514    0.6878 H   0  0  0  0  0  0  0  0  0  0  0  0
   -5.3379    3.0806   -0.2540 H   0  0  0  0  0  0  0  0  0  0  0  0
   -3.8585    1.5072    0.5590 H   0  0  0  0  0  0  0  0  0  0  0  0
   -1.9127    0.1037    0.8764 H   0  0  0  0  0  0  0  0  0  0  0  0
    1.6798    1.5612    4.4671 H   0  0  0  0  0  0  0  0  0  0  0  0
    1.7585    0.7166    6.7512 H   0  0  0  0  0  0  0  0  0  0  0  0
    1.7942   -1.2980    9.8025 H   0  0  0  0  0  0  0  0  0  0  0  0
    1.6316    0.2512    8.9499 H   0  0  0  0  0  0  0  0  0  0  0  0
    2.6303   -1.0765    8.2516 H   0  0  0  0  0  0  0  0  0  0  0  0
   -1.3253   -2.0941    5.8146 H   0  0  0  0  0  0  0  0  0  0  0  0
   -1.3923   -1.2322    3.5051 H   0  0  0  0  0  0  0  0  0  0  0  0
    3.2185   -3.6140    1.6799 H   0  0  0  0  0  0  0  0  0  0  0  0
    4.5804   -4.3236   -0.1768 H   0  0  0  0  0  0  0  0  0  0  0  0
    5.8173   -5.1196   -1.9920 H   0  0  0  0  0  0  0  0  0  0  0  0
    7.5731   -5.2585   -2.1722 H   0  0  0  0  0  0  0  0  0  0  0  0
    6.8545   -5.3546   -0.5434 H   0  0  0  0  0  0  0  0  0  0  0  0
    7.0882   -0.9043    0.3335 H   0  0  0  0  0  0  0  0  0  0  0  0
    5.7039   -0.1598    2.1926 H   0  0  0  0  0  0  0  0  0  0  0  0
    3.4138    0.9652    1.9610 H   0  0  0  0  0  0  0  0  0  0  0  0
    3.9132    3.1588    2.9785 H   0  0  0  0  0  0  0  0  0  0  0  0
    4.5033    3.2522    7.8325 H   0  0  0  0  0  0  0  0  0  0  0  0
    5.5554    4.6622    7.5884 H   0  0  0  0  0  0  0  0  0  0  0  0
    6.1584    3.0424    7.1722 H   0  0  0  0  0  0  0  0  0  0  0  0
    4.7236    1.2216    6.7079 H   0  0  0  0  0  0  0  0  0  0  0  0
    4.2671   -0.9392    5.6893 H   0  0  0  0  0  0  0  0  0  0  0  0
   -0.4339   -4.0585    7.9587 H   0  0  0  0  0  0  0  0  0  0  0  0
   -1.2590   -4.8324   10.1426 H   0  0  0  0  0  0  0  0  0  0  0  0
   -0.5622   -9.3024   10.7765 H   0  0  0  0  0  0  0  0  0  0  0  0
   -2.3105   -9.6864   10.6585 H   0  0  0  0  0  0  0  0  0  0  0  0
   -1.5576   -9.4167   12.2454 H   0  0  0  0  0  0  0  0  0  0  0  0
   -1.5853   -8.8114    8.6062 H   0  0  0  0  0  0  0  0  0  0  0  0
   -0.7253   -8.0529    6.4543 H   0  0  0  0  0  0  0  0  0  0  0  0
   -2.5202   -5.8161    5.3155 H   0  0  0  0  0  0  0  0  0  0  0  0
   -3.5038   -6.5270    3.1668 H   0  0  0  0  0  0  0  0  0  0  0  0
   -0.4779   -6.5439   -0.4762 H   0  0  0  0  0  0  0  0  0  0  0  0
   -0.4346   -8.3202   -0.2185 H   0  0  0  0  0  0  0  0  0  0  0  0
   -1.5241   -7.6245   -1.4310 H   0  0  0  0  0  0  0  0  0  0  0  0
    0.4197   -7.2720    1.6274 H   0  0  0  0  0  0  0  0  0  0  0  0
    1.3841   -6.5686    3.7515 H   0  0  0  0  0  0  0  0  0  0  0  0
    1.6986   -6.1076    7.8807 H   0  0  0  0  0  0  0  0  0  0  0  0
    5.5841   -2.1756   10.8541 H   0  0  0  0  0  0  0  0  0  0  0  0
    6.1731   -2.7695   13.1696 H   0  0  0  0  0  0  0  0  0  0  0  0
    6.2386   -4.8000   16.1780 H   0  0  0  0  0  0  0  0  0  0  0  0
    5.7087   -3.2782   15.4210 H   0  0  0  0  0  0  0  0  0  0  0  0
    7.1688   -4.1186   14.8214 H   0  0  0  0  0  0  0  0  0  0  0  0
    3.9585   -6.4177   12.8568 H   0  0  0  0  0  0  0  0  0  0  0  0
  1  2  2  0  0  0  0
  2  3  1  0  0  0  0
  3  4  2  0  0  0  0
  3  5  1  0  0  0  0
  5  6  2  0  0  0  0
  6  7  1  0  0  0  0
  7  8  2  0  0  0  0
  8  9  1  0  0  0  0
  9 10  2  0  0  0  0
 10 11  1  0  0  0  0
 11 12  2  0  0  0  0
 12 13  1  0  0  0  0
 13 14  3  0  0  0  0
 12 15  1  0  0  0  0
 15 16  3  0  0  0  0
  8 17  1  0  0  0  0
 17 18  1  0  0  0  0
 18 19  1  0  0  0  0
 19 20  2  0  0  0  0
 20 21  1  0  0  0  0
 21 22  1  0  0  0  0
 21 23  1  0  0  0  0
  1 24  1  0  0  0  0
 24 25  2  0  0  0  0
 25 26  1  0  0  0  0
 26 27  1  0  0  0  0
 27 28  2  0  0  0  0
 28 29  1  0  0  0  0
 29 30  2  0  0  0  0
 30 31  1  0  0  0  0
 31 32  1  0  0  0  0
 30 33  1  0  0  0  0
 33 34  2  0  0  0  0
 26 35  1  0  0  0  0
 35 36  2  0  0  0  0
 36 37  1  0  0  0  0
 37 38  2  0  0  0  0
 38 39  1  0  0  0  0
 39 40  1  0  0  0  0
 38 41  1  0  0  0  0
 41 42  2  0  0  0  0
 25 43  1  0  0  0  0
 43 44  1  0  0  0  0
 44 45  1  0  0  0  0
 45 46  2  0  0  0  0
 46 47  1  0  0  0  0
 47 48  1  0  0  0  0
 48 49  2  0  0  0  0
 49 50  1  0  0  0  0
 50 51  2  0  0  0  0
 51 52  1  0  0  0  0
 52 53  1  0  0  0  0
 51 54  1  0  0  0  0
 54 55  2  0  0  0  0
 47 56  1  0  0  0  0
 56 57  2  0  0  0  0
 57 58  1  0  0  0  0
 58 59  2  0  0  0  0
 59 60  1  0  0  0  0
 60 61  1  0  0  0  0
 59 62  1  0  0  0  0
 62 63  2  0  0  0  0
 46 64  1  0  0  0  0
 64 65  1  0  0  0  0
 45 66  1  0  0  0  0
 66 67  2  0  0  0  0
 67 68  1  0  0  0  0
 68 69  1  0  0  0  0
 69 70  2  0  0  0  0
 70 71  1  0  0  0  0
 71 72  2  0  0  0  0
 72 73  1  0  0  0  0
 73 74  1  0  0  0  0
 72 75  1  0  0  0  0
 75 76  2  0  0  0  0
 68 77  1  0  0  0  0
 77 78  2  0  0  0  0
 78 79  1  0  0  0  0
 79 80  2  0  0  0  0
 80 81  1  0  0  0  0
 81 82  1  0  0  0  0
 80 83  1  0  0  0  0
 83 84  2  0  0  0  0
 67 85  1  0  0  0  0
 85 86  1  0  0  0  0
 86 87  1  0  0  0  0
 87 88  2  0  0  0  0
 88 89  1  0  0  0  0
 89 90  1  0  0  0  0
 90 91  2  0  0  0  0
 91 92  1  0  0  0  0
 92 93  2  0  0  0  0
 93 94  1  0  0  0  0
 94 95  1  0  0  0  0
 93 96  1  0  0  0  0
 96 97  2  0  0  0  0
 89 98  1  0  0  0  0
 98 99  2  0  0  0  0
 99100  1  0  0  0  0
100101  2  0  0  0  0
101102  1  0  0  0  0
102103  1  0  0  0  0
101104  1  0  0  0  0
104105  2  0  0  0  0
 88106  1  0  0  0  0
106107  1  0  0  0  0
 87108  1  0  0  0  0
108109  2  0  0  0  0
109110  1  0  0  0  0
110111  1  0  0  0  0
111112  2  0  0  0  0
112113  1  0  0  0  0
113114  2  0  0  0  0
114115  1  0  0  0  0
115116  1  0  0  0  0
114117  1  0  0  0  0
117118  2  0  0  0  0
110119  1  0  0  0  0
119120  2  0  0  0  0
120121  1  0  0  0  0
121122  2  0  0  0  0
122123  1  0  0  0  0
123124  1  0  0  0  0
122125  1  0  0  0  0
125126  2  0  0  0  0
109127  1  0  0  0  0
127128  1  0  0  0  0
128129  1  0  0  0  0
129130  2  0  0  0  0
130131  1  0  0  0  0
131132  1  0  0  0  0
132133  2  0  0  0  0
133134  1  0  0  0  0
134135  2  0  0  0  0
135136  1  0  0  0  0
136137  1  0  0  0  0
135138  1  0  0  0  0
138139  2  0  0  0  0
131140  1  0  0  0  0
140141  2  0  0  0  0
141142  1  0  0  0  0
142143  2  0  0  0  0
143144  1  0  0  0  0
144145  1  0  0  0  0
143146  1  0  0  0  0
146147  2  0  0  0  0
130148  1  0  0  0  0
148149  1  0  0  0  0
129150  1  0  0  0  0
150151  2  0  0  0  0
151152  1  0  0  0  0
152153  2  0  0  0  0
152154  1  0  0  0  0
154155  2  0  0  0  0
155156  1  0  0  0  0
156157  2  0  0  0  0
157158  1  0  0  0  0
158159  1  0  0  0  0
157160  1  0  0  0  0
160161  2  0  0  0  0
161162  1  0  0  0  0
162163  2  0  0  0  0
163164  1  0  0  0  0
164165  3  0  0  0  0
163166  1  0  0  0  0
166167  3  0  0  0  0
 11  2  1  0  0  0  0
 23 17  1  0  0  0  0
 65 24  1  0  0  0  0
107 66  1  0  0  0  0
149108  1  0  0  0  0
162151  1  0  0  0  0
 10  5  1  0  0  0  0
 22 18  1  0  0  0  0
 34 27  1  0  0  0  0
 42 35  1  0  0  0  0
 64 43  2  0  0  0  0
 76 69  1  0  0  0  0
 84 77  1  0  0  0  0
106 85  2  0  0  0  0
118111  1  0  0  0  0
126119  1  0  0  0  0
148127  2  0  0  0  0
161154  1  0  0  0  0
 23  7  1  0  0  0  0
 55 48  1  0  0  0  0
 63 56  1  0  0  0  0
 97 90  1  0  0  0  0
105 98  1  0  0  0  0
139132  1  0  0  0  0
147140  1  0  0  0  0
  1168  1  0  0  0  0
  6169  1  0  0  0  0
  9170  1  0  0  0  0
 17171  1  0  0  0  0
 18172  1  0  0  0  0
 19173  1  0  0  0  0
 20174  1  0  0  0  0
 21175  1  0  0  0  0
 22176  1  0  0  0  0
 22177  1  0  0  0  0
 23178  1  0  0  0  0
 28179  1  0  0  0  0
 29180  1  0  0  0  0
 32181  1  0  0  0  0
 32182  1  0  0  0  0
 32183  1  0  0  0  0
 33184  1  0  0  0  0
 34185  1  0  0  0  0
 36186  1  0  0  0  0
 37187  1  0  0  0  0
 40188  1  0  0  0  0
 40189  1  0  0  0  0
 40190  1  0  0  0  0
 41191  1  0  0  0  0
 42192  1  0  0  0  0
 49193  1  0  0  0  0
 50194  1  0  0  0  0
 53195  1  0  0  0  0
 53196  1  0  0  0  0
 53197  1  0  0  0  0
 54198  1  0  0  0  0
 55199  1  0  0  0  0
 57200  1  0  0  0  0
 58201  1  0  0  0  0
 61202  1  0  0  0  0
 61203  1  0  0  0  0
 61204  1  0  0  0  0
 62205  1  0  0  0  0
 63206  1  0  0  0  0
 70207  1  0  0  0  0
 71208  1  0  0  0  0
 74209  1  0  0  0  0
 74210  1  0  0  0  0
 74211  1  0  0  0  0
 75212  1  0  0  0  0
 76213  1  0  0  0  0
 78214  1  0  0  0  0
 79215  1  0  0  0  0
 82216  1  0  0  0  0
 82217  1  0  0  0  0
 82218  1  0  0  0  0
 83219  1  0  0  0  0
 84220  1  0  0  0  0
 91221  1  0  0  0  0
 92222  1  0  0  0  0
 95223  1  0  0  0  0
 95224  1  0  0  0  0
 95225  1  0  0  0  0
 96226  1  0  0  0  0
 97227  1  0  0  0  0
 99228  1  0  0  0  0
100229  1  0  0  0  0
103230  1  0  0  0  0
103231  1  0  0  0  0
103232  1  0  0  0  0
104233  1  0  0  0  0
105234  1  0  0  0  0
112235  1  0  0  0  0
113236  1  0  0  0  0
116237  1  0  0  0  0
116238  1  0  0  0  0
116239  1  0  0  0  0
117240  1  0  0  0  0
118241  1  0  0  0  0
120242  1  0  0  0  0
121243  1  0  0  0  0
124244  1  0  0  0  0
124245  1  0  0  0  0
124246  1  0  0  0  0
125247  1  0  0  0  0
126248  1  0  0  0  0
133249  1  0  0  0  0
134250  1  0  0  0  0
137251  1  0  0  0  0
137252  1  0  0  0  0
137253  1  0  0  0  0
138254  1  0  0  0  0
139255  1  0  0  0  0
141256  1  0  0  0  0
142257  1  0  0  0  0
145258  1  0  0  0  0
145259  1  0  0  0  0
145260  1  0  0  0  0
146261  1  0  0  0  0
147262  1  0  0  0  0
150263  1  0  0  0  0
155264  1  0  0  0  0
156265  1  0  0  0  0
159266  1  0  0  0  0
159267  1  0  0  0  0
159268  1  0  0  0  0
160269  1  0  0  0  0
M  END
