217

C         -1.77810       -5.92920        3.71430
C         -1.16360       -7.12430        3.42360
C         -0.46840       -7.48190        2.17810
O          0.00040       -6.73460        1.33960
C         -0.42960       -8.95590        2.14110
C          0.05740       -9.75760        1.11250
C         -0.04050      -11.10560        1.36230
C         -0.58090      -11.62020        2.54810
C         -1.05170      -10.83920        3.57770
C         -0.96130       -9.46560        3.34250
C         -1.29920       -8.33460        4.20270
C         -1.54010       -8.40510        5.55250
C         -1.72070       -9.60360        6.26990
N         -1.90000      -10.54290        6.90610
C         -1.46690       -7.29580        6.41220
N         -1.29450       -6.46080        7.18290
C         -0.37700      -13.05020        2.11430
C         -1.61220      -13.83680        1.60990
C         -2.57840      -12.81530        1.06360
C         -2.06270      -12.32870       -0.05730
C         -0.73820      -13.01270       -0.28930
C         -1.04310      -14.40010        0.29780
C          0.22920      -12.47680        0.79480
C         -1.78620       -4.73460        2.98080
C         -2.70810       -3.67680        3.16220
N         -3.73120       -3.63690        4.08120
C         -3.53570       -3.95110        5.43580
C         -4.56050       -4.56090        6.15980
C         -4.39710       -4.82330        7.50100
C         -3.20930       -4.48570        8.14600
S         -3.09660       -4.84820        9.86380
C         -1.30300       -4.94150       10.13370
C         -2.19000       -3.87080        7.42710
C         -2.35070       -3.61050        6.08260
C         -4.95970       -3.07000        3.70120
C         -5.53920       -3.41520        2.48240
C         -6.78330       -2.92830        2.13770
C         -7.46210       -2.08610        3.00800
S         -9.07890       -1.45790        2.64920
C         -9.86930       -2.89530        1.86140
C         -6.86800       -1.70170        4.20540
C         -5.62760       -2.19010        4.55160
C         -2.47910       -2.63840        2.24060
S         -3.18410       -1.07020        1.98060
C         -1.93650       -0.69620        0.80940
C         -1.03130       -1.72250        0.64740
N          0.12580       -1.60660       -0.14270
C          1.12840       -0.74880        0.33550
C          1.38770       -0.69200        1.70450
C          2.37830        0.12480        2.21420
C          3.13070        0.92090        1.36210
S          4.42450        2.00580        1.89160
C          4.79260        1.44860        3.58020
C          2.85440        0.90070       -0.00220
C          1.87360        0.07700       -0.50800
C          0.23740       -2.38580       -1.28960
C          1.44740       -2.56950       -1.95530
C          1.50010       -3.26220       -3.14950
C          0.34850       -3.81050       -3.69290
S          0.28320       -4.66310       -5.23950
C          1.90510       -4.33400       -5.98320
C         -0.84500       -3.71170       -2.98600
C         -0.90030       -3.01260       -1.80310
C         -1.36100       -2.84240        1.44280
S         -0.63790       -4.38310        1.68300
C         -1.79600        0.57810        0.14700
C         -1.84730        0.79620       -1.21460
N         -2.44690       -0.08480       -2.11260
C         -1.85350       -0.32450       -3.35660
C         -2.59940       -0.66150       -4.48410
C         -1.97530       -0.96410       -5.67810
C         -0.59240       -0.91620       -5.77980
S          0.28920       -1.30420       -7.26210
C         -0.84640       -2.43320       -8.11960
C          0.15440       -0.51390       -4.67880
C         -0.46960       -0.22520       -3.48770
C         -3.71950       -0.58550       -1.79840
C         -4.13000       -1.84180       -2.24900
C         -5.41440       -2.28300       -2.02030
C         -6.32030       -1.48740       -1.32640
S         -7.97770       -2.08500       -1.17780
C         -8.93600       -0.56850       -0.89040
C         -5.90120       -0.27140       -0.80830
C         -4.61770        0.17580       -1.05120
C         -1.29750        2.06220       -1.54150
S         -0.91280        2.85400       -3.02700
C         -0.14910        4.16060       -2.14340
C         -0.31280        4.05580       -0.76950
N         -0.04590        5.06240        0.13750
C          0.04510        6.39990       -0.28170
C          1.08200        7.21040        0.18380
C          1.28250        8.46060       -0.35570
C          0.44060        8.94200       -1.35630
S          0.87510       10.48660       -2.09000
C         -0.14010       10.53820       -3.59410
C         -0.66640        8.19120       -1.72880
C         -0.85820        6.93100       -1.19730
C          0.27020        4.75740        1.46730
C         -0.22840        5.55320        2.49580
C          0.06370        5.26930        3.81530
C          0.85300        4.17010        4.12490
S          1.29810        3.68650        5.76580
C          0.49180        4.91850        6.82430
C          1.35610        3.37830        3.09760
C          1.08280        3.67020        1.78080
C         -0.91830        2.81470       -0.43950
S         -1.22410        1.97570        1.04120
C          0.64770        5.14850       -2.82300
C          1.88760        5.51550       -2.26010
N          2.54020        5.02890       -1.19340
N          3.60620        5.76910       -1.11290
C          4.61560        5.52080       -0.12450
C          5.79240        4.78750       -0.75970
N          3.74790        6.70430       -2.00750
C          2.67540        6.56870       -2.79960
C          2.25190        7.27050       -3.94920
C          1.05200        6.84910       -4.51020
C          0.28980        5.80480       -3.98880
C          2.97590        8.39780       -4.46810
C          4.32430        8.52660       -4.47760
C          5.28860        7.41510       -4.26930
O          5.06640        6.22530       -4.26690
C          6.61710        8.05840       -4.20520
C          7.83380        7.47380       -3.91950
C          8.95110        8.29440       -3.87580
C          8.84020        9.65930       -4.07840
C          7.61010       10.26160       -4.36160
O          7.42420       11.58620       -4.49240
C          8.52910       12.46080       -4.49500
C          6.48480        9.43060       -4.47370
C          5.09370        9.72930       -4.78580
C          4.59850       10.88220       -5.33490
C          5.34290       11.96420       -5.85790
N          5.80930       12.86570       -6.39490
C          3.23220       11.14600       -5.57090
N          2.14990       11.46890       -5.78460
H         -2.41320       -5.92030        4.59530
H          0.46950       -9.32080        0.21630
H         -1.46140      -11.24620        4.48750
H          0.26640      -13.65380        2.75140
H         -2.01790      -14.54680        2.32570
H         -3.48190      -12.51860        1.56350
H         -2.44880      -11.54380       -0.68100
H         -0.34810      -12.97240       -1.30290
H         -0.15600      -15.01600        0.43870
H         -1.78400      -14.94910       -0.28150
H          1.26990      -12.70460        0.57190
H         -5.47890       -4.82990        5.65910
H         -5.18330       -5.30280        8.06340
H         -1.16970       -5.46030       11.07770
H         -0.87700       -3.94420       10.19910
H         -0.86530       -5.51360        9.32210
H         -1.26960       -3.58630        7.90870
H         -1.55970       -3.12970        5.52610
H         -5.01780       -4.08150        1.81070
H         -7.22070       -3.21480        1.19500
H         -9.50710       -3.02510        0.84630
H         -9.67060       -3.77760        2.46140
H        -10.93330       -2.68150        1.85080
H         -7.39210       -1.02580        4.86320
H         -5.17270       -1.90310        5.48750
H          0.81710       -1.31080        2.38080
H          2.55670        0.11970        3.27810
H          4.00060        1.74250        4.26410
H          5.71540        1.94810        3.85850
H          4.93860        0.37270        3.58310
H          3.41720        1.54060       -0.66480
H          1.69890        0.07590       -1.57120
H          2.36050       -2.17240       -1.53980
H          2.45290       -3.36840       -3.64300
H          1.86060       -4.75430       -6.98310
H          2.68580       -4.82830       -5.41220
H          2.06710       -3.26170       -6.04070
H         -1.73060       -4.18440       -3.38440
H         -1.83510       -2.93770       -1.26990
H         -3.67750       -0.68330       -4.43540
H         -2.58220       -1.22860       -6.52940
H         -0.26490       -2.89480       -8.91150
H         -1.19040       -3.18840       -7.41930
H         -1.67660       -1.88160       -8.55110
H          1.22790       -0.44180       -4.76230
H          0.11460        0.06700       -2.63370
H         -3.44640       -2.45990       -2.80820
H         -5.73320       -3.24460       -2.39320
H         -8.80890       -0.22780        0.13340
H         -9.97440       -0.83580       -1.06080
H         -8.62450        0.18890       -1.60290
H         -6.56920        0.34530       -0.22860
H         -4.31980        1.14130       -0.67090
H          1.75630        6.82960        0.93680
H          2.11490        9.06750       -0.03420
H          0.31760       11.28500       -4.23680
H         -0.11120        9.56710       -4.07860
H         -1.15880       10.82690       -3.35080
H         -1.38010        8.57070       -2.44190
H         -1.70570        6.34210       -1.51500
H         -0.85010        6.40330        2.25560
H         -0.33830        5.90630        4.58670
H          0.87390        5.90950        6.59690
H          0.75350        4.64750        7.84250
H         -0.58550        4.86950        6.69470
H          1.96720        2.52880        3.34870
H          1.51020        3.07650        0.98800
H          4.94020        6.48470        0.27410
H          4.16140        4.91480        0.66190
H          6.15830        5.35110       -1.61440
H          6.59180        4.67110       -0.03400
H          5.48190        3.80210       -1.09640
H          0.70260        7.34440       -5.40570
H         -0.63320        5.53030       -4.47890
H          2.36530        9.20760       -4.84480
H          7.89880        6.41320       -3.73610
H          9.92250        7.87360       -3.66360
H          9.72680       10.26920       -4.00660
H          8.11190       13.44090       -4.71890
H          9.24980       12.19030       -5.27140
H          9.02350       12.48210       -3.51900
