
  xtb     02062211073D
 energy: -327.553735920100 gnorm: 0.000748485492 xtb: 6.4.1 (unknown)
197215  0     0  0            999 V2000
   -4.6466   -1.9995    2.9223 C   0  0  0  0  0  0  0  0  0  0  0  0
   -4.4556   -2.2494    4.2529 C   0  0  0  0  0  0  0  0  0  0  0  0
   -5.6064   -2.5258    5.1437 C   0  0  0  0  0  0  0  0  0  0  0  0
   -6.7634   -2.6881    4.8173 O   0  0  0  0  0  0  0  0  0  0  0  0
   -5.0626   -2.4612    6.5147 C   0  0  0  0  0  0  0  0  0  0  0  0
   -5.7746   -2.5587    7.7085 C   0  0  0  0  0  0  0  0  0  0  0  0
   -5.0035   -2.4123    8.8360 C   0  0  0  0  0  0  0  0  0  0  0  0
   -3.6183   -2.2069    8.7850 C   0  0  0  0  0  0  0  0  0  0  0  0
   -2.8987   -2.1326    7.6169 C   0  0  0  0  0  0  0  0  0  0  0  0
   -3.6693   -2.2547    6.4581 C   0  0  0  0  0  0  0  0  0  0  0  0
   -3.2637   -2.2209    5.0569 C   0  0  0  0  0  0  0  0  0  0  0  0
   -1.9851   -2.3896    4.5739 C   0  0  0  0  0  0  0  0  0  0  0  0
   -1.7211   -2.7559    3.2435 C   0  0  0  0  0  0  0  0  0  0  0  0
   -1.4619   -3.1220    2.1845 N   0  0  0  0  0  0  0  0  0  0  0  0
   -0.8235   -2.3052    5.3614 C   0  0  0  0  0  0  0  0  0  0  0  0
    0.1549   -2.1926    5.9530 N   0  0  0  0  0  0  0  0  0  0  0  0
   -3.4916   -2.1467   10.2867 C   0  0  0  0  0  0  0  0  0  0  0  0
   -2.9322   -3.4053   10.9826 C   0  0  0  0  0  0  0  0  0  0  0  0
   -3.3658   -3.2464   12.4219 C   0  0  0  0  0  0  0  0  0  0  0  0
   -4.6774   -3.4407   12.4718 C   0  0  0  0  0  0  0  0  0  0  0  0
   -5.1524   -3.7345   11.0670 C   0  0  0  0  0  0  0  0  0  0  0  0
   -3.9262   -4.4808   10.5254 C   0  0  0  0  0  0  0  0  0  0  0  0
   -5.0360   -2.3764   10.3437 C   0  0  0  0  0  0  0  0  0  0  0  0
   -3.8373   -1.2883    2.0149 C   0  0  0  0  0  0  0  0  0  0  0  0
   -2.8922   -0.2614    2.1796 C   0  0  0  0  0  0  0  0  0  0  0  0
   -2.4776    0.3396    3.3479 N   0  0  0  0  0  0  0  0  0  0  0  0
   -1.1608    0.8695    3.3830 C   0  0  0  0  0  0  0  0  0  0  0  0
   -0.0778    0.0929    2.9721 C   0  0  0  0  0  0  0  0  0  0  0  0
    1.2032    0.5853    3.0654 C   0  0  0  0  0  0  0  0  0  0  0  0
    1.4332    1.8646    3.5677 C   0  0  0  0  0  0  0  0  0  0  0  0
    3.1149    2.3743    3.6837 S   0  0  0  0  0  0  0  0  0  0  0  0
    3.0492    3.8395    4.7529 C   0  0  0  0  0  0  0  0  0  0  0  0
    0.3538    2.6585    3.9365 C   0  0  0  0  0  0  0  0  0  0  0  0
   -0.9316    2.1608    3.8457 C   0  0  0  0  0  0  0  0  0  0  0  0
   -3.2988    0.5400    4.4586 C   0  0  0  0  0  0  0  0  0  0  0  0
   -2.7331    0.6462    5.7346 C   0  0  0  0  0  0  0  0  0  0  0  0
   -3.5321    0.8084    6.8411 C   0  0  0  0  0  0  0  0  0  0  0  0
   -4.9204    0.8466    6.7150 C   0  0  0  0  0  0  0  0  0  0  0  0
   -5.8505    0.9522    8.2052 S   0  0  0  0  0  0  0  0  0  0  0  0
   -7.5483    0.5992    7.6679 C   0  0  0  0  0  0  0  0  0  0  0  0
   -5.4860    0.7969    5.4478 C   0  0  0  0  0  0  0  0  0  0  0  0
   -4.6823    0.6532    4.3344 C   0  0  0  0  0  0  0  0  0  0  0  0
   -2.3559    0.1200    0.9257 C   0  0  0  0  0  0  0  0  0  0  0  0
   -1.2257    1.3366    0.4236 S   0  0  0  0  0  0  0  0  0  0  0  0
   -1.2784    0.7230   -1.2185 C   0  0  0  0  0  0  0  0  0  0  0  0
   -2.1840   -0.3086   -1.3732 C   0  0  0  0  0  0  0  0  0  0  0  0
   -2.3937   -0.9610   -2.5787 N   0  0  0  0  0  0  0  0  0  0  0  0
   -2.4724   -2.3572   -2.5947 C   0  0  0  0  0  0  0  0  0  0  0  0
   -3.2966   -3.0152   -3.5030 C   0  0  0  0  0  0  0  0  0  0  0  0
   -3.3797   -4.3939   -3.5125 C   0  0  0  0  0  0  0  0  0  0  0  0
   -2.6517   -5.1401   -2.5968 C   0  0  0  0  0  0  0  0  0  0  0  0
   -2.6721   -6.9040   -2.5073 S   0  0  0  0  0  0  0  0  0  0  0  0
   -3.9587   -7.3881   -3.6921 C   0  0  0  0  0  0  0  0  0  0  0  0
   -1.8310   -4.4849   -1.6815 C   0  0  0  0  0  0  0  0  0  0  0  0
   -1.7321   -3.1124   -1.6831 C   0  0  0  0  0  0  0  0  0  0  0  0
   -2.6211   -0.2032   -3.7355 C   0  0  0  0  0  0  0  0  0  0  0  0
   -3.4407    0.9220   -3.6837 C   0  0  0  0  0  0  0  0  0  0  0  0
   -3.7469    1.6194   -4.8336 C   0  0  0  0  0  0  0  0  0  0  0  0
   -3.2239    1.2083   -6.0517 C   0  0  0  0  0  0  0  0  0  0  0  0
   -3.6190    2.0266   -7.5713 S   0  0  0  0  0  0  0  0  0  0  0  0
   -5.3579    2.4931   -7.3043 C   0  0  0  0  0  0  0  0  0  0  0  0
   -2.3553    0.1233   -6.1009 C   0  0  0  0  0  0  0  0  0  0  0  0
   -2.0584   -0.5805   -4.9536 C   0  0  0  0  0  0  0  0  0  0  0  0
   -2.8250   -0.6163   -0.1519 C   0  0  0  0  0  0  0  0  0  0  0  0
   -4.0544   -1.7224    0.3149 S   0  0  0  0  0  0  0  0  0  0  0  0
   -0.2099    1.0263   -2.1270 C   0  0  0  0  0  0  0  0  0  0  0  0
    0.3553    2.2299   -2.4788 C   0  0  0  0  0  0  0  0  0  0  0  0
   -0.2341    3.4679   -2.1714 N   0  0  0  0  0  0  0  0  0  0  0  0
   -1.2293    3.9395   -3.0401 C   0  0  0  0  0  0  0  0  0  0  0  0
   -2.3785    4.5537   -2.5423 C   0  0  0  0  0  0  0  0  0  0  0  0
   -3.3189    5.0692   -3.4065 C   0  0  0  0  0  0  0  0  0  0  0  0
   -3.1385    4.9718   -4.7843 C   0  0  0  0  0  0  0  0  0  0  0  0
   -4.3887    5.6909   -5.8104 S   0  0  0  0  0  0  0  0  0  0  0  0
   -3.5758    5.8303   -7.4282 C   0  0  0  0  0  0  0  0  0  0  0  0
   -2.0280    4.3081   -5.2845 C   0  0  0  0  0  0  0  0  0  0  0  0
   -1.0854    3.7937   -4.4168 C   0  0  0  0  0  0  0  0  0  0  0  0
    0.2858    4.2256   -1.1284 C   0  0  0  0  0  0  0  0  0  0  0  0
    1.0897    3.6252   -0.1558 C   0  0  0  0  0  0  0  0  0  0  0  0
    1.5980    4.3654    0.8875 C   0  0  0  0  0  0  0  0  0  0  0  0
    1.3111    5.7213    0.9984 C   0  0  0  0  0  0  0  0  0  0  0  0
    1.9464    6.5704    2.4180 S   0  0  0  0  0  0  0  0  0  0  0  0
    1.8201    8.3227    1.9664 C   0  0  0  0  0  0  0  0  0  0  0  0
    0.5385    6.3329    0.0228 C   0  0  0  0  0  0  0  0  0  0  0  0
    0.0469    5.5964   -1.0362 C   0  0  0  0  0  0  0  0  0  0  0  0
    1.5765    2.0441   -3.1709 C   0  0  0  0  0  0  0  0  0  0  0  0
    2.7334    3.0937   -3.9106 S   0  0  0  0  0  0  0  0  0  0  0  0
    3.7742    1.7092   -4.2841 C   0  0  0  0  0  0  0  0  0  0  0  0
    3.2124    0.4921   -3.8827 C   0  0  0  0  0  0  0  0  0  0  0  0
    3.7725   -0.7673   -3.8940 N   0  0  0  0  0  0  0  0  0  0  0  0
    3.5238   -1.4752   -2.6847 C   0  0  0  0  0  0  0  0  0  0  0  0
    3.8673   -0.8568   -1.4822 C   0  0  0  0  0  0  0  0  0  0  0  0
    3.4874   -1.4133   -0.2845 C   0  0  0  0  0  0  0  0  0  0  0  0
    2.7541   -2.6010   -0.2607 C   0  0  0  0  0  0  0  0  0  0  0  0
    2.2530   -3.1529    1.3348 S   0  0  0  0  0  0  0  0  0  0  0  0
    1.2121   -4.5977    1.0036 C   0  0  0  0  0  0  0  0  0  0  0  0
    2.4662   -3.2501   -1.4559 C   0  0  0  0  0  0  0  0  0  0  0  0
    2.8510   -2.6893   -2.6622 C   0  0  0  0  0  0  0  0  0  0  0  0
    4.6475   -1.2517   -4.8514 C   0  0  0  0  0  0  0  0  0  0  0  0
    4.6626   -0.7267   -6.1441 C   0  0  0  0  0  0  0  0  0  0  0  0
    5.5863   -1.1588   -7.0711 C   0  0  0  0  0  0  0  0  0  0  0  0
    6.4913   -2.1602   -6.7398 C   0  0  0  0  0  0  0  0  0  0  0  0
    7.7717   -2.7325   -7.8143 S   0  0  0  0  0  0  0  0  0  0  0  0
    7.4961   -1.8234   -9.3617 C   0  0  0  0  0  0  0  0  0  0  0  0
    6.4088   -2.7639   -5.4868 C   0  0  0  0  0  0  0  0  0  0  0  0
    5.5099   -2.3096   -4.5491 C   0  0  0  0  0  0  0  0  0  0  0  0
    1.9485    0.7137   -3.2876 C   0  0  0  0  0  0  0  0  0  0  0  0
    0.7420   -0.3492   -2.6575 S   0  0  0  0  0  0  0  0  0  0  0  0
    5.0021    1.8787   -4.8664 C   0  0  0  0  0  0  0  0  0  0  0  0
    6.0971    1.9235   -5.4051 C   0  0  0  0  0  0  0  0  0  0  0  0
    7.2800    1.8210   -6.0968 C   0  0  0  0  0  0  0  0  0  0  0  0
    8.0804    0.7188   -5.9424 C   0  0  0  0  0  0  0  0  0  0  0  0
    7.9279   -0.2165   -4.8058 C   0  0  0  0  0  0  0  0  0  0  0  0
    7.0687   -0.1972   -3.9468 O   0  0  0  0  0  0  0  0  0  0  0  0
    9.0836   -1.1299   -4.8940 C   0  0  0  0  0  0  0  0  0  0  0  0
    9.4342   -2.1689   -4.0552 C   0  0  0  0  0  0  0  0  0  0  0  0
   10.5740   -2.9005   -4.3569 C   0  0  0  0  0  0  0  0  0  0  0  0
   11.3421   -2.5834   -5.4679 C   0  0  0  0  0  0  0  0  0  0  0  0
   10.9981   -1.5356   -6.3108 C   0  0  0  0  0  0  0  0  0  0  0  0
    9.8559   -0.8058   -6.0235 C   0  0  0  0  0  0  0  0  0  0  0  0
    9.2300    0.3178   -6.7164 C   0  0  0  0  0  0  0  0  0  0  0  0
    9.5988    0.8146   -7.9407 C   0  0  0  0  0  0  0  0  0  0  0  0
    8.8827    1.8129   -8.6311 C   0  0  0  0  0  0  0  0  0  0  0  0
    8.3100    2.5896   -9.2546 N   0  0  0  0  0  0  0  0  0  0  0  0
   10.6924    0.3466   -8.6963 C   0  0  0  0  0  0  0  0  0  0  0  0
   11.5642    0.0155   -9.3661 N   0  0  0  0  0  0  0  0  0  0  0  0
   -5.5874   -2.3611    2.5173 H   0  0  0  0  0  0  0  0  0  0  0  0
   -6.8397   -2.7332    7.7085 H   0  0  0  0  0  0  0  0  0  0  0  0
   -1.8336   -1.9708    7.5855 H   0  0  0  0  0  0  0  0  0  0  0  0
   -3.0897   -1.2198   10.6910 H   0  0  0  0  0  0  0  0  0  0  0  0
   -1.8763   -3.5914   10.8064 H   0  0  0  0  0  0  0  0  0  0  0  0
   -2.7048   -2.9636   13.2200 H   0  0  0  0  0  0  0  0  0  0  0  0
   -5.3307   -3.3525   13.3200 H   0  0  0  0  0  0  0  0  0  0  0  0
   -6.1188   -4.2221   10.9699 H   0  0  0  0  0  0  0  0  0  0  0  0
   -3.7659   -5.4316   11.0312 H   0  0  0  0  0  0  0  0  0  0  0  0
   -3.9430   -4.6397    9.4487 H   0  0  0  0  0  0  0  0  0  0  0  0
   -5.6589   -1.5998   10.7830 H   0  0  0  0  0  0  0  0  0  0  0  0
   -0.2350   -0.9023    2.5881 H   0  0  0  0  0  0  0  0  0  0  0  0
    2.0381   -0.0299    2.7689 H   0  0  0  0  0  0  0  0  0  0  0  0
    2.5072    3.5979    5.6620 H   0  0  0  0  0  0  0  0  0  0  0  0
    2.5962    4.6751    4.2268 H   0  0  0  0  0  0  0  0  0  0  0  0
    4.0827    4.0741    4.9879 H   0  0  0  0  0  0  0  0  0  0  0  0
    0.5006    3.6669    4.2876 H   0  0  0  0  0  0  0  0  0  0  0  0
   -1.7673    2.7784    4.1410 H   0  0  0  0  0  0  0  0  0  0  0  0
   -1.6626    0.5743    5.8536 H   0  0  0  0  0  0  0  0  0  0  0  0
   -3.0924    0.8775    7.8238 H   0  0  0  0  0  0  0  0  0  0  0  0
   -7.9488    1.4411    7.1105 H   0  0  0  0  0  0  0  0  0  0  0  0
   -8.1220    0.4573    8.5784 H   0  0  0  0  0  0  0  0  0  0  0  0
   -7.5594   -0.3095    7.0738 H   0  0  0  0  0  0  0  0  0  0  0  0
   -6.5522    0.8681    5.3087 H   0  0  0  0  0  0  0  0  0  0  0  0
   -5.1382    0.6345    3.3564 H   0  0  0  0  0  0  0  0  0  0  0  0
   -3.8824   -2.4423   -4.2063 H   0  0  0  0  0  0  0  0  0  0  0  0
   -4.0256   -4.8691   -4.2331 H   0  0  0  0  0  0  0  0  0  0  0  0
   -3.6588   -7.1220   -4.7017 H   0  0  0  0  0  0  0  0  0  0  0  0
   -4.9015   -6.9213   -3.4226 H   0  0  0  0  0  0  0  0  0  0  0  0
   -4.0429   -8.4670   -3.6067 H   0  0  0  0  0  0  0  0  0  0  0  0
   -1.2752   -5.0756   -0.9697 H   0  0  0  0  0  0  0  0  0  0  0  0
   -1.0825   -2.6155   -0.9780 H   0  0  0  0  0  0  0  0  0  0  0  0
   -3.8591    1.2364   -2.7390 H   0  0  0  0  0  0  0  0  0  0  0  0
   -4.4038    2.4720   -4.7742 H   0  0  0  0  0  0  0  0  0  0  0  0
   -5.8868    1.6480   -6.8752 H   0  0  0  0  0  0  0  0  0  0  0  0
   -5.4293    3.3652   -6.6608 H   0  0  0  0  0  0  0  0  0  0  0  0
   -5.7590    2.7264   -8.2855 H   0  0  0  0  0  0  0  0  0  0  0  0
   -1.9296   -0.1703   -7.0482 H   0  0  0  0  0  0  0  0  0  0  0  0
   -1.4041   -1.4385   -4.9923 H   0  0  0  0  0  0  0  0  0  0  0  0
   -2.5193    4.6323   -1.4747 H   0  0  0  0  0  0  0  0  0  0  0  0
   -4.2031    5.5572   -3.0248 H   0  0  0  0  0  0  0  0  0  0  0  0
   -4.2485    6.4185   -8.0446 H   0  0  0  0  0  0  0  0  0  0  0  0
   -2.6291    6.3486   -7.3096 H   0  0  0  0  0  0  0  0  0  0  0  0
   -3.4344    4.8478   -7.8697 H   0  0  0  0  0  0  0  0  0  0  0  0
   -1.8815    4.1868   -6.3452 H   0  0  0  0  0  0  0  0  0  0  0  0
   -0.2194    3.2905   -4.8188 H   0  0  0  0  0  0  0  0  0  0  0  0
    1.3220    2.5726   -0.2151 H   0  0  0  0  0  0  0  0  0  0  0  0
    2.2261    3.8910    1.6235 H   0  0  0  0  0  0  0  0  0  0  0  0
    2.2855    8.4813    0.9982 H   0  0  0  0  0  0  0  0  0  0  0  0
    0.7800    8.6367    1.9610 H   0  0  0  0  0  0  0  0  0  0  0  0
    2.3628    8.8657    2.7339 H   0  0  0  0  0  0  0  0  0  0  0  0
    0.3155    7.3873    0.0663 H   0  0  0  0  0  0  0  0  0  0  0  0
   -0.5260    6.0966   -1.8017 H   0  0  0  0  0  0  0  0  0  0  0  0
    4.4240    0.0682   -1.5047 H   0  0  0  0  0  0  0  0  0  0  0  0
    3.7384   -0.9308    0.6476 H   0  0  0  0  0  0  0  0  0  0  0  0
    0.3591   -4.2987    0.4040 H   0  0  0  0  0  0  0  0  0  0  0  0
    0.8684   -4.9359    1.9762 H   0  0  0  0  0  0  0  0  0  0  0  0
    1.7933   -5.3790    0.5224 H   0  0  0  0  0  0  0  0  0  0  0  0
    1.9201   -4.1794   -1.4659 H   0  0  0  0  0  0  0  0  0  0  0  0
    2.6013   -3.1818   -3.5902 H   0  0  0  0  0  0  0  0  0  0  0  0
    3.9535    0.0359   -6.4257 H   0  0  0  0  0  0  0  0  0  0  0  0
    5.5888   -0.7057   -8.0495 H   0  0  0  0  0  0  0  0  0  0  0  0
    6.5324   -2.0939   -9.7833 H   0  0  0  0  0  0  0  0  0  0  0  0
    8.2936   -2.1372  -10.0283 H   0  0  0  0  0  0  0  0  0  0  0  0
    7.5614   -0.7523   -9.1925 H   0  0  0  0  0  0  0  0  0  0  0  0
    7.0866   -3.5695   -5.2488 H   0  0  0  0  0  0  0  0  0  0  0  0
    5.4898   -2.7506   -3.5651 H   0  0  0  0  0  0  0  0  0  0  0  0
    7.5419    2.6220   -6.7754 H   0  0  0  0  0  0  0  0  0  0  0  0
    8.8241   -2.3961   -3.1944 H   0  0  0  0  0  0  0  0  0  0  0  0
   10.8671   -3.7242   -3.7231 H   0  0  0  0  0  0  0  0  0  0  0  0
   12.2274   -3.1622   -5.6848 H   0  0  0  0  0  0  0  0  0  0  0  0
   11.6145   -1.3059   -7.1648 H   0  0  0  0  0  0  0  0  0  0  0  0
  1  2  2  0  0  0  0
  2  3  1  0  0  0  0
  3  4  2  0  0  0  0
  3  5  1  0  0  0  0
  5  6  2  0  0  0  0
  6  7  1  0  0  0  0
  7  8  2  0  0  0  0
  8  9  1  0  0  0  0
  9 10  2  0  0  0  0
 10 11  1  0  0  0  0
 11 12  2  0  0  0  0
 12 13  1  0  0  0  0
 13 14  3  0  0  0  0
 12 15  1  0  0  0  0
 15 16  3  0  0  0  0
  8 17  1  0  0  0  0
 17 18  1  0  0  0  0
 18 19  1  0  0  0  0
 19 20  2  0  0  0  0
 20 21  1  0  0  0  0
 21 22  1  0  0  0  0
 21 23  1  0  0  0  0
  1 24  1  0  0  0  0
 24 25  2  0  0  0  0
 25 26  1  0  0  0  0
 26 27  1  0  0  0  0
 27 28  2  0  0  0  0
 28 29  1  0  0  0  0
 29 30  2  0  0  0  0
 30 31  1  0  0  0  0
 31 32  1  0  0  0  0
 30 33  1  0  0  0  0
 33 34  2  0  0  0  0
 26 35  1  0  0  0  0
 35 36  2  0  0  0  0
 36 37  1  0  0  0  0
 37 38  2  0  0  0  0
 38 39  1  0  0  0  0
 39 40  1  0  0  0  0
 38 41  1  0  0  0  0
 41 42  2  0  0  0  0
 25 43  1  0  0  0  0
 43 44  1  0  0  0  0
 44 45  1  0  0  0  0
 45 46  2  0  0  0  0
 46 47  1  0  0  0  0
 47 48  1  0  0  0  0
 48 49  2  0  0  0  0
 49 50  1  0  0  0  0
 50 51  2  0  0  0  0
 51 52  1  0  0  0  0
 52 53  1  0  0  0  0
 51 54  1  0  0  0  0
 54 55  2  0  0  0  0
 47 56  1  0  0  0  0
 56 57  2  0  0  0  0
 57 58  1  0  0  0  0
 58 59  2  0  0  0  0
 59 60  1  0  0  0  0
 60 61  1  0  0  0  0
 59 62  1  0  0  0  0
 62 63  2  0  0  0  0
 46 64  1  0  0  0  0
 64 65  1  0  0  0  0
 45 66  1  0  0  0  0
 66 67  2  0  0  0  0
 67 68  1  0  0  0  0
 68 69  1  0  0  0  0
 69 70  2  0  0  0  0
 70 71  1  0  0  0  0
 71 72  2  0  0  0  0
 72 73  1  0  0  0  0
 73 74  1  0  0  0  0
 72 75  1  0  0  0  0
 75 76  2  0  0  0  0
 68 77  1  0  0  0  0
 77 78  2  0  0  0  0
 78 79  1  0  0  0  0
 79 80  2  0  0  0  0
 80 81  1  0  0  0  0
 81 82  1  0  0  0  0
 80 83  1  0  0  0  0
 83 84  2  0  0  0  0
 67 85  1  0  0  0  0
 85 86  1  0  0  0  0
 86 87  1  0  0  0  0
 87 88  2  0  0  0  0
 88 89  1  0  0  0  0
 89 90  1  0  0  0  0
 90 91  2  0  0  0  0
 91 92  1  0  0  0  0
 92 93  2  0  0  0  0
 93 94  1  0  0  0  0
 94 95  1  0  0  0  0
 93 96  1  0  0  0  0
 96 97  2  0  0  0  0
 89 98  1  0  0  0  0
 98 99  2  0  0  0  0
 99100  1  0  0  0  0
100101  2  0  0  0  0
101102  1  0  0  0  0
102103  1  0  0  0  0
101104  1  0  0  0  0
104105  2  0  0  0  0
 88106  1  0  0  0  0
106107  1  0  0  0  0
 87108  1  0  0  0  0
108109  3  0  0  0  0
109110  1  0  0  0  0
110111  2  0  0  0  0
111112  1  0  0  0  0
112113  2  0  0  0  0
112114  1  0  0  0  0
114115  2  0  0  0  0
115116  1  0  0  0  0
116117  2  0  0  0  0
117118  1  0  0  0  0
118119  2  0  0  0  0
119120  1  0  0  0  0
120121  2  0  0  0  0
121122  1  0  0  0  0
122123  3  0  0  0  0
121124  1  0  0  0  0
124125  3  0  0  0  0
 11  2  1  0  0  0  0
 23 17  1  0  0  0  0
 65 24  1  0  0  0  0
107 66  1  0  0  0  0
120111  1  0  0  0  0
 10  5  1  0  0  0  0
 22 18  1  0  0  0  0
 34 27  1  0  0  0  0
 42 35  1  0  0  0  0
 64 43  2  0  0  0  0
 76 69  1  0  0  0  0
 84 77  1  0  0  0  0
106 85  2  0  0  0  0
119114  1  0  0  0  0
 23  7  1  0  0  0  0
 55 48  1  0  0  0  0
 63 56  1  0  0  0  0
 97 90  1  0  0  0  0
105 98  1  0  0  0  0
  1126  1  0  0  0  0
  6127  1  0  0  0  0
  9128  1  0  0  0  0
 17129  1  0  0  0  0
 18130  1  0  0  0  0
 19131  1  0  0  0  0
 20132  1  0  0  0  0
 21133  1  0  0  0  0
 22134  1  0  0  0  0
 22135  1  0  0  0  0
 23136  1  0  0  0  0
 28137  1  0  0  0  0
 29138  1  0  0  0  0
 32139  1  0  0  0  0
 32140  1  0  0  0  0
 32141  1  0  0  0  0
 33142  1  0  0  0  0
 34143  1  0  0  0  0
 36144  1  0  0  0  0
 37145  1  0  0  0  0
 40146  1  0  0  0  0
 40147  1  0  0  0  0
 40148  1  0  0  0  0
 41149  1  0  0  0  0
 42150  1  0  0  0  0
 49151  1  0  0  0  0
 50152  1  0  0  0  0
 53153  1  0  0  0  0
 53154  1  0  0  0  0
 53155  1  0  0  0  0
 54156  1  0  0  0  0
 55157  1  0  0  0  0
 57158  1  0  0  0  0
 58159  1  0  0  0  0
 61160  1  0  0  0  0
 61161  1  0  0  0  0
 61162  1  0  0  0  0
 62163  1  0  0  0  0
 63164  1  0  0  0  0
 70165  1  0  0  0  0
 71166  1  0  0  0  0
 74167  1  0  0  0  0
 74168  1  0  0  0  0
 74169  1  0  0  0  0
 75170  1  0  0  0  0
 76171  1  0  0  0  0
 78172  1  0  0  0  0
 79173  1  0  0  0  0
 82174  1  0  0  0  0
 82175  1  0  0  0  0
 82176  1  0  0  0  0
 83177  1  0  0  0  0
 84178  1  0  0  0  0
 91179  1  0  0  0  0
 92180  1  0  0  0  0
 95181  1  0  0  0  0
 95182  1  0  0  0  0
 95183  1  0  0  0  0
 96184  1  0  0  0  0
 97185  1  0  0  0  0
 99186  1  0  0  0  0
100187  1  0  0  0  0
103188  1  0  0  0  0
103189  1  0  0  0  0
103190  1  0  0  0  0
104191  1  0  0  0  0
105192  1  0  0  0  0
110193  1  0  0  0  0
115194  1  0  0  0  0
116195  1  0  0  0  0
117196  1  0  0  0  0
118197  1  0  0  0  0
M  END
