160

C         -3.79930        2.91190       -5.30780
C         -3.61400        3.62100       -6.45660
C         -2.46540        3.63120       -7.39900
O         -1.35980        3.15100       -7.26070
C         -2.93610        4.34220       -8.60060
C         -2.22300        4.52580       -9.78350
C         -2.91960        5.19930      -10.75720
C         -4.23020        5.66000      -10.56760
C         -4.93940        5.49640       -9.40180
C         -4.24840        4.81120       -8.39670
C         -4.66320        4.44440       -7.04750
C         -5.81140        4.86820       -6.43190
C         -6.77970        5.69660       -7.03990
N         -7.60980        6.36790       -7.46280
C         -6.20420        4.60370       -5.10290
N         -6.63120        4.48500       -4.04190
C         -4.31620        6.22910      -11.96170
C         -5.11530        5.43000      -13.02080
C         -5.06800        3.98380      -12.59370
C         -3.82780        3.54900      -12.77240
C         -3.01350        4.69380      -13.32330
C         -4.08500        5.40900      -14.16160
C         -2.85580        5.71800      -12.17180
C         -2.95280        2.07240       -4.52620
C         -1.58770        1.85750       -4.68020
C         -0.85810        1.10690       -3.76740
F          0.47000        1.00730       -3.98010
C         -1.37940        0.54550       -2.60550
C         -2.79070        0.64300       -2.48680
C         -3.56510        1.40110       -3.42690
N         -4.86340        1.35920       -3.14390
S         -5.08870        0.44250       -1.84280
N         -3.55220        0.05750       -1.56480
C         -0.58810       -0.05260       -1.57220
C         -0.77480        0.08200       -0.19560
N         -1.60040        1.00110        0.40890
C         -2.03060        0.78370        1.72660
C         -2.49390       -0.46880        2.12920
C         -2.86120       -0.68020        3.43940
C         -2.78040        0.35240        4.37190
S         -3.21940       -0.05180        6.03230
C         -3.11230        1.53230        6.91570
C         -2.35710        1.61120        3.96450
C         -1.98700        1.82260        2.65120
C         -1.98560        2.18480       -0.24290
C         -1.08910        2.89550       -1.04240
C         -1.51620        3.98820       -1.76240
C         -2.84420        4.40810       -1.69500
S         -3.29790        5.76410       -2.72620
C         -4.90450        6.28930       -2.06310
C         -3.72320        3.74650       -0.84740
C         -3.29140        2.65230       -0.12190
C          0.11810       -0.76010        0.51270
S          0.42070       -1.05730        2.19870
C          1.67720       -2.20390        1.77540
C          1.97190       -2.20200        0.40290
N          3.11000       -2.71790       -0.16530
C          3.10000       -3.13000       -1.50450
C          4.18530       -2.84920       -2.33580
C          4.16780       -3.24970       -3.65100
C          3.06870       -3.93640       -4.16890
S          3.16450       -4.39280       -5.86710
C          1.52530       -5.08390       -6.22900
C          1.99360       -4.22900       -3.33980
C          2.01200       -3.83020       -2.01790
C          4.30370       -2.79150        0.57360
C          4.62900       -1.80250        1.49910
C          5.71610       -1.95320        2.33440
C          6.50940       -3.09240        2.24890
S          7.84170       -3.43140        3.34800
C          7.42940       -2.42590        4.80150
C          6.24680       -4.03150        1.25280
C          5.15770       -3.88530        0.42420
C          1.01900       -1.42970       -0.30310
S          0.78330       -1.06690       -1.97630
C          2.27480       -2.98020        2.80370
C          2.88290       -4.22210        2.59530
F          2.71890       -4.85780        1.41760
C          3.58910       -4.86790        3.59780
F          4.17470       -6.04200        3.31420
C          3.65110       -4.38870        4.90640
C          2.94460       -3.18140        5.17950
N          2.99640       -2.63490        6.40970
C          2.28700       -1.56340        6.65090
O          2.29640       -0.99510        7.85610
C          3.02410       -1.64920        8.89030
C          4.53270       -1.50780        8.74400
C          1.47370       -0.95230        5.63880
N          1.52050       -1.41780        4.42430
C          2.24770       -2.51540        4.15060
C          0.58310        0.19550        5.95220
C          4.40340       -5.06410        5.91730
C          3.99210       -5.17510        7.21320
C          2.57310       -5.05250        7.63330
O          1.60150       -4.85520        6.94060
C          2.56680       -5.38870        9.07870
C          3.86090       -5.76510        9.48290
C          4.08820       -6.17450       10.78750
C          3.02340       -6.18100       11.67670
C          1.75490       -5.78520       11.28080
Br         0.35390       -5.78140       12.54960
C          1.50030       -5.38820        9.96340
Cl        -0.06370       -4.89370        9.46750
C          4.77000       -5.60590        8.35100
C          6.13580       -5.72040        8.40600
C          7.00900       -5.39120        7.34950
N          7.79720       -5.09750        6.56790
C          6.85460       -6.12270        9.54990
N          7.49200       -6.44690       10.44830
H         -4.79410        2.96210       -4.87870
H         -1.21550        4.15340       -9.88490
H         -5.94660        5.85590       -9.27430
H         -4.49620        7.30010      -12.02760
H         -6.09980        5.83320      -13.24200
H         -5.90180        3.45830      -12.16590
H         -3.41790        2.58760      -12.52350
H         -2.08470        4.42650      -13.82040
H         -3.78490        6.40190      -14.49410
H         -4.41450        4.81910      -15.01560
H         -2.08180        6.45540      -12.37600
H         -1.05700        2.30590       -5.50560
H         -2.56830       -1.26440        1.40420
H         -3.21300       -1.64890        3.75890
H         -2.08880        1.89710        6.91220
H         -3.79100        2.25250        6.46840
H         -3.42290        1.31830        7.93400
H         -2.29670        2.43250        4.66020
H         -1.64520        2.79890        2.33980
H         -0.05740        2.58300       -1.10150
H         -0.82700        4.52950       -2.39180
H         -5.67130        5.56630       -2.32900
H         -5.12000        7.24000       -2.54120
H         -4.82640        6.42470       -0.98870
H         -4.75240        4.05610       -0.76540
H         -3.98240        2.12870        0.52310
H          5.03310       -2.30810       -1.94350
H          5.00100       -3.02900       -4.30010
H          1.53060       -5.30700       -7.29130
H          0.75940       -4.34590       -6.01000
H          1.37030       -5.99800       -5.66320
H          1.13950       -4.77530       -3.70530
H          1.18590       -4.08050       -1.36950
H          4.01510       -0.91760        1.57990
H          5.93870       -1.17690        3.04880
H          7.68630       -1.38380        4.63310
H          8.02730       -2.83400        5.61050
H          6.37300       -2.54040        5.03050
H          6.88540       -4.89640        1.16590
H          4.92740       -4.64350       -0.30810
H          2.74610       -2.70800        8.90430
H          2.67810       -1.16800        9.80810
H          4.80850       -0.45810        8.68050
H          4.87240       -2.01980        7.84740
H          5.02020       -1.94860        9.60900
H          0.19420        0.61560        5.02860
H         -0.24740       -0.15950        6.56280
H          1.12290        0.94710        6.52450
H          5.33820       -5.51480        5.60530
H          5.06250       -6.48890       11.12220
H          3.17900       -6.49400       12.69760
