
  xtb     02132216043D
 energy: -366.346311005938 gnorm: 0.007311595835 xtb: 6.4.1 (unknown)
222245  0     0  0            999 V2000
    4.0261    0.5319   -7.9256 C   0  0  0  0  0  0  0  0  0  0  0  0
    5.3591    0.8827   -7.8640 C   0  0  0  0  0  0  0  0  0  0  0  0
    6.1921    0.9923   -6.6544 C   0  0  0  0  0  0  0  0  0  0  0  0
    5.8499    1.1091   -5.4893 O   0  0  0  0  0  0  0  0  0  0  0  0
    7.5910    0.9149   -7.1117 C   0  0  0  0  0  0  0  0  0  0  0  0
    8.7232    0.8896   -6.3017 C   0  0  0  0  0  0  0  0  0  0  0  0
    9.9030    0.8483   -7.0044 C   0  0  0  0  0  0  0  0  0  0  0  0
    9.9522    0.8372   -8.4048 C   0  0  0  0  0  0  0  0  0  0  0  0
    8.8391    0.8645   -9.2123 C   0  0  0  0  0  0  0  0  0  0  0  0
    7.6257    0.8966   -8.5182 C   0  0  0  0  0  0  0  0  0  0  0  0
    6.2474    0.9566   -9.0026 C   0  0  0  0  0  0  0  0  0  0  0  0
    5.8719    1.1853  -10.3042 C   0  0  0  0  0  0  0  0  0  0  0  0
    4.5701    1.5321  -10.7014 C   0  0  0  0  0  0  0  0  0  0  0  0
    3.5615    1.9160  -11.0979 N   0  0  0  0  0  0  0  0  0  0  0  0
    6.7641    1.2335  -11.3934 C   0  0  0  0  0  0  0  0  0  0  0  0
    7.4370    1.2689  -12.3242 N   0  0  0  0  0  0  0  0  0  0  0  0
   11.4614    0.8045   -8.4295 C   0  0  0  0  0  0  0  0  0  0  0  0
   12.1248   -0.5537   -8.7381 C   0  0  0  0  0  0  0  0  0  0  0  0
   13.5365   -0.3936   -8.2210 C   0  0  0  0  0  0  0  0  0  0  0  0
   13.4831   -0.3901   -6.8950 C   0  0  0  0  0  0  0  0  0  0  0  0
   12.0341   -0.5440   -6.4936 C   0  0  0  0  0  0  0  0  0  0  0  0
   11.5384   -1.4429   -7.6338 C   0  0  0  0  0  0  0  0  0  0  0  0
   11.4038    0.8137   -6.8677 C   0  0  0  0  0  0  0  0  0  0  0  0
    3.0921    0.4782   -6.8810 C   0  0  0  0  0  0  0  0  0  0  0  0
    1.8792   -0.2539   -6.8421 C   0  0  0  0  0  0  0  0  0  0  0  0
    1.4212   -1.1324   -7.7969 N   0  0  0  0  0  0  0  0  0  0  0  0
    0.8505   -2.3431   -7.3719 C   0  0  0  0  0  0  0  0  0  0  0  0
   -0.2638   -2.8759   -8.0122 C   0  0  0  0  0  0  0  0  0  0  0  0
   -0.8086   -4.0768   -7.5983 C   0  0  0  0  0  0  0  0  0  0  0  0
   -0.2502   -4.7634   -6.5288 C   0  0  0  0  0  0  0  0  0  0  0  0
   -0.8394   -6.3052   -5.9082 S   0  0  0  0  0  0  0  0  0  0  0  0
   -2.2985   -6.6707   -6.9219 C   0  0  0  0  0  0  0  0  0  0  0  0
    0.8642   -4.2300   -5.8820 C   0  0  0  0  0  0  0  0  0  0  0  0
    1.4113   -3.0397   -6.2992 C   0  0  0  0  0  0  0  0  0  0  0  0
    1.4349   -0.8212   -9.1641 C   0  0  0  0  0  0  0  0  0  0  0  0
    1.7411   -1.8057  -10.1043 C   0  0  0  0  0  0  0  0  0  0  0  0
    1.7330   -1.5027  -11.4466 C   0  0  0  0  0  0  0  0  0  0  0  0
    1.4169   -0.2157  -11.8790 C   0  0  0  0  0  0  0  0  0  0  0  0
    1.4385    0.0689  -13.6145 S   0  0  0  0  0  0  0  0  0  0  0  0
    1.5653    1.8743  -13.7288 C   0  0  0  0  0  0  0  0  0  0  0  0
    1.0908    0.7608  -10.9442 C   0  0  0  0  0  0  0  0  0  0  0  0
    1.1061    0.4599   -9.5981 C   0  0  0  0  0  0  0  0  0  0  0  0
    1.2285   -0.0861   -5.6041 C   0  0  0  0  0  0  0  0  0  0  0  0
   -0.2484   -0.6818   -4.9040 S   0  0  0  0  0  0  0  0  0  0  0  0
    0.1125    0.1498   -3.4059 C   0  0  0  0  0  0  0  0  0  0  0  0
    1.2691    0.9022   -3.4673 C   0  0  0  0  0  0  0  0  0  0  0  0
    1.8032    1.6919   -2.4647 N   0  0  0  0  0  0  0  0  0  0  0  0
    1.0173    2.3243   -1.5051 C   0  0  0  0  0  0  0  0  0  0  0  0
    1.4838    2.4650   -0.1965 C   0  0  0  0  0  0  0  0  0  0  0  0
    0.6646    2.9724    0.7869 C   0  0  0  0  0  0  0  0  0  0  0  0
   -0.6331    3.3718    0.4836 C   0  0  0  0  0  0  0  0  0  0  0  0
   -1.6350    3.9629    1.8127 S   0  0  0  0  0  0  0  0  0  0  0  0
   -3.3188    3.5872    1.2489 C   0  0  0  0  0  0  0  0  0  0  0  0
   -1.0723    3.3210   -0.8324 C   0  0  0  0  0  0  0  0  0  0  0  0
   -0.2547    2.8034   -1.8165 C   0  0  0  0  0  0  0  0  0  0  0  0
    3.2107    1.7049   -2.3720 C   0  0  0  0  0  0  0  0  0  0  0  0
    3.9175    0.5038   -2.4266 C   0  0  0  0  0  0  0  0  0  0  0  0
    5.2941    0.5108   -2.4537 C   0  0  0  0  0  0  0  0  0  0  0  0
    5.9872    1.7170   -2.4250 C   0  0  0  0  0  0  0  0  0  0  0  0
    7.7470    1.6338   -2.5230 S   0  0  0  0  0  0  0  0  0  0  0  0
    8.1980    3.2864   -3.1246 C   0  0  0  0  0  0  0  0  0  0  0  0
    5.2879    2.9107   -2.3111 C   0  0  0  0  0  0  0  0  0  0  0  0
    3.9064    2.9044   -2.2871 C   0  0  0  0  0  0  0  0  0  0  0  0
    1.8898    0.7681   -4.7330 C   0  0  0  0  0  0  0  0  0  0  0  0
    3.3575    1.3633   -5.3814 S   0  0  0  0  0  0  0  0  0  0  0  0
   -0.6875    0.0048   -2.2086 C   0  0  0  0  0  0  0  0  0  0  0  0
   -0.0535   -0.3280   -0.9933 C   0  0  0  0  0  0  0  0  0  0  0  0
    1.2064   -0.7120   -0.7460 N   0  0  0  0  0  0  0  0  0  0  0  0
    1.2254   -0.9360    0.5385 N   0  0  0  0  0  0  0  0  0  0  0  0
    2.4096   -1.3958    1.2087 C   0  0  0  0  0  0  0  0  0  0  0  0
    3.4759   -0.3073    1.2528 C   0  0  0  0  0  0  0  0  0  0  0  0
    0.1115   -0.7463    1.1853 N   0  0  0  0  0  0  0  0  0  0  0  0
   -0.7547   -0.3507    0.2433 C   0  0  0  0  0  0  0  0  0  0  0  0
   -2.1330   -0.0657    0.3219 C   0  0  0  0  0  0  0  0  0  0  0  0
   -2.7277    0.2578   -0.8854 C   0  0  0  0  0  0  0  0  0  0  0  0
   -2.0381    0.2693   -2.1083 C   0  0  0  0  0  0  0  0  0  0  0  0
   -2.7269    0.6223   -3.2085 F   0  0  0  0  0  0  0  0  0  0  0  0
   -4.0200    0.6468   -0.8973 F   0  0  0  0  0  0  0  0  0  0  0  0
   -2.8500   -0.1846    1.5678 C   0  0  0  0  0  0  0  0  0  0  0  0
   -4.0509   -0.8452    1.7845 C   0  0  0  0  0  0  0  0  0  0  0  0
   -4.7702   -1.5353    0.8296 N   0  0  0  0  0  0  0  0  0  0  0  0
   -4.1085   -2.1775   -0.2294 C   0  0  0  0  0  0  0  0  0  0  0  0
   -4.6233   -2.1215   -1.5212 C   0  0  0  0  0  0  0  0  0  0  0  0
   -3.9133   -2.6614   -2.5767 C   0  0  0  0  0  0  0  0  0  0  0  0
   -2.6811   -3.2690   -2.3784 C   0  0  0  0  0  0  0  0  0  0  0  0
   -1.8809   -3.8032   -3.5243 C   0  0  0  0  0  0  0  0  0  0  0  0
   -2.1986   -3.3668   -1.0769 C   0  0  0  0  0  0  0  0  0  0  0  0
   -2.8997   -2.8382   -0.0132 C   0  0  0  0  0  0  0  0  0  0  0  0
   -6.1697   -1.5616    0.9154 C   0  0  0  0  0  0  0  0  0  0  0  0
   -6.8763   -2.7073    0.5613 C   0  0  0  0  0  0  0  0  0  0  0  0
   -8.2529   -2.7266    0.6557 C   0  0  0  0  0  0  0  0  0  0  0  0
   -8.9589   -1.6179    1.1083 C   0  0  0  0  0  0  0  0  0  0  0  0
  -10.4504   -1.6589    1.2391 C   0  0  0  0  0  0  0  0  0  0  0  0
   -8.2451   -0.4781    1.4554 C   0  0  0  0  0  0  0  0  0  0  0  0
   -6.8687   -0.4416    1.3569 C   0  0  0  0  0  0  0  0  0  0  0  0
   -4.3920   -0.8092    3.1596 C   0  0  0  0  0  0  0  0  0  0  0  0
   -5.6553   -1.5249    4.0912 S   0  0  0  0  0  0  0  0  0  0  0  0
   -4.9251   -0.9292    5.5915 C   0  0  0  0  0  0  0  0  0  0  0  0
   -3.7105   -0.2551    5.3496 C   0  0  0  0  0  0  0  0  0  0  0  0
   -2.7969    0.1603    6.2737 N   0  0  0  0  0  0  0  0  0  0  0  0
   -1.9303    1.2238    5.9289 C   0  0  0  0  0  0  0  0  0  0  0  0
   -0.5564    1.0817    6.0762 C   0  0  0  0  0  0  0  0  0  0  0  0
    0.2827    2.1202    5.7166 C   0  0  0  0  0  0  0  0  0  0  0  0
   -0.2268    3.3128    5.2207 C   0  0  0  0  0  0  0  0  0  0  0  0
    0.6721    4.4407    4.8202 C   0  0  0  0  0  0  0  0  0  0  0  0
   -1.6068    3.4501    5.1029 C   0  0  0  0  0  0  0  0  0  0  0  0
   -2.4549    2.4179    5.4437 C   0  0  0  0  0  0  0  0  0  0  0  0
   -2.6281   -0.4566    7.5172 C   0  0  0  0  0  0  0  0  0  0  0  0
   -2.7581   -1.8382    7.6627 C   0  0  0  0  0  0  0  0  0  0  0  0
   -2.6251   -2.4209    8.9043 C   0  0  0  0  0  0  0  0  0  0  0  0
   -2.3612   -1.6540   10.0375 C   0  0  0  0  0  0  0  0  0  0  0  0
   -2.2785   -2.3012   11.3840 C   0  0  0  0  0  0  0  0  0  0  0  0
   -2.1884   -0.2862    9.8775 C   0  0  0  0  0  0  0  0  0  0  0  0
   -2.3145    0.3108    8.6368 C   0  0  0  0  0  0  0  0  0  0  0  0
   -3.4564   -0.1693    3.9591 C   0  0  0  0  0  0  0  0  0  0  0  0
   -2.1100    0.4091    3.0367 S   0  0  0  0  0  0  0  0  0  0  0  0
   -5.5710   -1.2618    6.7861 C   0  0  0  0  0  0  0  0  0  0  0  0
   -5.4207   -0.6185    7.9960 C   0  0  0  0  0  0  0  0  0  0  0  0
   -5.0572    0.8005    8.1328 C   0  0  0  0  0  0  0  0  0  0  0  0
   -4.8291    1.5919    7.2363 O   0  0  0  0  0  0  0  0  0  0  0  0
   -5.1579    1.1048    9.5761 C   0  0  0  0  0  0  0  0  0  0  0  0
   -4.9111    2.3246   10.1966 C   0  0  0  0  0  0  0  0  0  0  0  0
   -5.0623    2.2984   11.5631 C   0  0  0  0  0  0  0  0  0  0  0  0
   -5.4430    1.1464   12.2610 C   0  0  0  0  0  0  0  0  0  0  0  0
   -5.7008   -0.0622   11.6574 C   0  0  0  0  0  0  0  0  0  0  0  0
   -5.5435   -0.0578   10.2704 C   0  0  0  0  0  0  0  0  0  0  0  0
   -5.6915   -1.1445    9.3039 C   0  0  0  0  0  0  0  0  0  0  0  0
   -5.8687   -2.4720    9.6107 C   0  0  0  0  0  0  0  0  0  0  0  0
   -5.8557   -3.5108    8.6601 C   0  0  0  0  0  0  0  0  0  0  0  0
   -5.8202   -4.4098    7.9454 N   0  0  0  0  0  0  0  0  0  0  0  0
   -5.9847   -2.9787   10.9175 C   0  0  0  0  0  0  0  0  0  0  0  0
   -6.0632   -3.4522   11.9620 N   0  0  0  0  0  0  0  0  0  0  0  0
   -5.4147    1.8484   13.5966 C   0  0  0  0  0  0  0  0  0  0  0  0
   -6.7695    2.2543   14.2278 C   0  0  0  0  0  0  0  0  0  0  0  0
   -7.7357    2.4234   13.0833 C   0  0  0  0  0  0  0  0  0  0  0  0
   -7.3822    3.5121   12.4138 C   0  0  0  0  0  0  0  0  0  0  0  0
   -6.1730    4.1004   13.0958 C   0  0  0  0  0  0  0  0  0  0  0  0
   -6.4765    3.7262   14.5549 C   0  0  0  0  0  0  0  0  0  0  0  0
   -4.9959    3.1341   12.8167 C   0  0  0  0  0  0  0  0  0  0  0  0
    3.6601    0.1963   -8.8911 H   0  0  0  0  0  0  0  0  0  0  0  0
    8.6367    0.9044   -5.2260 H   0  0  0  0  0  0  0  0  0  0  0  0
    8.8950    0.8595  -10.2883 H   0  0  0  0  0  0  0  0  0  0  0  0
   11.9440    1.6376   -8.9370 H   0  0  0  0  0  0  0  0  0  0  0  0
   12.0165   -0.8914   -9.7655 H   0  0  0  0  0  0  0  0  0  0  0  0
   14.3938   -0.2480   -8.8519 H   0  0  0  0  0  0  0  0  0  0  0  0
   14.2864   -0.2419   -6.1973 H   0  0  0  0  0  0  0  0  0  0  0  0
   11.8387   -0.8715   -5.4758 H   0  0  0  0  0  0  0  0  0  0  0  0
   11.9996   -2.4288   -7.6112 H   0  0  0  0  0  0  0  0  0  0  0  0
   10.4560   -1.5476   -7.6770 H   0  0  0  0  0  0  0  0  0  0  0  0
   11.8520    1.6509   -6.3353 H   0  0  0  0  0  0  0  0  0  0  0  0
   -0.7094   -2.3449   -8.8399 H   0  0  0  0  0  0  0  0  0  0  0  0
   -1.6717   -4.4613   -8.1175 H   0  0  0  0  0  0  0  0  0  0  0  0
   -3.0418   -5.8886   -6.8002 H   0  0  0  0  0  0  0  0  0  0  0  0
   -2.6881   -7.6104   -6.5399 H   0  0  0  0  0  0  0  0  0  0  0  0
   -2.0113   -6.7885   -7.9629 H   0  0  0  0  0  0  0  0  0  0  0  0
    1.2986   -4.7716   -5.0561 H   0  0  0  0  0  0  0  0  0  0  0  0
    2.2846   -2.6433   -5.8029 H   0  0  0  0  0  0  0  0  0  0  0  0
    1.9951   -2.8007   -9.7702 H   0  0  0  0  0  0  0  0  0  0  0  0
    1.9815   -2.2559  -12.1782 H   0  0  0  0  0  0  0  0  0  0  0  0
    2.3135    2.2156  -13.0198 H   0  0  0  0  0  0  0  0  0  0  0  0
    1.8832    2.0870  -14.7448 H   0  0  0  0  0  0  0  0  0  0  0  0
    0.5975    2.3323  -13.5430 H   0  0  0  0  0  0  0  0  0  0  0  0
    0.8160    1.7543  -11.2542 H   0  0  0  0  0  0  0  0  0  0  0  0
    0.8557    1.2192   -8.8721 H   0  0  0  0  0  0  0  0  0  0  0  0
    2.4857    2.1452    0.0437 H   0  0  0  0  0  0  0  0  0  0  0  0
    1.0114    3.0423    1.8068 H   0  0  0  0  0  0  0  0  0  0  0  0
   -3.9454    3.6179    2.1380 H   0  0  0  0  0  0  0  0  0  0  0  0
   -3.6577    4.3341    0.5344 H   0  0  0  0  0  0  0  0  0  0  0  0
   -3.3412    2.5918    0.8144 H   0  0  0  0  0  0  0  0  0  0  0  0
   -2.0529    3.6813   -1.1004 H   0  0  0  0  0  0  0  0  0  0  0  0
   -0.6048    2.7690   -2.8374 H   0  0  0  0  0  0  0  0  0  0  0  0
    3.3679   -0.4254   -2.4636 H   0  0  0  0  0  0  0  0  0  0  0  0
    5.8473   -0.4130   -2.5193 H   0  0  0  0  0  0  0  0  0  0  0  0
    8.0966    4.0210   -2.3314 H   0  0  0  0  0  0  0  0  0  0  0  0
    9.2381    3.2229   -3.4300 H   0  0  0  0  0  0  0  0  0  0  0  0
    7.5718    3.5340   -3.9767 H   0  0  0  0  0  0  0  0  0  0  0  0
    5.8059    3.8551   -2.2603 H   0  0  0  0  0  0  0  0  0  0  0  0
    3.3604    3.8340   -2.2226 H   0  0  0  0  0  0  0  0  0  0  0  0
    2.7899   -2.2668    0.6683 H   0  0  0  0  0  0  0  0  0  0  0  0
    2.1031   -1.6862    2.2146 H   0  0  0  0  0  0  0  0  0  0  0  0
    3.1109    0.5541    1.8074 H   0  0  0  0  0  0  0  0  0  0  0  0
    3.7385   -0.0006    0.2430 H   0  0  0  0  0  0  0  0  0  0  0  0
    4.3669   -0.6874    1.7450 H   0  0  0  0  0  0  0  0  0  0  0  0
   -5.5636   -1.6210   -1.6961 H   0  0  0  0  0  0  0  0  0  0  0  0
   -4.3153   -2.5834   -3.5763 H   0  0  0  0  0  0  0  0  0  0  0  0
   -0.9037   -3.3233   -3.5621 H   0  0  0  0  0  0  0  0  0  0  0  0
   -1.7191   -4.8751   -3.4159 H   0  0  0  0  0  0  0  0  0  0  0  0
   -2.3848   -3.6193   -4.4693 H   0  0  0  0  0  0  0  0  0  0  0  0
   -1.2553   -3.8628   -0.8975 H   0  0  0  0  0  0  0  0  0  0  0  0
   -2.5059   -2.9178    0.9897 H   0  0  0  0  0  0  0  0  0  0  0  0
   -6.3394   -3.5786    0.2163 H   0  0  0  0  0  0  0  0  0  0  0  0
   -8.7893   -3.6230    0.3802 H   0  0  0  0  0  0  0  0  0  0  0  0
  -10.8778   -0.6658    1.1224 H   0  0  0  0  0  0  0  0  0  0  0  0
  -10.7261   -2.0305    2.2266 H   0  0  0  0  0  0  0  0  0  0  0  0
  -10.8875   -2.3222    0.4965 H   0  0  0  0  0  0  0  0  0  0  0  0
   -8.7744    0.3985    1.7996 H   0  0  0  0  0  0  0  0  0  0  0  0
   -6.3294    0.4599    1.6073 H   0  0  0  0  0  0  0  0  0  0  0  0
   -0.1529    0.1561    6.4608 H   0  0  0  0  0  0  0  0  0  0  0  0
    1.3514    1.9962    5.8206 H   0  0  0  0  0  0  0  0  0  0  0  0
    0.4452    4.7531    3.8033 H   0  0  0  0  0  0  0  0  0  0  0  0
    0.5160    5.2990    5.4706 H   0  0  0  0  0  0  0  0  0  0  0  0
    1.7168    4.1505    4.8789 H   0  0  0  0  0  0  0  0  0  0  0  0
   -2.0139    4.3796    4.7351 H   0  0  0  0  0  0  0  0  0  0  0  0
   -3.5258    2.5255    5.3712 H   0  0  0  0  0  0  0  0  0  0  0  0
   -2.9667   -2.4526    6.7995 H   0  0  0  0  0  0  0  0  0  0  0  0
   -2.7371   -3.4910    9.0011 H   0  0  0  0  0  0  0  0  0  0  0  0
   -1.5981   -3.1510   11.3594 H   0  0  0  0  0  0  0  0  0  0  0  0
   -1.9354   -1.5951   12.1359 H   0  0  0  0  0  0  0  0  0  0  0  0
   -3.2584   -2.6736   11.6843 H   0  0  0  0  0  0  0  0  0  0  0  0
   -1.9699    0.3289   10.7384 H   0  0  0  0  0  0  0  0  0  0  0  0
   -2.1883    1.3775    8.5289 H   0  0  0  0  0  0  0  0  0  0  0  0
   -6.2608   -2.0952    6.7270 H   0  0  0  0  0  0  0  0  0  0  0  0
   -4.6189    3.1914    9.6238 H   0  0  0  0  0  0  0  0  0  0  0  0
   -6.0063   -0.9386   12.2050 H   0  0  0  0  0  0  0  0  0  0  0  0
   -4.7185    1.4492   14.3315 H   0  0  0  0  0  0  0  0  0  0  0  0
   -7.0974    1.6161   15.0437 H   0  0  0  0  0  0  0  0  0  0  0  0
   -8.5148    1.7226   12.8485 H   0  0  0  0  0  0  0  0  0  0  0  0
   -7.8060    3.9003   11.5069 H   0  0  0  0  0  0  0  0  0  0  0  0
   -5.9610    5.1438   12.8799 H   0  0  0  0  0  0  0  0  0  0  0  0
   -7.3446    4.2497   14.9526 H   0  0  0  0  0  0  0  0  0  0  0  0
   -5.6279    3.8624   15.2234 H   0  0  0  0  0  0  0  0  0  0  0  0
   -4.0307    3.5799   13.0485 H   0  0  0  0  0  0  0  0  0  0  0  0
  1  2  2  0  0  0  0
  2  3  1  0  0  0  0
  3  4  2  0  0  0  0
  3  5  1  0  0  0  0
  5  6  2  0  0  0  0
  6  7  1  0  0  0  0
  7  8  2  0  0  0  0
  8  9  1  0  0  0  0
  9 10  2  0  0  0  0
 10 11  1  0  0  0  0
 11 12  2  0  0  0  0
 12 13  1  0  0  0  0
 13 14  3  0  0  0  0
 12 15  1  0  0  0  0
 15 16  3  0  0  0  0
  8 17  1  0  0  0  0
 17 18  1  0  0  0  0
 18 19  1  0  0  0  0
 19 20  2  0  0  0  0
 20 21  1  0  0  0  0
 21 22  1  0  0  0  0
 21 23  1  0  0  0  0
  1 24  1  0  0  0  0
 24 25  2  0  0  0  0
 25 26  1  0  0  0  0
 26 27  1  0  0  0  0
 27 28  2  0  0  0  0
 28 29  1  0  0  0  0
 29 30  2  0  0  0  0
 30 31  1  0  0  0  0
 31 32  1  0  0  0  0
 30 33  1  0  0  0  0
 33 34  2  0  0  0  0
 26 35  1  0  0  0  0
 35 36  2  0  0  0  0
 36 37  1  0  0  0  0
 37 38  2  0  0  0  0
 38 39  1  0  0  0  0
 39 40  1  0  0  0  0
 38 41  1  0  0  0  0
 41 42  2  0  0  0  0
 25 43  1  0  0  0  0
 43 44  1  0  0  0  0
 44 45  1  0  0  0  0
 45 46  2  0  0  0  0
 46 47  1  0  0  0  0
 47 48  1  0  0  0  0
 48 49  2  0  0  0  0
 49 50  1  0  0  0  0
 50 51  2  0  0  0  0
 51 52  1  0  0  0  0
 52 53  1  0  0  0  0
 51 54  1  0  0  0  0
 54 55  2  0  0  0  0
 47 56  1  0  0  0  0
 56 57  2  0  0  0  0
 57 58  1  0  0  0  0
 58 59  2  0  0  0  0
 59 60  1  0  0  0  0
 60 61  1  0  0  0  0
 59 62  1  0  0  0  0
 62 63  2  0  0  0  0
 46 64  1  0  0  0  0
 64 65  1  0  0  0  0
 45 66  1  0  0  0  0
 66 67  1  0  0  0  0
 67 68  2  0  0  0  0
 68 69  1  0  0  0  0
 69 70  1  0  0  0  0
 70 71  1  0  0  0  0
 69 72  1  0  0  0  0
 72 73  2  0  0  0  0
 73 74  1  0  0  0  0
 74 75  2  0  0  0  0
 75 76  1  0  0  0  0
 76 77  1  0  0  0  0
 75 78  1  0  0  0  0
 74 79  1  0  0  0  0
 79 80  2  0  0  0  0
 80 81  1  0  0  0  0
 81 82  1  0  0  0  0
 82 83  2  0  0  0  0
 83 84  1  0  0  0  0
 84 85  2  0  0  0  0
 85 86  1  0  0  0  0
 85 87  1  0  0  0  0
 87 88  2  0  0  0  0
 81 89  1  0  0  0  0
 89 90  2  0  0  0  0
 90 91  1  0  0  0  0
 91 92  2  0  0  0  0
 92 93  1  0  0  0  0
 92 94  1  0  0  0  0
 94 95  2  0  0  0  0
 80 96  1  0  0  0  0
 96 97  1  0  0  0  0
 97 98  1  0  0  0  0
 98 99  2  0  0  0  0
 99100  1  0  0  0  0
100101  1  0  0  0  0
101102  2  0  0  0  0
102103  1  0  0  0  0
103104  2  0  0  0  0
104105  1  0  0  0  0
104106  1  0  0  0  0
106107  2  0  0  0  0
100108  1  0  0  0  0
108109  2  0  0  0  0
109110  1  0  0  0  0
110111  2  0  0  0  0
111112  1  0  0  0  0
111113  1  0  0  0  0
113114  2  0  0  0  0
 99115  1  0  0  0  0
115116  1  0  0  0  0
 98117  1  0  0  0  0
117118  2  0  0  0  0
118119  1  0  0  0  0
119120  2  0  0  0  0
119121  1  0  0  0  0
121122  2  0  0  0  0
122123  1  0  0  0  0
123124  2  0  0  0  0
124125  1  0  0  0  0
125126  2  0  0  0  0
126127  1  0  0  0  0
127128  2  0  0  0  0
128129  1  0  0  0  0
129130  3  0  0  0  0
128131  1  0  0  0  0
131132  3  0  0  0  0
124133  1  0  0  0  0
133134  1  0  0  0  0
134135  1  0  0  0  0
135136  2  0  0  0  0
136137  1  0  0  0  0
137138  1  0  0  0  0
137139  1  0  0  0  0
 11  2  1  0  0  0  0
 23 17  1  0  0  0  0
 65 24  1  0  0  0  0
 76 66  2  0  0  0  0
116 79  1  0  0  0  0
127118  1  0  0  0  0
139133  1  0  0  0  0
 10  5  1  0  0  0  0
 22 18  1  0  0  0  0
 34 27  1  0  0  0  0
 42 35  1  0  0  0  0
 64 43  2  0  0  0  0
 73 67  1  0  0  0  0
 88 82  1  0  0  0  0
 95 89  1  0  0  0  0
115 96  2  0  0  0  0
126121  1  0  0  0  0
138134  1  0  0  0  0
 23  7  1  0  0  0  0
 55 48  1  0  0  0  0
 63 56  1  0  0  0  0
107101  1  0  0  0  0
114108  1  0  0  0  0
139123  1  0  0  0  0
  1140  1  0  0  0  0
  6141  1  0  0  0  0
  9142  1  0  0  0  0
 17143  1  0  0  0  0
 18144  1  0  0  0  0
 19145  1  0  0  0  0
 20146  1  0  0  0  0
 21147  1  0  0  0  0
 22148  1  0  0  0  0
 22149  1  0  0  0  0
 23150  1  0  0  0  0
 28151  1  0  0  0  0
 29152  1  0  0  0  0
 32153  1  0  0  0  0
 32154  1  0  0  0  0
 32155  1  0  0  0  0
 33156  1  0  0  0  0
 34157  1  0  0  0  0
 36158  1  0  0  0  0
 37159  1  0  0  0  0
 40160  1  0  0  0  0
 40161  1  0  0  0  0
 40162  1  0  0  0  0
 41163  1  0  0  0  0
 42164  1  0  0  0  0
 49165  1  0  0  0  0
 50166  1  0  0  0  0
 53167  1  0  0  0  0
 53168  1  0  0  0  0
 53169  1  0  0  0  0
 54170  1  0  0  0  0
 55171  1  0  0  0  0
 57172  1  0  0  0  0
 58173  1  0  0  0  0
 61174  1  0  0  0  0
 61175  1  0  0  0  0
 61176  1  0  0  0  0
 62177  1  0  0  0  0
 63178  1  0  0  0  0
 70179  1  0  0  0  0
 70180  1  0  0  0  0
 71181  1  0  0  0  0
 71182  1  0  0  0  0
 71183  1  0  0  0  0
 83184  1  0  0  0  0
 84185  1  0  0  0  0
 86186  1  0  0  0  0
 86187  1  0  0  0  0
 86188  1  0  0  0  0
 87189  1  0  0  0  0
 88190  1  0  0  0  0
 90191  1  0  0  0  0
 91192  1  0  0  0  0
 93193  1  0  0  0  0
 93194  1  0  0  0  0
 93195  1  0  0  0  0
 94196  1  0  0  0  0
 95197  1  0  0  0  0
102198  1  0  0  0  0
103199  1  0  0  0  0
105200  1  0  0  0  0
105201  1  0  0  0  0
105202  1  0  0  0  0
106203  1  0  0  0  0
107204  1  0  0  0  0
109205  1  0  0  0  0
110206  1  0  0  0  0
112207  1  0  0  0  0
112208  1  0  0  0  0
112209  1  0  0  0  0
113210  1  0  0  0  0
114211  1  0  0  0  0
117212  1  0  0  0  0
122213  1  0  0  0  0
125214  1  0  0  0  0
133215  1  0  0  0  0
134216  1  0  0  0  0
135217  1  0  0  0  0
136218  1  0  0  0  0
137219  1  0  0  0  0
138220  1  0  0  0  0
138221  1  0  0  0  0
139222  1  0  0  0  0
M  END
