
  xtb     02122221333D
 energy: -286.136496711805 gnorm: 0.000375020902 xtb: 6.4.1 (unknown)
172190  0     0  0            999 V2000
    0.3765   -0.4605    6.6205 C   0  0  0  0  0  0  0  0  0  0  0  0
   -0.6855   -1.1449    7.1361 C   0  0  0  0  0  0  0  0  0  0  0  0
   -1.0945   -0.9094    8.5389 C   0  0  0  0  0  0  0  0  0  0  0  0
   -0.4233   -0.4044    9.4159 O   0  0  0  0  0  0  0  0  0  0  0  0
   -2.4775   -1.4167    8.6349 C   0  0  0  0  0  0  0  0  0  0  0  0
   -3.3434   -1.3154    9.7216 C   0  0  0  0  0  0  0  0  0  0  0  0
   -4.5855   -1.8610    9.5017 C   0  0  0  0  0  0  0  0  0  0  0  0
   -4.9449   -2.4659    8.2902 C   0  0  0  0  0  0  0  0  0  0  0  0
   -4.0970   -2.5882    7.2147 C   0  0  0  0  0  0  0  0  0  0  0  0
   -2.8283   -2.0407    7.4182 C   0  0  0  0  0  0  0  0  0  0  0  0
   -1.6523   -2.0404    6.5487 C   0  0  0  0  0  0  0  0  0  0  0  0
   -1.4078   -2.9382    5.5374 C   0  0  0  0  0  0  0  0  0  0  0  0
   -0.1050   -3.1807    5.0578 C   0  0  0  0  0  0  0  0  0  0  0  0
    0.9646   -3.4497    4.7364 N   0  0  0  0  0  0  0  0  0  0  0  0
   -2.3975   -3.7564    4.9695 C   0  0  0  0  0  0  0  0  0  0  0  0
   -3.2029   -4.3961    4.4578 N   0  0  0  0  0  0  0  0  0  0  0  0
   -6.3414   -2.7783    8.7675 C   0  0  0  0  0  0  0  0  0  0  0  0
   -7.4700   -1.8600    8.2526 C   0  0  0  0  0  0  0  0  0  0  0  0
   -8.5986   -2.0906    9.2315 C   0  0  0  0  0  0  0  0  0  0  0  0
   -8.2581   -1.5218   10.3809 C   0  0  0  0  0  0  0  0  0  0  0  0
   -6.8939   -0.8967   10.1980 C   0  0  0  0  0  0  0  0  0  0  0  0
   -6.9893   -0.4815    8.7242 C   0  0  0  0  0  0  0  0  0  0  0  0
   -5.9398   -2.1073   10.1201 C   0  0  0  0  0  0  0  0  0  0  0  0
    0.7673   -0.2702    5.2833 C   0  0  0  0  0  0  0  0  0  0  0  0
    1.9957    0.2555    4.8475 C   0  0  0  0  0  0  0  0  0  0  0  0
    3.0763    0.5099    5.6463 N   0  0  0  0  0  0  0  0  0  0  0  0
    4.0142    1.4778    5.2444 C   0  0  0  0  0  0  0  0  0  0  0  0
    5.3809    1.2333    5.3713 C   0  0  0  0  0  0  0  0  0  0  0  0
    6.2906    2.1705    4.9372 C   0  0  0  0  0  0  0  0  0  0  0  0
    5.8579    3.3677    4.3672 C   0  0  0  0  0  0  0  0  0  0  0  0
    7.1043    4.4794    3.8063 S   0  0  0  0  0  0  0  0  0  0  0  0
    6.1884    5.6357    2.7461 C   0  0  0  0  0  0  0  0  0  0  0  0
    4.4974    3.6318    4.2807 C   0  0  0  0  0  0  0  0  0  0  0  0
    3.5848    2.6936    4.7197 C   0  0  0  0  0  0  0  0  0  0  0  0
    3.2897   -0.1883    6.8514 C   0  0  0  0  0  0  0  0  0  0  0  0
    3.0397   -1.5580    6.9302 C   0  0  0  0  0  0  0  0  0  0  0  0
    3.1215   -2.1996    8.1471 C   0  0  0  0  0  0  0  0  0  0  0  0
    3.4700   -1.4879    9.2884 C   0  0  0  0  0  0  0  0  0  0  0  0
    3.4438   -2.2637   10.8857 S   0  0  0  0  0  0  0  0  0  0  0  0
    1.7101   -2.8194   10.8949 C   0  0  0  0  0  0  0  0  0  0  0  0
    3.8204   -0.1495    9.1920 C   0  0  0  0  0  0  0  0  0  0  0  0
    3.7293    0.5011    7.9778 C   0  0  0  0  0  0  0  0  0  0  0  0
    2.0034    0.4238    3.4416 C   0  0  0  0  0  0  0  0  0  0  0  0
    3.1519    1.0184    2.2906 S   0  0  0  0  0  0  0  0  0  0  0  0
    2.0736    0.6187    0.9763 C   0  0  0  0  0  0  0  0  0  0  0  0
    0.8676    0.0946    1.4079 C   0  0  0  0  0  0  0  0  0  0  0  0
   -0.1954   -0.3154    0.6112 N   0  0  0  0  0  0  0  0  0  0  0  0
   -0.5255    0.3816   -0.5527 C   0  0  0  0  0  0  0  0  0  0  0  0
   -0.3838    1.7671   -0.6014 C   0  0  0  0  0  0  0  0  0  0  0  0
   -0.5850    2.4611   -1.7774 C   0  0  0  0  0  0  0  0  0  0  0  0
   -0.9419    1.7832   -2.9348 C   0  0  0  0  0  0  0  0  0  0  0  0
   -1.1576    2.5543   -4.5092 S   0  0  0  0  0  0  0  0  0  0  0  0
   -0.6327    4.2689   -4.2275 C   0  0  0  0  0  0  0  0  0  0  0  0
   -1.1538    0.4077   -2.8774 C   0  0  0  0  0  0  0  0  0  0  0  0
   -0.9553   -0.2836   -1.7030 C   0  0  0  0  0  0  0  0  0  0  0  0
   -0.7271   -1.5918    0.8840 C   0  0  0  0  0  0  0  0  0  0  0  0
   -2.0899   -1.8405    0.7619 C   0  0  0  0  0  0  0  0  0  0  0  0
   -2.5987   -3.1031    1.0007 C   0  0  0  0  0  0  0  0  0  0  0  0
   -1.7519   -4.1394    1.3761 C   0  0  0  0  0  0  0  0  0  0  0  0
   -2.2644   -5.8059    1.6198 S   0  0  0  0  0  0  0  0  0  0  0  0
   -4.0747   -5.7042    1.6761 C   0  0  0  0  0  0  0  0  0  0  0  0
   -0.3909   -3.8832    1.5325 C   0  0  0  0  0  0  0  0  0  0  0  0
    0.1164   -2.6282    1.2863 C   0  0  0  0  0  0  0  0  0  0  0  0
    0.8406    0.0005    2.8182 C   0  0  0  0  0  0  0  0  0  0  0  0
   -0.3401   -0.5601    3.9385 S   0  0  0  0  0  0  0  0  0  0  0  0
    2.4150    0.8835   -0.4087 C   0  0  0  0  0  0  0  0  0  0  0  0
    2.1901   -0.0918   -1.3809 C   0  0  0  0  0  0  0  0  0  0  0  0
    2.2800    0.1979   -2.7320 C   0  0  0  0  0  0  0  0  0  0  0  0
    2.0896   -0.6968   -3.7138 O   0  0  0  0  0  0  0  0  0  0  0  0
    1.7487   -2.0415   -3.4232 C   0  0  0  0  0  0  0  0  0  0  0  0
    1.6622   -2.7780   -4.7495 C   0  0  0  0  0  0  0  0  0  0  0  0
    2.5621    1.5219   -3.1540 C   0  0  0  0  0  0  0  0  0  0  0  0
    2.9058    2.4593   -2.1778 C   0  0  0  0  0  0  0  0  0  0  0  0
    2.8504    2.1344   -0.8433 C   0  0  0  0  0  0  0  0  0  0  0  0
    3.1339    3.0967    0.0658 F   0  0  0  0  0  0  0  0  0  0  0  0
    2.4014    1.8948   -4.5342 C   0  0  0  0  0  0  0  0  0  0  0  0
    2.5744    3.1625   -5.0690 C   0  0  0  0  0  0  0  0  0  0  0  0
    2.1792    3.2663   -6.3970 C   0  0  0  0  0  0  0  0  0  0  0  0
    2.2023    4.5254   -7.1415 C   0  0  0  0  0  0  0  0  0  0  0  0
    3.3484    5.3170   -7.1395 C   0  0  0  0  0  0  0  0  0  0  0  0
    3.3785    6.5039   -7.8465 C   0  0  0  0  0  0  0  0  0  0  0  0
    2.2634    6.9219   -8.5536 C   0  0  0  0  0  0  0  0  0  0  0  0
    1.1124    6.1526   -8.5433 C   0  0  0  0  0  0  0  0  0  0  0  0
    1.0789    4.9628   -7.8415 C   0  0  0  0  0  0  0  0  0  0  0  0
    1.7165    2.0434   -6.9170 C   0  0  0  0  0  0  0  0  0  0  0  0
    1.7612    0.7959   -5.7019 S   0  0  0  0  0  0  0  0  0  0  0  0
    1.3842    1.8806   -8.2696 C   0  0  0  0  0  0  0  0  0  0  0  0
    0.8703    0.7998   -8.9379 C   0  0  0  0  0  0  0  0  0  0  0  0
    0.4514   -0.4745   -8.3438 C   0  0  0  0  0  0  0  0  0  0  0  0
    0.5265   -0.8168   -7.1763 O   0  0  0  0  0  0  0  0  0  0  0  0
   -0.0951   -1.2847   -9.4466 C   0  0  0  0  0  0  0  0  0  0  0  0
   -0.6173   -2.5735   -9.3593 C   0  0  0  0  0  0  0  0  0  0  0  0
   -1.0413   -3.0874  -10.5610 C   0  0  0  0  0  0  0  0  0  0  0  0
   -0.9483   -2.3731  -11.7626 C   0  0  0  0  0  0  0  0  0  0  0  0
   -0.4341   -1.1021  -11.8624 C   0  0  0  0  0  0  0  0  0  0  0  0
   -0.0009   -0.5574  -10.6495 C   0  0  0  0  0  0  0  0  0  0  0  0
    0.5946    0.7471  -10.3601 C   0  0  0  0  0  0  0  0  0  0  0  0
    0.8415    1.7249  -11.2905 C   0  0  0  0  0  0  0  0  0  0  0  0
    1.4210    2.9877  -11.0448 C   0  0  0  0  0  0  0  0  0  0  0  0
    1.8817    4.0372  -10.9572 N   0  0  0  0  0  0  0  0  0  0  0  0
    0.5442    1.6129  -12.6650 C   0  0  0  0  0  0  0  0  0  0  0  0
    0.3282    1.6022  -13.7930 N   0  0  0  0  0  0  0  0  0  0  0  0
   -1.5616   -3.4912  -12.5685 C   0  0  0  0  0  0  0  0  0  0  0  0
   -3.0384   -3.3142  -12.9796 C   0  0  0  0  0  0  0  0  0  0  0  0
   -3.4922   -4.7172  -13.3122 C   0  0  0  0  0  0  0  0  0  0  0  0
   -3.5828   -5.3925  -12.1735 C   0  0  0  0  0  0  0  0  0  0  0  0
   -3.1916   -4.4572  -11.0522 C   0  0  0  0  0  0  0  0  0  0  0  0
   -3.7202   -3.1325  -11.6173 C   0  0  0  0  0  0  0  0  0  0  0  0
   -1.6675   -4.2870  -11.2280 C   0  0  0  0  0  0  0  0  0  0  0  0
    0.9521    0.0820    7.3632 H   0  0  0  0  0  0  0  0  0  0  0  0
   -3.0280   -0.8452   10.6399 H   0  0  0  0  0  0  0  0  0  0  0  0
   -4.3814   -3.0574    6.2873 H   0  0  0  0  0  0  0  0  0  0  0  0
   -6.6172   -3.8311    8.7696 H   0  0  0  0  0  0  0  0  0  0  0  0
   -7.7054   -1.9753    7.1981 H   0  0  0  0  0  0  0  0  0  0  0  0
   -9.4741   -2.6729    9.0115 H   0  0  0  0  0  0  0  0  0  0  0  0
   -8.7926   -1.5338   11.3126 H   0  0  0  0  0  0  0  0  0  0  0  0
   -6.6051   -0.1339   10.9160 H   0  0  0  0  0  0  0  0  0  0  0  0
   -6.0416   -0.1694    8.2891 H   0  0  0  0  0  0  0  0  0  0  0  0
   -7.7374    0.2929    8.5623 H   0  0  0  0  0  0  0  0  0  0  0  0
   -5.9467   -2.7140   11.0237 H   0  0  0  0  0  0  0  0  0  0  0  0
    5.7187    0.2996    5.7949 H   0  0  0  0  0  0  0  0  0  0  0  0
    7.3497    1.9809    5.0178 H   0  0  0  0  0  0  0  0  0  0  0  0
    6.9435    6.2107    2.2191 H   0  0  0  0  0  0  0  0  0  0  0  0
    5.5785    6.3012    3.3503 H   0  0  0  0  0  0  0  0  0  0  0  0
    5.5838    5.0767    2.0383 H   0  0  0  0  0  0  0  0  0  0  0  0
    4.1342    4.5628    3.8779 H   0  0  0  0  0  0  0  0  0  0  0  0
    2.5275    2.9068    4.6597 H   0  0  0  0  0  0  0  0  0  0  0  0
    2.7502   -2.1092    6.0477 H   0  0  0  0  0  0  0  0  0  0  0  0
    2.9100   -3.2559    8.2083 H   0  0  0  0  0  0  0  0  0  0  0  0
    1.5759   -3.6509   10.2092 H   0  0  0  0  0  0  0  0  0  0  0  0
    1.0722   -1.9839   10.6196 H   0  0  0  0  0  0  0  0  0  0  0  0
    1.4975   -3.1380   11.9101 H   0  0  0  0  0  0  0  0  0  0  0  0
    4.1262    0.3846   10.0777 H   0  0  0  0  0  0  0  0  0  0  0  0
    3.9564    1.5545    7.9056 H   0  0  0  0  0  0  0  0  0  0  0  0
   -0.0991    2.3058    0.2902 H   0  0  0  0  0  0  0  0  0  0  0  0
   -0.4563    3.5312   -1.7749 H   0  0  0  0  0  0  0  0  0  0  0  0
   -0.6388    4.7444   -5.2036 H   0  0  0  0  0  0  0  0  0  0  0  0
   -1.3339    4.7723   -3.5680 H   0  0  0  0  0  0  0  0  0  0  0  0
    0.3741    4.2805   -3.8216 H   0  0  0  0  0  0  0  0  0  0  0  0
   -1.4518   -0.1142   -3.7738 H   0  0  0  0  0  0  0  0  0  0  0  0
   -1.1132   -1.3518   -1.6729 H   0  0  0  0  0  0  0  0  0  0  0  0
   -2.7514   -1.0391    0.4673 H   0  0  0  0  0  0  0  0  0  0  0  0
   -3.6584   -3.2666    0.8909 H   0  0  0  0  0  0  0  0  0  0  0  0
   -4.4133   -6.7057    1.9223 H   0  0  0  0  0  0  0  0  0  0  0  0
   -4.4679   -5.4100    0.7072 H   0  0  0  0  0  0  0  0  0  0  0  0
   -4.3619   -5.0128    2.4616 H   0  0  0  0  0  0  0  0  0  0  0  0
    0.2641   -4.6830    1.8407 H   0  0  0  0  0  0  0  0  0  0  0  0
    1.1753   -2.4487    1.4022 H   0  0  0  0  0  0  0  0  0  0  0  0
    1.9135   -1.0812   -1.0548 H   0  0  0  0  0  0  0  0  0  0  0  0
    2.5168   -2.4907   -2.7794 H   0  0  0  0  0  0  0  0  0  0  0  0
    0.7849   -2.0729   -2.9011 H   0  0  0  0  0  0  0  0  0  0  0  0
    0.9988   -2.2410   -5.4211 H   0  0  0  0  0  0  0  0  0  0  0  0
    1.2888   -3.7852   -4.5892 H   0  0  0  0  0  0  0  0  0  0  0  0
    2.6435   -2.8303   -5.2127 H   0  0  0  0  0  0  0  0  0  0  0  0
    3.1787    3.4656   -2.4490 H   0  0  0  0  0  0  0  0  0  0  0  0
    2.9503    4.0050   -4.5156 H   0  0  0  0  0  0  0  0  0  0  0  0
    4.2235    4.9801   -6.6026 H   0  0  0  0  0  0  0  0  0  0  0  0
    4.2776    7.1024   -7.8509 H   0  0  0  0  0  0  0  0  0  0  0  0
    2.2913    7.8455   -9.1115 H   0  0  0  0  0  0  0  0  0  0  0  0
    0.2389    6.4776   -9.0881 H   0  0  0  0  0  0  0  0  0  0  0  0
    0.1738    4.3716   -7.8179 H   0  0  0  0  0  0  0  0  0  0  0  0
    1.5795    2.7638   -8.8659 H   0  0  0  0  0  0  0  0  0  0  0  0
   -0.6631   -3.0898   -8.4131 H   0  0  0  0  0  0  0  0  0  0  0  0
   -0.3676   -0.5707  -12.7966 H   0  0  0  0  0  0  0  0  0  0  0  0
   -0.9425   -3.8956  -13.3670 H   0  0  0  0  0  0  0  0  0  0  0  0
   -3.2125   -2.5514  -13.7335 H   0  0  0  0  0  0  0  0  0  0  0  0
   -3.6415   -5.0781  -14.3129 H   0  0  0  0  0  0  0  0  0  0  0  0
   -3.8229   -6.4302  -12.0332 H   0  0  0  0  0  0  0  0  0  0  0  0
   -3.5065   -4.7359  -10.0501 H   0  0  0  0  0  0  0  0  0  0  0  0
   -3.3889   -2.2524  -11.0692 H   0  0  0  0  0  0  0  0  0  0  0  0
   -4.8059   -3.1237  -11.6985 H   0  0  0  0  0  0  0  0  0  0  0  0
   -1.1210   -5.2237  -11.1338 H   0  0  0  0  0  0  0  0  0  0  0  0
  1  2  2  0  0  0  0
  2  3  1  0  0  0  0
  3  4  2  0  0  0  0
  3  5  1  0  0  0  0
  5  6  2  0  0  0  0
  6  7  1  0  0  0  0
  7  8  2  0  0  0  0
  8  9  1  0  0  0  0
  9 10  2  0  0  0  0
 10 11  1  0  0  0  0
 11 12  2  0  0  0  0
 12 13  1  0  0  0  0
 13 14  3  0  0  0  0
 12 15  1  0  0  0  0
 15 16  3  0  0  0  0
  8 17  1  0  0  0  0
 17 18  1  0  0  0  0
 18 19  1  0  0  0  0
 19 20  2  0  0  0  0
 20 21  1  0  0  0  0
 21 22  1  0  0  0  0
 21 23  1  0  0  0  0
  1 24  1  0  0  0  0
 24 25  2  0  0  0  0
 25 26  1  0  0  0  0
 26 27  1  0  0  0  0
 27 28  2  0  0  0  0
 28 29  1  0  0  0  0
 29 30  2  0  0  0  0
 30 31  1  0  0  0  0
 31 32  1  0  0  0  0
 30 33  1  0  0  0  0
 33 34  2  0  0  0  0
 26 35  1  0  0  0  0
 35 36  2  0  0  0  0
 36 37  1  0  0  0  0
 37 38  2  0  0  0  0
 38 39  1  0  0  0  0
 39 40  1  0  0  0  0
 38 41  1  0  0  0  0
 41 42  2  0  0  0  0
 25 43  1  0  0  0  0
 43 44  1  0  0  0  0
 44 45  1  0  0  0  0
 45 46  2  0  0  0  0
 46 47  1  0  0  0  0
 47 48  1  0  0  0  0
 48 49  2  0  0  0  0
 49 50  1  0  0  0  0
 50 51  2  0  0  0  0
 51 52  1  0  0  0  0
 52 53  1  0  0  0  0
 51 54  1  0  0  0  0
 54 55  2  0  0  0  0
 47 56  1  0  0  0  0
 56 57  2  0  0  0  0
 57 58  1  0  0  0  0
 58 59  2  0  0  0  0
 59 60  1  0  0  0  0
 60 61  1  0  0  0  0
 59 62  1  0  0  0  0
 62 63  2  0  0  0  0
 46 64  1  0  0  0  0
 64 65  1  0  0  0  0
 45 66  1  0  0  0  0
 66 67  2  0  0  0  0
 67 68  1  0  0  0  0
 68 69  1  0  0  0  0
 69 70  1  0  0  0  0
 70 71  1  0  0  0  0
 68 72  2  0  0  0  0
 72 73  1  0  0  0  0
 73 74  2  0  0  0  0
 74 75  1  0  0  0  0
 72 76  1  0  0  0  0
 76 77  2  0  0  0  0
 77 78  1  0  0  0  0
 78 79  1  0  0  0  0
 79 80  2  0  0  0  0
 80 81  1  0  0  0  0
 81 82  2  0  0  0  0
 82 83  1  0  0  0  0
 83 84  2  0  0  0  0
 78 85  2  0  0  0  0
 85 86  1  0  0  0  0
 85 87  1  0  0  0  0
 87 88  2  0  0  0  0
 88 89  1  0  0  0  0
 89 90  2  0  0  0  0
 89 91  1  0  0  0  0
 91 92  2  0  0  0  0
 92 93  1  0  0  0  0
 93 94  2  0  0  0  0
 94 95  1  0  0  0  0
 95 96  2  0  0  0  0
 96 97  1  0  0  0  0
 97 98  2  0  0  0  0
 98 99  1  0  0  0  0
 99100  3  0  0  0  0
 98101  1  0  0  0  0
101102  3  0  0  0  0
 94103  1  0  0  0  0
103104  1  0  0  0  0
104105  1  0  0  0  0
105106  2  0  0  0  0
106107  1  0  0  0  0
107108  1  0  0  0  0
107109  1  0  0  0  0
 11  2  1  0  0  0  0
 23 17  1  0  0  0  0
 65 24  1  0  0  0  0
 74 66  1  0  0  0  0
 86 76  1  0  0  0  0
 97 88  1  0  0  0  0
109103  1  0  0  0  0
 10  5  1  0  0  0  0
 22 18  1  0  0  0  0
 34 27  1  0  0  0  0
 42 35  1  0  0  0  0
 64 43  2  0  0  0  0
 84 79  1  0  0  0  0
 96 91  1  0  0  0  0
108104  1  0  0  0  0
 23  7  1  0  0  0  0
 55 48  1  0  0  0  0
 63 56  1  0  0  0  0
109 93  1  0  0  0  0
  1110  1  0  0  0  0
  6111  1  0  0  0  0
  9112  1  0  0  0  0
 17113  1  0  0  0  0
 18114  1  0  0  0  0
 19115  1  0  0  0  0
 20116  1  0  0  0  0
 21117  1  0  0  0  0
 22118  1  0  0  0  0
 22119  1  0  0  0  0
 23120  1  0  0  0  0
 28121  1  0  0  0  0
 29122  1  0  0  0  0
 32123  1  0  0  0  0
 32124  1  0  0  0  0
 32125  1  0  0  0  0
 33126  1  0  0  0  0
 34127  1  0  0  0  0
 36128  1  0  0  0  0
 37129  1  0  0  0  0
 40130  1  0  0  0  0
 40131  1  0  0  0  0
 40132  1  0  0  0  0
 41133  1  0  0  0  0
 42134  1  0  0  0  0
 49135  1  0  0  0  0
 50136  1  0  0  0  0
 53137  1  0  0  0  0
 53138  1  0  0  0  0
 53139  1  0  0  0  0
 54140  1  0  0  0  0
 55141  1  0  0  0  0
 57142  1  0  0  0  0
 58143  1  0  0  0  0
 61144  1  0  0  0  0
 61145  1  0  0  0  0
 61146  1  0  0  0  0
 62147  1  0  0  0  0
 63148  1  0  0  0  0
 67149  1  0  0  0  0
 70150  1  0  0  0  0
 70151  1  0  0  0  0
 71152  1  0  0  0  0
 71153  1  0  0  0  0
 71154  1  0  0  0  0
 73155  1  0  0  0  0
 77156  1  0  0  0  0
 80157  1  0  0  0  0
 81158  1  0  0  0  0
 82159  1  0  0  0  0
 83160  1  0  0  0  0
 84161  1  0  0  0  0
 87162  1  0  0  0  0
 92163  1  0  0  0  0
 95164  1  0  0  0  0
103165  1  0  0  0  0
104166  1  0  0  0  0
105167  1  0  0  0  0
106168  1  0  0  0  0
107169  1  0  0  0  0
108170  1  0  0  0  0
108171  1  0  0  0  0
109172  1  0  0  0  0
M  END
