144

C         -5.80390        2.47250        1.45400
C         -5.87660        2.57680        2.81500
C         -4.78330        2.25860        3.75400
O         -3.63120        1.95240        3.50390
C         -5.40580        2.20990        5.09230
C         -4.77370        1.90730        6.29700
C         -5.61750        1.87410        7.38060
C         -6.99260        2.12010        7.27720
C         -7.62830        2.42770        6.09770
C         -6.78610        2.46750        4.98260
C         -7.09120        2.74890        3.58300
C         -8.29210        3.19220        3.09320
C         -9.45400        3.36890        3.87120
N        -10.43400        3.52810        4.44850
C         -8.51680        3.58290        1.75570
N         -8.77740        3.95500        0.70110
C         -7.22530        1.89240        8.75060
C         -7.84330        0.53520        9.14860
C         -7.50900        0.40120       10.61660
C         -6.20600        0.17020       10.71440
C         -5.63770        0.14470        9.31390
C         -6.83040       -0.45320        8.55630
C         -5.69090        1.62090        8.86600
C         -4.62050        2.42910        0.68120
C         -3.41930        3.10930        0.98010
C         -2.20320        2.88960        0.22490
N         -1.19490        3.63840        0.67030
S         -1.72320        4.54080        1.89300
N         -3.24450        4.03600        1.92010
C         -2.11520        1.92010       -0.79730
C         -3.35930        1.41190       -1.23080
N         -3.57050        0.67150       -2.32020
S         -5.14170        0.35790       -2.44120
N         -5.63580        1.11820       -1.11650
C         -4.58900        1.69010       -0.52420
C         -0.86480        1.47740       -1.29130
C         -0.51270        0.19270       -1.72830
N         -1.27700       -0.94280       -1.59380
C         -1.04310       -1.98520       -2.50400
C         -0.85070       -3.29130       -2.06610
C         -0.48010       -4.27840       -2.95810
C         -0.29850       -3.97100       -4.30090
S          0.26040       -5.12480       -5.51040
C          0.87900       -6.51770       -4.52310
C         -0.56460       -2.67960       -4.75280
C         -0.93350       -1.69590       -3.86490
C         -2.15700       -1.10050       -0.51830
C         -1.86720       -0.53930        0.72560
C         -2.78350       -0.58410        1.75370
C         -4.00690       -1.21640        1.56480
S         -5.26460       -1.24650        2.80290
C         -4.30570       -1.16990        4.34530
C         -4.27650       -1.83690        0.34720
C         -3.36020       -1.78630       -0.68220
C          0.82460        0.17110       -2.17860
S          1.82700       -1.04160       -2.89770
C          3.19980        0.06150       -2.90830
C          2.84220        1.35000       -2.46900
N          3.59640        2.50150       -2.48880
C          3.30040        3.43130       -1.46800
C          2.90150        4.72900       -1.76940
C          2.45970        5.56990       -0.76700
C          2.41200        5.12190        0.54760
S          1.77070        6.08710        1.87560
C          0.65980        7.24720        1.02610
C          2.88730        3.85030        0.86030
C          3.32530        3.01090       -0.13880
C          4.51130        2.81310       -3.48320
C          5.52630        3.73850       -3.23130
C          6.48990        4.00780       -4.17960
C          6.45430        3.36730       -5.41370
S          7.65230        3.58700       -6.68320
C          8.95690        4.56650       -5.88810
C          5.40290        2.49400       -5.69550
C          4.44000        2.22740       -4.75140
C          1.49740        1.37350       -2.03050
S          0.48640        2.58930       -1.31180
C          4.44170       -0.48950       -3.30810
C          5.72570        0.03380       -3.03140
C          6.93620       -0.57970       -3.54020
N          8.02430        0.07520       -3.14060
S          7.58990        1.30100       -2.19840
N          5.99780        1.08370       -2.25500
C          6.95300       -1.76520       -4.31920
C          5.67590       -2.33530       -4.51640
N          5.40410       -3.46660       -5.16270
S          3.82090       -3.74600       -5.13960
N          3.38900       -2.44080       -4.30660
C          4.46960       -1.72120       -4.00880
C          8.18870       -2.26900       -4.77630
C          8.50720       -3.40640       -5.45430
S          7.49320       -4.70500       -6.01810
C          8.88660       -5.58110       -6.64650
S          8.77870       -7.03250       -7.39110
N         10.03090       -4.89010       -6.43580
C         11.33240       -5.39390       -6.82710
C         11.88870       -6.35070       -5.77990
C          9.91080       -3.67610       -5.77960
O         10.85530       -2.95910       -5.52970
H         -6.71620        2.32230        0.88910
H         -3.71020        1.72760        6.33990
H         -8.68730        2.61320        6.03100
H         -7.64930        2.73040        9.30030
H         -8.88620        0.41080        8.87050
H         -8.22070        0.53940       11.40910
H         -5.61190        0.07740       11.60460
H         -4.67100       -0.33600        9.18710
H         -7.03480       -1.48040        8.85410
H         -6.74190       -0.39880        7.47260
H         -5.09160        2.27850        9.49310
H         -0.96370       -3.52510       -1.01760
H         -0.31780       -5.27860       -2.59030
H          0.05280       -7.04990       -4.06030
H          1.38740       -7.17180       -5.22470
H          1.58140       -6.15270       -3.77990
H         -0.45980       -2.45920       -5.80350
H         -1.12920       -0.69120       -4.20690
H         -0.91960       -0.04610        0.88350
H         -2.54960       -0.09710        2.68540
H         -3.56490       -1.96350        4.34290
H         -3.83750       -0.19730        4.45070
H         -5.02030       -1.32560        5.14740
H         -5.22050       -2.34180        0.21190
H         -3.58040       -2.25050       -1.63230
H          2.90780        5.06520       -2.79560
H          2.13560        6.56540       -1.02370
H          0.03030        7.67630        1.79920
H          0.05430        6.69700        0.31290
H          1.22850        8.03470        0.54030
H          2.88290        3.52540        1.88880
H          3.66790        2.01300        0.09000
H          5.58240        4.21300       -2.26380
H          7.27110        4.71130       -3.94160
H          8.58760        5.55840       -5.64480
H          9.75250        4.64170       -6.62270
H          9.31770        4.04830       -5.00450
H          5.35690        2.02640       -6.66710
H          3.62910        1.55740       -4.99120
H          9.04350       -1.64650       -4.53060
H         11.22390       -5.90190       -7.78830
H         11.98290       -4.52240       -6.93200
H         11.23250       -7.21070       -5.66930
H         12.87030       -6.69800       -6.08870
H         11.98050       -5.84620       -4.82090
