
  xtb     02052209313D
 energy: -416.539270370526 gnorm: 0.000722526575 xtb: 6.4.1 (unknown)
245268  0     0  0            999 V2000
    5.8284   -4.9385   -1.2725 C   0  0  0  0  0  0  0  0  0  0  0  0
    6.3800   -4.3446   -2.3853 C   0  0  0  0  0  0  0  0  0  0  0  0
    6.2324   -2.9169   -2.7164 C   0  0  0  0  0  0  0  0  0  0  0  0
    5.6144   -2.0760   -2.0888 O   0  0  0  0  0  0  0  0  0  0  0  0
    7.1013   -2.6858   -3.8877 C   0  0  0  0  0  0  0  0  0  0  0  0
    7.2743   -1.4931   -4.5821 C   0  0  0  0  0  0  0  0  0  0  0  0
    8.1164   -1.5921   -5.6643 C   0  0  0  0  0  0  0  0  0  0  0  0
    8.7510   -2.7874   -6.0238 C   0  0  0  0  0  0  0  0  0  0  0  0
    8.5982   -3.9697   -5.3393 C   0  0  0  0  0  0  0  0  0  0  0  0
    7.7404   -3.8906   -4.2408 C   0  0  0  0  0  0  0  0  0  0  0  0
    7.2976   -4.9341   -3.3207 C   0  0  0  0  0  0  0  0  0  0  0  0
    7.5581   -6.2783   -3.4360 C   0  0  0  0  0  0  0  0  0  0  0  0
    6.9362   -7.2677   -2.6494 C   0  0  0  0  0  0  0  0  0  0  0  0
    6.4231   -8.1311   -2.0908 N   0  0  0  0  0  0  0  0  0  0  0  0
    8.3942   -6.8529   -4.4100 C   0  0  0  0  0  0  0  0  0  0  0  0
    9.0451   -7.3988   -5.1843 N   0  0  0  0  0  0  0  0  0  0  0  0
    9.4482   -2.1568   -7.2030 C   0  0  0  0  0  0  0  0  0  0  0  0
   10.9490   -1.8057   -7.0533 C   0  0  0  0  0  0  0  0  0  0  0  0
   11.1919   -1.5799   -5.5817 C   0  0  0  0  0  0  0  0  0  0  0  0
   10.5900   -0.4484   -5.2409 C   0  0  0  0  0  0  0  0  0  0  0  0
    9.9298    0.1120   -6.4763 C   0  0  0  0  0  0  0  0  0  0  0  0
   10.9271   -0.3513   -7.5501 C   0  0  0  0  0  0  0  0  0  0  0  0
    8.7400   -0.8241   -6.8030 C   0  0  0  0  0  0  0  0  0  0  0  0
    4.6671   -4.5130   -0.6186 C   0  0  0  0  0  0  0  0  0  0  0  0
    3.5601   -3.7718   -1.0731 C   0  0  0  0  0  0  0  0  0  0  0  0
    3.2739   -3.3355   -2.3389 N   0  0  0  0  0  0  0  0  0  0  0  0
    2.4024   -2.2225   -2.4559 C   0  0  0  0  0  0  0  0  0  0  0  0
    1.2377   -2.3139   -3.2090 C   0  0  0  0  0  0  0  0  0  0  0  0
    0.3342   -1.2667   -3.2293 C   0  0  0  0  0  0  0  0  0  0  0  0
    0.5919   -0.1116   -2.5015 C   0  0  0  0  0  0  0  0  0  0  0  0
   -0.5325    1.2426   -2.3499 S   0  0  0  0  0  0  0  0  0  0  0  0
   -1.7216    0.9986   -3.6994 C   0  0  0  0  0  0  0  0  0  0  0  0
    1.7918    0.0040   -1.7993 C   0  0  0  0  0  0  0  0  0  0  0  0
    2.6905   -1.0389   -1.7767 C   0  0  0  0  0  0  0  0  0  0  0  0
    3.7705   -3.9109   -3.5086 C   0  0  0  0  0  0  0  0  0  0  0  0
    3.9939   -5.2822   -3.6182 C   0  0  0  0  0  0  0  0  0  0  0  0
    4.5407   -5.8211   -4.7664 C   0  0  0  0  0  0  0  0  0  0  0  0
    4.8812   -4.9959   -5.8317 C   0  0  0  0  0  0  0  0  0  0  0  0
    5.6654   -5.5444   -7.3077 S   0  0  0  0  0  0  0  0  0  0  0  0
    5.8340   -7.3380   -7.0933 C   0  0  0  0  0  0  0  0  0  0  0  0
    4.6058   -3.6305   -5.7484 C   0  0  0  0  0  0  0  0  0  0  0  0
    4.0561   -3.0949   -4.6077 C   0  0  0  0  0  0  0  0  0  0  0  0
    2.6531   -3.5600   -0.0066 C   0  0  0  0  0  0  0  0  0  0  0  0
    1.1559   -2.7190    0.1071 S   0  0  0  0  0  0  0  0  0  0  0  0
    1.0410   -3.0913    1.8247 C   0  0  0  0  0  0  0  0  0  0  0  0
    2.0948   -3.8591    2.2657 C   0  0  0  0  0  0  0  0  0  0  0  0
    2.2315   -4.3222    3.5653 N   0  0  0  0  0  0  0  0  0  0  0  0
    1.9624   -3.4206    4.6075 C   0  0  0  0  0  0  0  0  0  0  0  0
    1.1330   -3.7640    5.6695 C   0  0  0  0  0  0  0  0  0  0  0  0
    0.8581   -2.8519    6.6698 C   0  0  0  0  0  0  0  0  0  0  0  0
    1.4112   -1.5789    6.6211 C   0  0  0  0  0  0  0  0  0  0  0  0
    1.1264   -0.3367    7.8378 S   0  0  0  0  0  0  0  0  0  0  0  0
   -0.2667   -0.9825    8.8037 C   0  0  0  0  0  0  0  0  0  0  0  0
    2.2588   -1.2376    5.5703 C   0  0  0  0  0  0  0  0  0  0  0  0
    2.5303   -2.1469    4.5727 C   0  0  0  0  0  0  0  0  0  0  0  0
    2.5852   -5.6497    3.8019 C   0  0  0  0  0  0  0  0  0  0  0  0
    3.1640   -6.0281    5.0149 C   0  0  0  0  0  0  0  0  0  0  0  0
    3.5008   -7.3433    5.2438 C   0  0  0  0  0  0  0  0  0  0  0  0
    3.2976   -8.3119    4.2616 C   0  0  0  0  0  0  0  0  0  0  0  0
    3.7377   -9.9704    4.6781 S   0  0  0  0  0  0  0  0  0  0  0  0
    3.3132  -10.9173    3.1899 C   0  0  0  0  0  0  0  0  0  0  0  0
    2.7505   -7.9358    3.0432 C   0  0  0  0  0  0  0  0  0  0  0  0
    2.3808   -6.6236    2.8265 C   0  0  0  0  0  0  0  0  0  0  0  0
    3.0043   -4.1302    1.2059 C   0  0  0  0  0  0  0  0  0  0  0  0
    4.4833   -5.0072    1.0764 S   0  0  0  0  0  0  0  0  0  0  0  0
   -0.0962   -2.4333    2.4238 C   0  0  0  0  0  0  0  0  0  0  0  0
   -1.3652   -2.6196    1.9027 C   0  0  0  0  0  0  0  0  0  0  0  0
   -1.7410   -3.7733    1.2349 N   0  0  0  0  0  0  0  0  0  0  0  0
   -1.3430   -5.0288    1.7045 C   0  0  0  0  0  0  0  0  0  0  0  0
   -1.1682   -6.0891    0.8137 C   0  0  0  0  0  0  0  0  0  0  0  0
   -0.8340   -7.3419    1.2780 C   0  0  0  0  0  0  0  0  0  0  0  0
   -0.6550   -7.5693    2.6411 C   0  0  0  0  0  0  0  0  0  0  0  0
   -0.2599   -9.2194    3.1263 S   0  0  0  0  0  0  0  0  0  0  0  0
   -0.0724   -9.1251    4.9274 C   0  0  0  0  0  0  0  0  0  0  0  0
   -0.7963   -6.5117    3.5278 C   0  0  0  0  0  0  0  0  0  0  0  0
   -1.1384   -5.2573    3.0634 C   0  0  0  0  0  0  0  0  0  0  0  0
   -2.6215   -3.6437    0.1501 C   0  0  0  0  0  0  0  0  0  0  0  0
   -3.7089   -4.5027   -0.0059 C   0  0  0  0  0  0  0  0  0  0  0  0
   -4.6255   -4.2826   -1.0100 C   0  0  0  0  0  0  0  0  0  0  0  0
   -4.4802   -3.1982   -1.8715 C   0  0  0  0  0  0  0  0  0  0  0  0
   -5.7454   -2.9225   -3.0729 S   0  0  0  0  0  0  0  0  0  0  0  0
   -5.6252   -1.1306   -3.3561 C   0  0  0  0  0  0  0  0  0  0  0  0
   -3.3650   -2.3808   -1.7582 C   0  0  0  0  0  0  0  0  0  0  0  0
   -2.4413   -2.6025   -0.7577 C   0  0  0  0  0  0  0  0  0  0  0  0
   -2.1812   -1.4793    2.0974 C   0  0  0  0  0  0  0  0  0  0  0  0
   -3.6865   -0.9510    1.4300 S   0  0  0  0  0  0  0  0  0  0  0  0
   -3.3974    0.6747    2.0162 C   0  0  0  0  0  0  0  0  0  0  0  0
   -2.2107    0.7874    2.7192 C   0  0  0  0  0  0  0  0  0  0  0  0
   -1.6438    1.9695    3.1958 N   0  0  0  0  0  0  0  0  0  0  0  0
   -1.3677    2.0496    4.5696 C   0  0  0  0  0  0  0  0  0  0  0  0
   -0.2326    2.7087    5.0329 C   0  0  0  0  0  0  0  0  0  0  0  0
   -0.0173    2.8724    6.3863 C   0  0  0  0  0  0  0  0  0  0  0  0
   -0.9285    2.3621    7.3004 C   0  0  0  0  0  0  0  0  0  0  0  0
   -0.8052    2.6079    9.0476 S   0  0  0  0  0  0  0  0  0  0  0  0
    0.9205    3.1122    9.2899 C   0  0  0  0  0  0  0  0  0  0  0  0
   -2.0332    1.6497    6.8437 C   0  0  0  0  0  0  0  0  0  0  0  0
   -2.2509    1.4922    5.4928 C   0  0  0  0  0  0  0  0  0  0  0  0
   -1.5810    3.0941    2.3704 C   0  0  0  0  0  0  0  0  0  0  0  0
   -1.6194    4.3838    2.8969 C   0  0  0  0  0  0  0  0  0  0  0  0
   -1.7118    5.4855    2.0675 C   0  0  0  0  0  0  0  0  0  0  0  0
   -1.7688    5.3210    0.6924 C   0  0  0  0  0  0  0  0  0  0  0  0
   -2.0250    6.6519   -0.4421 S   0  0  0  0  0  0  0  0  0  0  0  0
   -2.4688    8.0502    0.6263 C   0  0  0  0  0  0  0  0  0  0  0  0
   -1.6188    4.0446    0.1559 C   0  0  0  0  0  0  0  0  0  0  0  0
   -1.5114    2.9484    0.9818 C   0  0  0  0  0  0  0  0  0  0  0  0
   -1.5363   -0.4535    2.7703 C   0  0  0  0  0  0  0  0  0  0  0  0
    0.0602   -0.8946    3.2652 S   0  0  0  0  0  0  0  0  0  0  0  0
   -4.1747    1.7796    1.5322 C   0  0  0  0  0  0  0  0  0  0  0  0
   -4.6284    2.8530    2.2322 C   0  0  0  0  0  0  0  0  0  0  0  0
   -5.0590    3.9253    1.4103 C   0  0  0  0  0  0  0  0  0  0  0  0
   -5.4944    5.2026    1.8051 C   0  0  0  0  0  0  0  0  0  0  0  0
   -5.6621    5.5489    3.2255 C   0  0  0  0  0  0  0  0  0  0  0  0
   -6.8338    6.1425    3.6923 C   0  0  0  0  0  0  0  0  0  0  0  0
   -6.9682    6.4139    5.0397 C   0  0  0  0  0  0  0  0  0  0  0  0
   -5.9655    6.1044    5.9457 C   0  0  0  0  0  0  0  0  0  0  0  0
   -4.7897    5.5179    5.4896 C   0  0  0  0  0  0  0  0  0  0  0  0
   -3.7287    5.1278    6.2467 O   0  0  0  0  0  0  0  0  0  0  0  0
   -3.7454    5.3143    7.6486 C   0  0  0  0  0  0  0  0  0  0  0  0
   -3.3867    6.7402    8.0546 C   0  0  0  0  0  0  0  0  0  0  0  0
   -4.6513    5.2606    4.1272 C   0  0  0  0  0  0  0  0  0  0  0  0
   -5.7301    6.1135    0.7876 C   0  0  0  0  0  0  0  0  0  0  0  0
   -5.5375    5.8120   -0.5903 C   0  0  0  0  0  0  0  0  0  0  0  0
   -5.1368    4.5193   -0.9835 C   0  0  0  0  0  0  0  0  0  0  0  0
   -4.8712    4.1880   -2.3893 C   0  0  0  0  0  0  0  0  0  0  0  0
   -3.9882    4.9702   -3.1330 C   0  0  0  0  0  0  0  0  0  0  0  0
   -3.7273    4.6395   -4.4465 C   0  0  0  0  0  0  0  0  0  0  0  0
   -4.3416    3.5522   -5.0468 C   0  0  0  0  0  0  0  0  0  0  0  0
   -5.2250    2.7664   -4.3132 C   0  0  0  0  0  0  0  0  0  0  0  0
   -5.8741    1.6626   -4.7792 O   0  0  0  0  0  0  0  0  0  0  0  0
   -5.8915    1.3951   -6.1688 C   0  0  0  0  0  0  0  0  0  0  0  0
   -6.7799    2.3632   -6.9428 C   0  0  0  0  0  0  0  0  0  0  0  0
   -5.4710    3.0851   -2.9779 C   0  0  0  0  0  0  0  0  0  0  0  0
   -4.9358    3.6058    0.0318 C   0  0  0  0  0  0  0  0  0  0  0  0
   -4.3630    1.9778   -0.2015 S   0  0  0  0  0  0  0  0  0  0  0  0
   -5.7896    6.9129   -1.4257 C   0  0  0  0  0  0  0  0  0  0  0  0
   -6.1438    8.0562   -0.7448 C   0  0  0  0  0  0  0  0  0  0  0  0
   -6.1922    7.7762    1.0015 S   0  0  0  0  0  0  0  0  0  0  0  0
   -6.4204    9.3680   -1.1719 C   0  0  0  0  0  0  0  0  0  0  0  0
   -6.5803    9.9041   -2.4250 C   0  0  0  0  0  0  0  0  0  0  0  0
   -6.6890    9.1964   -3.7188 C   0  0  0  0  0  0  0  0  0  0  0  0
   -6.4835    8.0322   -3.9756 O   0  0  0  0  0  0  0  0  0  0  0  0
   -7.1367   10.2288   -4.6887 C   0  0  0  0  0  0  0  0  0  0  0  0
   -7.2256   11.4785   -4.0526 C   0  0  0  0  0  0  0  0  0  0  0  0
   -7.6418   12.5979   -4.7545 C   0  0  0  0  0  0  0  0  0  0  0  0
   -7.9624   12.4451   -6.0953 C   0  0  0  0  0  0  0  0  0  0  0  0
   -8.3723   13.5090   -6.7906 F   0  0  0  0  0  0  0  0  0  0  0  0
   -7.8721   11.2145   -6.7426 C   0  0  0  0  0  0  0  0  0  0  0  0
   -8.1870   11.1101   -8.0372 F   0  0  0  0  0  0  0  0  0  0  0  0
   -7.4528   10.0905   -6.0284 C   0  0  0  0  0  0  0  0  0  0  0  0
   -7.3696    8.9171   -6.6496 F   0  0  0  0  0  0  0  0  0  0  0  0
   -6.8157   11.3161   -2.6592 C   0  0  0  0  0  0  0  0  0  0  0  0
   -6.6118   12.3475   -1.7775 C   0  0  0  0  0  0  0  0  0  0  0  0
   -6.8591   13.7039   -2.0759 C   0  0  0  0  0  0  0  0  0  0  0  0
   -7.0491   14.8225   -2.2510 N   0  0  0  0  0  0  0  0  0  0  0  0
   -6.0781   12.2254   -0.4765 C   0  0  0  0  0  0  0  0  0  0  0  0
   -5.6159   12.2263    0.5751 N   0  0  0  0  0  0  0  0  0  0  0  0
    6.3281   -5.7940   -0.8340 H   0  0  0  0  0  0  0  0  0  0  0  0
    6.7635   -0.5933   -4.2759 H   0  0  0  0  0  0  0  0  0  0  0  0
    9.0966   -4.8818   -5.6233 H   0  0  0  0  0  0  0  0  0  0  0  0
    9.2157   -2.5855   -8.1757 H   0  0  0  0  0  0  0  0  0  0  0  0
   11.6256   -2.4950   -7.5512 H   0  0  0  0  0  0  0  0  0  0  0  0
   11.7109   -2.2740   -4.9469 H   0  0  0  0  0  0  0  0  0  0  0  0
   10.5051   -0.0086   -4.2644 H   0  0  0  0  0  0  0  0  0  0  0  0
    9.6789    1.1693   -6.4489 H   0  0  0  0  0  0  0  0  0  0  0  0
   11.8961    0.1382   -7.4643 H   0  0  0  0  0  0  0  0  0  0  0  0
   10.5501   -0.2459   -8.5665 H   0  0  0  0  0  0  0  0  0  0  0  0
    8.0478   -0.3815   -7.5169 H   0  0  0  0  0  0  0  0  0  0  0  0
    1.0247   -3.2196   -3.7577 H   0  0  0  0  0  0  0  0  0  0  0  0
   -0.5761   -1.3753   -3.7967 H   0  0  0  0  0  0  0  0  0  0  0  0
   -2.3491    0.1359   -3.4986 H   0  0  0  0  0  0  0  0  0  0  0  0
   -2.3352    1.8952   -3.7176 H   0  0  0  0  0  0  0  0  0  0  0  0
   -1.1889    0.8878   -4.6391 H   0  0  0  0  0  0  0  0  0  0  0  0
    1.9996    0.9177   -1.2643 H   0  0  0  0  0  0  0  0  0  0  0  0
    3.6234   -0.9591   -1.2410 H   0  0  0  0  0  0  0  0  0  0  0  0
    3.7418   -5.9379   -2.7983 H   0  0  0  0  0  0  0  0  0  0  0  0
    4.7093   -6.8854   -4.8081 H   0  0  0  0  0  0  0  0  0  0  0  0
    6.2804   -7.6971   -8.0154 H   0  0  0  0  0  0  0  0  0  0  0  0
    4.8558   -7.7893   -6.9566 H   0  0  0  0  0  0  0  0  0  0  0  0
    6.4964   -7.5576   -6.2613 H   0  0  0  0  0  0  0  0  0  0  0  0
    4.8538   -2.9959   -6.5850 H   0  0  0  0  0  0  0  0  0  0  0  0
    3.8690   -2.0340   -4.5416 H   0  0  0  0  0  0  0  0  0  0  0  0
    0.6995   -4.7520    5.7073 H   0  0  0  0  0  0  0  0  0  0  0  0
    0.2088   -3.1453    7.4792 H   0  0  0  0  0  0  0  0  0  0  0  0
   -0.5692   -0.1730    9.4610 H   0  0  0  0  0  0  0  0  0  0  0  0
    0.0478   -1.8394    9.3924 H   0  0  0  0  0  0  0  0  0  0  0  0
   -1.0817   -1.2360    8.1325 H   0  0  0  0  0  0  0  0  0  0  0  0
    2.6929   -0.2503    5.5438 H   0  0  0  0  0  0  0  0  0  0  0  0
    3.1831   -1.8780    3.7559 H   0  0  0  0  0  0  0  0  0  0  0  0
    3.3500   -5.2851    5.7755 H   0  0  0  0  0  0  0  0  0  0  0  0
    3.9368   -7.6363    6.1868 H   0  0  0  0  0  0  0  0  0  0  0  0
    3.5496  -11.9504    3.4250 H   0  0  0  0  0  0  0  0  0  0  0  0
    2.2524  -10.8183    2.9768 H   0  0  0  0  0  0  0  0  0  0  0  0
    3.9192  -10.5815    2.3535 H   0  0  0  0  0  0  0  0  0  0  0  0
    2.5858   -8.6538    2.2578 H   0  0  0  0  0  0  0  0  0  0  0  0
    1.9113   -6.3618    1.8908 H   0  0  0  0  0  0  0  0  0  0  0  0
   -1.3046   -5.9220   -0.2443 H   0  0  0  0  0  0  0  0  0  0  0  0
   -0.7076   -8.1621    0.5879 H   0  0  0  0  0  0  0  0  0  0  0  0
    0.7257   -8.4325    5.1805 H   0  0  0  0  0  0  0  0  0  0  0  0
    0.1984  -10.1269    5.2470 H   0  0  0  0  0  0  0  0  0  0  0  0
   -1.0148   -8.8362    5.3835 H   0  0  0  0  0  0  0  0  0  0  0  0
   -0.6584   -6.6553    4.5874 H   0  0  0  0  0  0  0  0  0  0  0  0
   -1.2625   -4.4476    3.7673 H   0  0  0  0  0  0  0  0  0  0  0  0
   -3.8449   -5.3230    0.6829 H   0  0  0  0  0  0  0  0  0  0  0  0
   -5.4820   -4.9296   -1.1188 H   0  0  0  0  0  0  0  0  0  0  0  0
   -5.4599   -0.6247   -2.4101 H   0  0  0  0  0  0  0  0  0  0  0  0
   -4.8307   -0.9066   -4.0622 H   0  0  0  0  0  0  0  0  0  0  0  0
   -6.5765   -0.8228   -3.7768 H   0  0  0  0  0  0  0  0  0  0  0  0
   -3.2150   -1.5597   -2.4397 H   0  0  0  0  0  0  0  0  0  0  0  0
   -1.5756   -1.9614   -0.6715 H   0  0  0  0  0  0  0  0  0  0  0  0
    0.4748    3.1096    4.3225 H   0  0  0  0  0  0  0  0  0  0  0  0
    0.8610    3.4033    6.7156 H   0  0  0  0  0  0  0  0  0  0  0  0
    1.5730    2.3917    8.8058 H   0  0  0  0  0  0  0  0  0  0  0  0
    1.0764    4.1162    8.9059 H   0  0  0  0  0  0  0  0  0  0  0  0
    1.0829    3.1013   10.3632 H   0  0  0  0  0  0  0  0  0  0  0  0
   -2.7314    1.2437    7.5602 H   0  0  0  0  0  0  0  0  0  0  0  0
   -3.1221    0.9574    5.1426 H   0  0  0  0  0  0  0  0  0  0  0  0
   -1.5965    4.5306    3.9664 H   0  0  0  0  0  0  0  0  0  0  0  0
   -1.7638    6.4643    2.5163 H   0  0  0  0  0  0  0  0  0  0  0  0
   -1.5991    8.3887    1.1822 H   0  0  0  0  0  0  0  0  0  0  0  0
   -3.2748    7.7623    1.2950 H   0  0  0  0  0  0  0  0  0  0  0  0
   -2.8051    8.8380   -0.0411 H   0  0  0  0  0  0  0  0  0  0  0  0
   -1.5986    3.9153   -0.9154 H   0  0  0  0  0  0  0  0  0  0  0  0
   -1.3915    1.9682    0.5460 H   0  0  0  0  0  0  0  0  0  0  0  0
   -4.6378    2.8799    3.3060 H   0  0  0  0  0  0  0  0  0  0  0  0
   -7.6390    6.3663    3.0099 H   0  0  0  0  0  0  0  0  0  0  0  0
   -7.8771    6.8711    5.4018 H   0  0  0  0  0  0  0  0  0  0  0  0
   -6.1174    6.3236    6.9906 H   0  0  0  0  0  0  0  0  0  0  0  0
   -2.9890    4.6183    8.0236 H   0  0  0  0  0  0  0  0  0  0  0  0
   -4.7168    5.0218    8.0647 H   0  0  0  0  0  0  0  0  0  0  0  0
   -4.1135    7.4510    7.6683 H   0  0  0  0  0  0  0  0  0  0  0  0
   -2.4087    7.0007    7.6577 H   0  0  0  0  0  0  0  0  0  0  0  0
   -3.3594    6.8152    9.1381 H   0  0  0  0  0  0  0  0  0  0  0  0
   -3.7229    4.8396    3.7844 H   0  0  0  0  0  0  0  0  0  0  0  0
   -3.4908    5.8077   -2.6705 H   0  0  0  0  0  0  0  0  0  0  0  0
   -3.0381    5.2391   -5.0219 H   0  0  0  0  0  0  0  0  0  0  0  0
   -4.1217    3.3326   -6.0796 H   0  0  0  0  0  0  0  0  0  0  0  0
   -4.8724    1.3880   -6.5762 H   0  0  0  0  0  0  0  0  0  0  0  0
   -6.2944    0.3810   -6.2420 H   0  0  0  0  0  0  0  0  0  0  0  0
   -7.7931    2.3260   -6.5507 H   0  0  0  0  0  0  0  0  0  0  0  0
   -6.7969    2.0857   -7.9930 H   0  0  0  0  0  0  0  0  0  0  0  0
   -6.4156    3.3836   -6.8518 H   0  0  0  0  0  0  0  0  0  0  0  0
   -6.1652    2.4711   -2.4256 H   0  0  0  0  0  0  0  0  0  0  0  0
   -5.7168    6.8692   -2.4961 H   0  0  0  0  0  0  0  0  0  0  0  0
   -6.5418   10.0611   -0.3472 H   0  0  0  0  0  0  0  0  0  0  0  0
   -7.7322   13.5736   -4.3072 H   0  0  0  0  0  0  0  0  0  0  0  0
  1  2  2  0  0  0  0
  2  3  1  0  0  0  0
  3  4  2  0  0  0  0
  3  5  1  0  0  0  0
  5  6  2  0  0  0  0
  6  7  1  0  0  0  0
  7  8  2  0  0  0  0
  8  9  1  0  0  0  0
  9 10  2  0  0  0  0
 10 11  1  0  0  0  0
 11 12  2  0  0  0  0
 12 13  1  0  0  0  0
 13 14  3  0  0  0  0
 12 15  1  0  0  0  0
 15 16  3  0  0  0  0
  8 17  1  0  0  0  0
 17 18  1  0  0  0  0
 18 19  1  0  0  0  0
 19 20  2  0  0  0  0
 20 21  1  0  0  0  0
 21 22  1  0  0  0  0
 21 23  1  0  0  0  0
  1 24  1  0  0  0  0
 24 25  2  0  0  0  0
 25 26  1  0  0  0  0
 26 27  1  0  0  0  0
 27 28  2  0  0  0  0
 28 29  1  0  0  0  0
 29 30  2  0  0  0  0
 30 31  1  0  0  0  0
 31 32  1  0  0  0  0
 30 33  1  0  0  0  0
 33 34  2  0  0  0  0
 26 35  1  0  0  0  0
 35 36  2  0  0  0  0
 36 37  1  0  0  0  0
 37 38  2  0  0  0  0
 38 39  1  0  0  0  0
 39 40  1  0  0  0  0
 38 41  1  0  0  0  0
 41 42  2  0  0  0  0
 25 43  1  0  0  0  0
 43 44  1  0  0  0  0
 44 45  1  0  0  0  0
 45 46  2  0  0  0  0
 46 47  1  0  0  0  0
 47 48  1  0  0  0  0
 48 49  2  0  0  0  0
 49 50  1  0  0  0  0
 50 51  2  0  0  0  0
 51 52  1  0  0  0  0
 52 53  1  0  0  0  0
 51 54  1  0  0  0  0
 54 55  2  0  0  0  0
 47 56  1  0  0  0  0
 56 57  2  0  0  0  0
 57 58  1  0  0  0  0
 58 59  2  0  0  0  0
 59 60  1  0  0  0  0
 60 61  1  0  0  0  0
 59 62  1  0  0  0  0
 62 63  2  0  0  0  0
 46 64  1  0  0  0  0
 64 65  1  0  0  0  0
 45 66  1  0  0  0  0
 66 67  2  0  0  0  0
 67 68  1  0  0  0  0
 68 69  1  0  0  0  0
 69 70  2  0  0  0  0
 70 71  1  0  0  0  0
 71 72  2  0  0  0  0
 72 73  1  0  0  0  0
 73 74  1  0  0  0  0
 72 75  1  0  0  0  0
 75 76  2  0  0  0  0
 68 77  1  0  0  0  0
 77 78  2  0  0  0  0
 78 79  1  0  0  0  0
 79 80  2  0  0  0  0
 80 81  1  0  0  0  0
 81 82  1  0  0  0  0
 80 83  1  0  0  0  0
 83 84  2  0  0  0  0
 67 85  1  0  0  0  0
 85 86  1  0  0  0  0
 86 87  1  0  0  0  0
 87 88  2  0  0  0  0
 88 89  1  0  0  0  0
 89 90  1  0  0  0  0
 90 91  2  0  0  0  0
 91 92  1  0  0  0  0
 92 93  2  0  0  0  0
 93 94  1  0  0  0  0
 94 95  1  0  0  0  0
 93 96  1  0  0  0  0
 96 97  2  0  0  0  0
 89 98  1  0  0  0  0
 98 99  2  0  0  0  0
 99100  1  0  0  0  0
100101  2  0  0  0  0
101102  1  0  0  0  0
102103  1  0  0  0  0
101104  1  0  0  0  0
104105  2  0  0  0  0
 88106  1  0  0  0  0
106107  1  0  0  0  0
 87108  1  0  0  0  0
108109  2  0  0  0  0
109110  1  0  0  0  0
110111  2  0  0  0  0
111112  1  0  0  0  0
112113  2  0  0  0  0
113114  1  0  0  0  0
114115  2  0  0  0  0
115116  1  0  0  0  0
116117  1  0  0  0  0
117118  1  0  0  0  0
118119  1  0  0  0  0
116120  2  0  0  0  0
111121  1  0  0  0  0
121122  2  0  0  0  0
122123  1  0  0  0  0
123124  1  0  0  0  0
124125  2  0  0  0  0
125126  1  0  0  0  0
126127  2  0  0  0  0
127128  1  0  0  0  0
128129  1  0  0  0  0
129130  1  0  0  0  0
130131  1  0  0  0  0
128132  2  0  0  0  0
123133  2  0  0  0  0
133134  1  0  0  0  0
122135  1  0  0  0  0
135136  2  0  0  0  0
136137  1  0  0  0  0
136138  1  0  0  0  0
138139  2  0  0  0  0
139140  1  0  0  0  0
140141  2  0  0  0  0
140142  1  0  0  0  0
142143  2  0  0  0  0
143144  1  0  0  0  0
144145  2  0  0  0  0
145146  1  0  0  0  0
145147  1  0  0  0  0
147148  1  0  0  0  0
147149  2  0  0  0  0
149150  1  0  0  0  0
143151  1  0  0  0  0
151152  2  0  0  0  0
152153  1  0  0  0  0
153154  3  0  0  0  0
152155  1  0  0  0  0
155156  3  0  0  0  0
 11  2  1  0  0  0  0
 23 17  1  0  0  0  0
 65 24  1  0  0  0  0
107 66  1  0  0  0  0
134108  1  0  0  0  0
151139  1  0  0  0  0
 10  5  1  0  0  0  0
 22 18  1  0  0  0  0
 34 27  1  0  0  0  0
 42 35  1  0  0  0  0
 64 43  2  0  0  0  0
 76 69  1  0  0  0  0
 84 77  1  0  0  0  0
106 85  2  0  0  0  0
133110  1  0  0  0  0
149142  1  0  0  0  0
 23  7  1  0  0  0  0
 55 48  1  0  0  0  0
 63 56  1  0  0  0  0
 97 90  1  0  0  0  0
105 98  1  0  0  0  0
120112  1  0  0  0  0
137121  1  0  0  0  0
132124  1  0  0  0  0
  1157  1  0  0  0  0
  6158  1  0  0  0  0
  9159  1  0  0  0  0
 17160  1  0  0  0  0
 18161  1  0  0  0  0
 19162  1  0  0  0  0
 20163  1  0  0  0  0
 21164  1  0  0  0  0
 22165  1  0  0  0  0
 22166  1  0  0  0  0
 23167  1  0  0  0  0
 28168  1  0  0  0  0
 29169  1  0  0  0  0
 32170  1  0  0  0  0
 32171  1  0  0  0  0
 32172  1  0  0  0  0
 33173  1  0  0  0  0
 34174  1  0  0  0  0
 36175  1  0  0  0  0
 37176  1  0  0  0  0
 40177  1  0  0  0  0
 40178  1  0  0  0  0
 40179  1  0  0  0  0
 41180  1  0  0  0  0
 42181  1  0  0  0  0
 49182  1  0  0  0  0
 50183  1  0  0  0  0
 53184  1  0  0  0  0
 53185  1  0  0  0  0
 53186  1  0  0  0  0
 54187  1  0  0  0  0
 55188  1  0  0  0  0
 57189  1  0  0  0  0
 58190  1  0  0  0  0
 61191  1  0  0  0  0
 61192  1  0  0  0  0
 61193  1  0  0  0  0
 62194  1  0  0  0  0
 63195  1  0  0  0  0
 70196  1  0  0  0  0
 71197  1  0  0  0  0
 74198  1  0  0  0  0
 74199  1  0  0  0  0
 74200  1  0  0  0  0
 75201  1  0  0  0  0
 76202  1  0  0  0  0
 78203  1  0  0  0  0
 79204  1  0  0  0  0
 82205  1  0  0  0  0
 82206  1  0  0  0  0
 82207  1  0  0  0  0
 83208  1  0  0  0  0
 84209  1  0  0  0  0
 91210  1  0  0  0  0
 92211  1  0  0  0  0
 95212  1  0  0  0  0
 95213  1  0  0  0  0
 95214  1  0  0  0  0
 96215  1  0  0  0  0
 97216  1  0  0  0  0
 99217  1  0  0  0  0
100218  1  0  0  0  0
103219  1  0  0  0  0
103220  1  0  0  0  0
103221  1  0  0  0  0
104222  1  0  0  0  0
105223  1  0  0  0  0
109224  1  0  0  0  0
113225  1  0  0  0  0
114226  1  0  0  0  0
115227  1  0  0  0  0
118228  1  0  0  0  0
118229  1  0  0  0  0
119230  1  0  0  0  0
119231  1  0  0  0  0
119232  1  0  0  0  0
120233  1  0  0  0  0
125234  1  0  0  0  0
126235  1  0  0  0  0
127236  1  0  0  0  0
130237  1  0  0  0  0
130238  1  0  0  0  0
131239  1  0  0  0  0
131240  1  0  0  0  0
131241  1  0  0  0  0
132242  1  0  0  0  0
135243  1  0  0  0  0
138244  1  0  0  0  0
144245  1  0  0  0  0
M  END
