
  xtb     02072222533D
 energy: -385.866493972387 gnorm: 0.000289968461 xtb: 6.4.1 (unknown)
233256  0     0  0            999 V2000
   -6.3106    2.8601   -4.2388 C   0  0  0  0  0  0  0  0  0  0  0  0
   -6.9632    2.0285   -5.1296 C   0  0  0  0  0  0  0  0  0  0  0  0
   -6.3939    0.7878   -5.6641 C   0  0  0  0  0  0  0  0  0  0  0  0
   -5.3129    0.2859   -5.3939 O   0  0  0  0  0  0  0  0  0  0  0  0
   -7.3336    0.3232   -6.7037 C   0  0  0  0  0  0  0  0  0  0  0  0
   -7.2295   -0.8268   -7.4805 C   0  0  0  0  0  0  0  0  0  0  0  0
   -8.2761   -1.0094   -8.3533 C   0  0  0  0  0  0  0  0  0  0  0  0
   -9.3450   -0.1115   -8.4528 C   0  0  0  0  0  0  0  0  0  0  0  0
   -9.4607    1.0278   -7.6902 C   0  0  0  0  0  0  0  0  0  0  0  0
   -8.4083    1.2285   -6.7955 C   0  0  0  0  0  0  0  0  0  0  0  0
   -8.2027    2.2840   -5.8055 C   0  0  0  0  0  0  0  0  0  0  0  0
   -9.1141    3.2539   -5.4637 C   0  0  0  0  0  0  0  0  0  0  0  0
   -8.9625    4.1192   -4.3633 C   0  0  0  0  0  0  0  0  0  0  0  0
   -8.9435    4.8164   -3.4496 N   0  0  0  0  0  0  0  0  0  0  0  0
  -10.3538    3.4515   -6.0987 C   0  0  0  0  0  0  0  0  0  0  0  0
  -11.3846    3.6726   -6.5562 N   0  0  0  0  0  0  0  0  0  0  0  0
  -10.0239   -0.9144   -9.5352 C   0  0  0  0  0  0  0  0  0  0  0  0
   -9.8852   -0.3855  -10.9783 C   0  0  0  0  0  0  0  0  0  0  0  0
  -10.2138   -1.5856  -11.8367 C   0  0  0  0  0  0  0  0  0  0  0  0
   -9.2037   -2.4404  -11.7392 C   0  0  0  0  0  0  0  0  0  0  0  0
   -8.1753   -1.8321  -10.8133 C   0  0  0  0  0  0  0  0  0  0  0  0
   -8.3612   -0.3473  -11.1512 C   0  0  0  0  0  0  0  0  0  0  0  0
   -8.8332   -1.9196   -9.4201 C   0  0  0  0  0  0  0  0  0  0  0  0
   -5.3133    2.4633   -3.3507 C   0  0  0  0  0  0  0  0  0  0  0  0
   -5.0115    1.1926   -2.8082 C   0  0  0  0  0  0  0  0  0  0  0  0
   -5.8408    0.1178   -2.7701 N   0  0  0  0  0  0  0  0  0  0  0  0
   -7.2236    0.1986   -2.9969 C   0  0  0  0  0  0  0  0  0  0  0  0
   -7.8446   -0.7754   -3.7806 C   0  0  0  0  0  0  0  0  0  0  0  0
   -9.1865   -0.6772   -4.0735 C   0  0  0  0  0  0  0  0  0  0  0  0
   -9.9440    0.3835   -3.5781 C   0  0  0  0  0  0  0  0  0  0  0  0
  -11.6237    0.4574   -4.0939 S   0  0  0  0  0  0  0  0  0  0  0  0
  -12.2636    1.9714   -3.3271 C   0  0  0  0  0  0  0  0  0  0  0  0
   -9.3440    1.3103   -2.7309 C   0  0  0  0  0  0  0  0  0  0  0  0
   -7.9968    1.2187   -2.4487 C   0  0  0  0  0  0  0  0  0  0  0  0
   -5.3350   -1.1588   -2.4255 C   0  0  0  0  0  0  0  0  0  0  0  0
   -5.8879   -1.8443   -1.3510 C   0  0  0  0  0  0  0  0  0  0  0  0
   -5.3891   -3.0779   -0.9798 C   0  0  0  0  0  0  0  0  0  0  0  0
   -4.3383   -3.6428   -1.6924 C   0  0  0  0  0  0  0  0  0  0  0  0
   -3.5990   -5.1915   -1.2961 S   0  0  0  0  0  0  0  0  0  0  0  0
   -4.3499   -5.6443    0.2946 C   0  0  0  0  0  0  0  0  0  0  0  0
   -3.8171   -2.9746   -2.7992 C   0  0  0  0  0  0  0  0  0  0  0  0
   -4.3068   -1.7401   -3.1611 C   0  0  0  0  0  0  0  0  0  0  0  0
   -3.7575    1.2286   -2.1512 C   0  0  0  0  0  0  0  0  0  0  0  0
   -2.7570    0.0214   -1.4164 S   0  0  0  0  0  0  0  0  0  0  0  0
   -1.5689    1.2357   -1.0185 C   0  0  0  0  0  0  0  0  0  0  0  0
   -1.9684    2.5199   -1.3425 C   0  0  0  0  0  0  0  0  0  0  0  0
   -1.2749    3.6510   -0.9139 N   0  0  0  0  0  0  0  0  0  0  0  0
   -0.8179    3.6145    0.4168 C   0  0  0  0  0  0  0  0  0  0  0  0
   -1.6455    3.0805    1.4028 C   0  0  0  0  0  0  0  0  0  0  0  0
   -1.1925    2.8919    2.6932 C   0  0  0  0  0  0  0  0  0  0  0  0
    0.1090    3.2378    3.0273 C   0  0  0  0  0  0  0  0  0  0  0  0
    0.8422    2.9354    4.6040 S   0  0  0  0  0  0  0  0  0  0  0  0
   -0.5187    2.2338    5.5795 C   0  0  0  0  0  0  0  0  0  0  0  0
    0.9145    3.8484    2.0692 C   0  0  0  0  0  0  0  0  0  0  0  0
    0.4555    4.0484    0.7858 C   0  0  0  0  0  0  0  0  0  0  0  0
   -0.9747    4.6963   -1.7866 C   0  0  0  0  0  0  0  0  0  0  0  0
   -1.0023    4.4907   -3.1651 C   0  0  0  0  0  0  0  0  0  0  0  0
   -0.6691    5.5005   -4.0375 C   0  0  0  0  0  0  0  0  0  0  0  0
   -0.2915    6.7489   -3.5563 C   0  0  0  0  0  0  0  0  0  0  0  0
    0.1313    7.9803   -4.7510 S   0  0  0  0  0  0  0  0  0  0  0  0
    1.1650    9.1326   -3.8031 C   0  0  0  0  0  0  0  0  0  0  0  0
   -0.2989    6.9760   -2.1874 C   0  0  0  0  0  0  0  0  0  0  0  0
   -0.6455    5.9648   -1.3133 C   0  0  0  0  0  0  0  0  0  0  0  0
   -3.1995    2.4968   -2.0407 C   0  0  0  0  0  0  0  0  0  0  0  0
   -4.1727    3.7037   -2.7933 S   0  0  0  0  0  0  0  0  0  0  0  0
   -0.2634    0.8843   -0.5158 C   0  0  0  0  0  0  0  0  0  0  0  0
    0.8899    0.9895   -1.2625 C   0  0  0  0  0  0  0  0  0  0  0  0
    0.8649    1.2954   -2.6289 N   0  0  0  0  0  0  0  0  0  0  0  0
    1.5369    2.4113   -3.1164 C   0  0  0  0  0  0  0  0  0  0  0  0
    1.7100    2.6407   -4.4800 C   0  0  0  0  0  0  0  0  0  0  0  0
    2.3012    3.8047   -4.9328 C   0  0  0  0  0  0  0  0  0  0  0  0
    2.7537    4.7593   -4.0344 C   0  0  0  0  0  0  0  0  0  0  0  0
    3.4931    6.2944   -4.5008 S   0  0  0  0  0  0  0  0  0  0  0  0
    3.0881    6.4472   -6.2626 C   0  0  0  0  0  0  0  0  0  0  0  0
    2.6585    4.4998   -2.6714 C   0  0  0  0  0  0  0  0  0  0  0  0
    2.0642    3.3446   -2.2219 C   0  0  0  0  0  0  0  0  0  0  0  0
    0.0986    0.4273   -3.4298 C   0  0  0  0  0  0  0  0  0  0  0  0
    0.1904   -0.9490   -3.2092 C   0  0  0  0  0  0  0  0  0  0  0  0
   -0.5301   -1.8337   -3.9781 C   0  0  0  0  0  0  0  0  0  0  0  0
   -1.3725   -1.3715   -4.9876 C   0  0  0  0  0  0  0  0  0  0  0  0
   -2.2031   -2.5941   -5.9527 S   0  0  0  0  0  0  0  0  0  0  0  0
   -3.2391   -1.6314   -7.0895 C   0  0  0  0  0  0  0  0  0  0  0  0
   -1.4981   -0.0047   -5.1901 C   0  0  0  0  0  0  0  0  0  0  0  0
   -0.7675    0.8800   -4.4199 C   0  0  0  0  0  0  0  0  0  0  0  0
    2.0295    0.6591   -0.4892 C   0  0  0  0  0  0  0  0  0  0  0  0
    3.7293    0.6327   -0.7863 S   0  0  0  0  0  0  0  0  0  0  0  0
    4.0137    0.0414    0.8351 C   0  0  0  0  0  0  0  0  0  0  0  0
    2.8597   -0.0646    1.5860 C   0  0  0  0  0  0  0  0  0  0  0  0
    2.8092   -0.3689    2.9370 N   0  0  0  0  0  0  0  0  0  0  0  0
    3.8492    0.0148    3.7914 C   0  0  0  0  0  0  0  0  0  0  0  0
    4.5413    1.2068    3.5828 C   0  0  0  0  0  0  0  0  0  0  0  0
    5.6597    1.5148    4.3307 C   0  0  0  0  0  0  0  0  0  0  0  0
    6.0859    0.6496    5.3288 C   0  0  0  0  0  0  0  0  0  0  0  0
    7.5709    0.8764    6.2616 S   0  0  0  0  0  0  0  0  0  0  0  0
    8.5015    2.1037    5.2999 C   0  0  0  0  0  0  0  0  0  0  0  0
    5.3242   -0.4762    5.6260 C   0  0  0  0  0  0  0  0  0  0  0  0
    4.2278   -0.7991    4.8583 C   0  0  0  0  0  0  0  0  0  0  0  0
    1.7071   -1.0761    3.4267 C   0  0  0  0  0  0  0  0  0  0  0  0
    1.1677   -0.7718    4.6738 C   0  0  0  0  0  0  0  0  0  0  0  0
    0.0661   -1.4547    5.1512 C   0  0  0  0  0  0  0  0  0  0  0  0
   -0.5201   -2.4533    4.3847 C   0  0  0  0  0  0  0  0  0  0  0  0
   -1.9470   -3.3733    4.8780 S   0  0  0  0  0  0  0  0  0  0  0  0
   -2.2241   -2.8635    6.5986 C   0  0  0  0  0  0  0  0  0  0  0  0
    0.0214   -2.7682    3.1406 C   0  0  0  0  0  0  0  0  0  0  0  0
    1.1249   -2.0936    2.6680 C   0  0  0  0  0  0  0  0  0  0  0  0
    1.7244    0.2753    0.8074 C   0  0  0  0  0  0  0  0  0  0  0  0
    0.0226    0.2931    1.1056 S   0  0  0  0  0  0  0  0  0  0  0  0
    5.3651   -0.2659    1.2590 C   0  0  0  0  0  0  0  0  0  0  0  0
    6.3829    0.7120    1.1866 C   0  0  0  0  0  0  0  0  0  0  0  0
    7.6608    0.4733    1.7988 C   0  0  0  0  0  0  0  0  0  0  0  0
    8.3440    1.5966    1.7406 N   0  0  0  0  0  0  0  0  0  0  0  0
    7.5534    2.4775    1.1104 O   0  0  0  0  0  0  0  0  0  0  0  0
    6.3666    1.9629    0.7805 N   0  0  0  0  0  0  0  0  0  0  0  0
    7.9980   -0.7858    2.3577 C   0  0  0  0  0  0  0  0  0  0  0  0
    7.0666   -1.8092    2.1688 C   0  0  0  0  0  0  0  0  0  0  0  0
    7.3526   -3.1198    2.1893 O   0  0  0  0  0  0  0  0  0  0  0  0
    8.6667   -3.6204    1.9723 C   0  0  0  0  0  0  0  0  0  0  0  0
    9.0427   -4.6305    3.0462 C   0  0  0  0  0  0  0  0  0  0  0  0
    5.7037   -1.5051    1.7800 C   0  0  0  0  0  0  0  0  0  0  0  0
    4.7042   -2.4045    1.8138 O   0  0  0  0  0  0  0  0  0  0  0  0
    4.6983   -3.5123    2.7120 C   0  0  0  0  0  0  0  0  0  0  0  0
    4.8623   -4.8281    1.9630 C   0  0  0  0  0  0  0  0  0  0  0  0
    9.2226   -0.8573    3.1004 C   0  0  0  0  0  0  0  0  0  0  0  0
    9.3648   -1.4843    4.2986 C   0  0  0  0  0  0  0  0  0  0  0  0
    8.2476   -2.0323    5.1052 C   0  0  0  0  0  0  0  0  0  0  0  0
    7.1184   -2.2905    4.7339 O   0  0  0  0  0  0  0  0  0  0  0  0
    8.7786   -2.1591    6.4729 C   0  0  0  0  0  0  0  0  0  0  0  0
    8.0717   -2.5318    7.6135 C   0  0  0  0  0  0  0  0  0  0  0  0
    8.8124   -2.4927    8.7687 C   0  0  0  0  0  0  0  0  0  0  0  0
   10.1634   -2.1194    8.7947 C   0  0  0  0  0  0  0  0  0  0  0  0
   10.8815   -1.7745    7.6753 C   0  0  0  0  0  0  0  0  0  0  0  0
   10.1435   -1.8015    6.4890 C   0  0  0  0  0  0  0  0  0  0  0  0
   10.5544   -1.4869    5.1287 C   0  0  0  0  0  0  0  0  0  0  0  0
   11.8356   -1.3382    4.6695 C   0  0  0  0  0  0  0  0  0  0  0  0
   12.1549   -1.2250    3.2997 C   0  0  0  0  0  0  0  0  0  0  0  0
   12.4656   -1.1878    2.1950 N   0  0  0  0  0  0  0  0  0  0  0  0
   12.9823   -1.3685    5.4882 C   0  0  0  0  0  0  0  0  0  0  0  0
   13.9478   -1.3779    6.1091 N   0  0  0  0  0  0  0  0  0  0  0  0
   10.2519   -2.2486   10.2944 C   0  0  0  0  0  0  0  0  0  0  0  0
   10.2263   -0.9395   11.1231 C   0  0  0  0  0  0  0  0  0  0  0  0
    9.4836    0.0775   10.2922 C   0  0  0  0  0  0  0  0  0  0  0  0
    8.2061   -0.2775   10.2621 C   0  0  0  0  0  0  0  0  0  0  0  0
    8.0618   -1.5406   11.0760 C   0  0  0  0  0  0  0  0  0  0  0  0
    9.1377   -1.2994   12.1464 C   0  0  0  0  0  0  0  0  0  0  0  0
    8.7482   -2.6675   10.2643 C   0  0  0  0  0  0  0  0  0  0  0  0
   -6.5397    3.9191   -4.2544 H   0  0  0  0  0  0  0  0  0  0  0  0
   -6.3952   -1.5022   -7.3707 H   0  0  0  0  0  0  0  0  0  0  0  0
  -10.2907    1.7095   -7.7727 H   0  0  0  0  0  0  0  0  0  0  0  0
  -11.0276   -1.2667   -9.3053 H   0  0  0  0  0  0  0  0  0  0  0  0
  -10.4360    0.5284  -11.1831 H   0  0  0  0  0  0  0  0  0  0  0  0
  -11.1412   -1.7100  -12.3644 H   0  0  0  0  0  0  0  0  0  0  0  0
   -9.1186   -3.4213  -12.1690 H   0  0  0  0  0  0  0  0  0  0  0  0
   -7.1678   -2.2364  -10.8685 H   0  0  0  0  0  0  0  0  0  0  0  0
   -8.0686   -0.1179  -12.1746 H   0  0  0  0  0  0  0  0  0  0  0  0
   -7.8541    0.3301  -10.4666 H   0  0  0  0  0  0  0  0  0  0  0  0
   -9.0438   -2.9421   -9.1115 H   0  0  0  0  0  0  0  0  0  0  0  0
   -7.2595   -1.5926   -4.1743 H   0  0  0  0  0  0  0  0  0  0  0  0
   -9.6620   -1.4097   -4.7073 H   0  0  0  0  0  0  0  0  0  0  0  0
  -13.2872    2.0600   -3.6773 H   0  0  0  0  0  0  0  0  0  0  0  0
  -11.6913    2.8325   -3.6589 H   0  0  0  0  0  0  0  0  0  0  0  0
  -12.2488    1.8766   -2.2453 H   0  0  0  0  0  0  0  0  0  0  0  0
   -9.9106    2.1163   -2.2944 H   0  0  0  0  0  0  0  0  0  0  0  0
   -7.5415    1.9546   -1.8032 H   0  0  0  0  0  0  0  0  0  0  0  0
   -6.7034   -1.4024   -0.7969 H   0  0  0  0  0  0  0  0  0  0  0  0
   -5.8255   -3.5831   -0.1336 H   0  0  0  0  0  0  0  0  0  0  0  0
   -4.1769   -4.8559    1.0212 H   0  0  0  0  0  0  0  0  0  0  0  0
   -5.4101   -5.8431    0.1675 H   0  0  0  0  0  0  0  0  0  0  0  0
   -3.8430   -6.5516    0.6080 H   0  0  0  0  0  0  0  0  0  0  0  0
   -3.0266   -3.4352   -3.3699 H   0  0  0  0  0  0  0  0  0  0  0  0
   -3.9142   -1.2118   -4.0138 H   0  0  0  0  0  0  0  0  0  0  0  0
   -2.6530    2.7845    1.1499 H   0  0  0  0  0  0  0  0  0  0  0  0
   -1.8618    2.4583    3.4177 H   0  0  0  0  0  0  0  0  0  0  0  0
   -0.8540    1.3050    5.1266 H   0  0  0  0  0  0  0  0  0  0  0  0
   -1.3273    2.9548    5.6578 H   0  0  0  0  0  0  0  0  0  0  0  0
   -0.1037    2.0397    6.5639 H   0  0  0  0  0  0  0  0  0  0  0  0
    1.9148    4.1513    2.3394 H   0  0  0  0  0  0  0  0  0  0  0  0
    1.0910    4.5315    0.0620 H   0  0  0  0  0  0  0  0  0  0  0  0
   -1.2780    3.5240   -3.5493 H   0  0  0  0  0  0  0  0  0  0  0  0
   -0.6890    5.3267   -5.1025 H   0  0  0  0  0  0  0  0  0  0  0  0
    0.5533    9.7221   -3.1261 H   0  0  0  0  0  0  0  0  0  0  0  0
    1.6307    9.7841   -4.5357 H   0  0  0  0  0  0  0  0  0  0  0  0
    1.9252    8.5699   -3.2699 H   0  0  0  0  0  0  0  0  0  0  0  0
   -0.0453    7.9447   -1.7871 H   0  0  0  0  0  0  0  0  0  0  0  0
   -0.6688    6.1679   -0.2533 H   0  0  0  0  0  0  0  0  0  0  0  0
    1.3903    1.9028   -5.1994 H   0  0  0  0  0  0  0  0  0  0  0  0
    2.4064    3.9501   -5.9962 H   0  0  0  0  0  0  0  0  0  0  0  0
    3.4059    7.4439   -6.5521 H   0  0  0  0  0  0  0  0  0  0  0  0
    2.0149    6.3497   -6.3953 H   0  0  0  0  0  0  0  0  0  0  0  0
    3.6337    5.7062   -6.8400 H   0  0  0  0  0  0  0  0  0  0  0  0
    3.0520    5.2188   -1.9687 H   0  0  0  0  0  0  0  0  0  0  0  0
    2.0035    3.1536   -1.1641 H   0  0  0  0  0  0  0  0  0  0  0  0
    0.8469   -1.3205   -2.4366 H   0  0  0  0  0  0  0  0  0  0  0  0
   -0.4357   -2.8964   -3.8147 H   0  0  0  0  0  0  0  0  0  0  0  0
   -3.7838   -2.3682   -7.6726 H   0  0  0  0  0  0  0  0  0  0  0  0
   -3.9316   -1.0080   -6.5291 H   0  0  0  0  0  0  0  0  0  0  0  0
   -2.6122   -1.0362   -7.7478 H   0  0  0  0  0  0  0  0  0  0  0  0
   -2.1671    0.3902   -5.9373 H   0  0  0  0  0  0  0  0  0  0  0  0
   -0.8742    1.9365   -4.6064 H   0  0  0  0  0  0  0  0  0  0  0  0
    4.2136    1.8895    2.8135 H   0  0  0  0  0  0  0  0  0  0  0  0
    6.1877    2.4335    4.1288 H   0  0  0  0  0  0  0  0  0  0  0  0
    9.4956    2.1243    5.7363 H   0  0  0  0  0  0  0  0  0  0  0  0
    8.0415    3.0828    5.3956 H   0  0  0  0  0  0  0  0  0  0  0  0
    8.5601    1.7966    4.2591 H   0  0  0  0  0  0  0  0  0  0  0  0
    5.6168   -1.1073    6.4490 H   0  0  0  0  0  0  0  0  0  0  0  0
    3.6753   -1.7015    5.0697 H   0  0  0  0  0  0  0  0  0  0  0  0
    1.6133    0.0137    5.2655 H   0  0  0  0  0  0  0  0  0  0  0  0
   -0.3292   -1.1917    6.1198 H   0  0  0  0  0  0  0  0  0  0  0  0
   -1.3316   -3.0528    7.1878 H   0  0  0  0  0  0  0  0  0  0  0  0
   -2.5103   -1.8163    6.6397 H   0  0  0  0  0  0  0  0  0  0  0  0
   -3.0415   -3.4806    6.9584 H   0  0  0  0  0  0  0  0  0  0  0  0
   -0.4312   -3.5524    2.5535 H   0  0  0  0  0  0  0  0  0  0  0  0
    1.5531   -2.3565    1.7127 H   0  0  0  0  0  0  0  0  0  0  0  0
    9.4019   -2.8132    1.9191 H   0  0  0  0  0  0  0  0  0  0  0  0
    8.6359   -4.1245    0.9965 H   0  0  0  0  0  0  0  0  0  0  0  0
   10.0102   -5.0634    2.8082 H   0  0  0  0  0  0  0  0  0  0  0  0
    9.0977   -4.1600    4.0237 H   0  0  0  0  0  0  0  0  0  0  0  0
    8.2973   -5.4202    3.0880 H   0  0  0  0  0  0  0  0  0  0  0  0
    3.7063   -3.4840    3.1789 H   0  0  0  0  0  0  0  0  0  0  0  0
    5.4579   -3.3906    3.4848 H   0  0  0  0  0  0  0  0  0  0  0  0
    4.7429   -5.6559    2.6562 H   0  0  0  0  0  0  0  0  0  0  0  0
    4.1072   -4.9064    1.1847 H   0  0  0  0  0  0  0  0  0  0  0  0
    5.8451   -4.8871    1.5057 H   0  0  0  0  0  0  0  0  0  0  0  0
   10.0138   -0.2077    2.7435 H   0  0  0  0  0  0  0  0  0  0  0  0
    7.0321   -2.8145    7.5582 H   0  0  0  0  0  0  0  0  0  0  0  0
   11.9193   -1.4853    7.7032 H   0  0  0  0  0  0  0  0  0  0  0  0
   10.9758   -2.9672   10.6734 H   0  0  0  0  0  0  0  0  0  0  0  0
   11.1944   -0.6316   11.5089 H   0  0  0  0  0  0  0  0  0  0  0  0
    9.9567    0.8919    9.7761 H   0  0  0  0  0  0  0  0  0  0  0  0
    7.4057    0.1792    9.7105 H   0  0  0  0  0  0  0  0  0  0  0  0
    7.0585   -1.7790   11.4197 H   0  0  0  0  0  0  0  0  0  0  0  0
    9.3710   -2.1859   12.7348 H   0  0  0  0  0  0  0  0  0  0  0  0
    8.8935   -0.4711   12.8098 H   0  0  0  0  0  0  0  0  0  0  0  0
    8.4872   -3.6606   10.6249 H   0  0  0  0  0  0  0  0  0  0  0  0
  1  2  2  0  0  0  0
  2  3  1  0  0  0  0
  3  4  2  0  0  0  0
  3  5  1  0  0  0  0
  5  6  2  0  0  0  0
  6  7  1  0  0  0  0
  7  8  2  0  0  0  0
  8  9  1  0  0  0  0
  9 10  2  0  0  0  0
 10 11  1  0  0  0  0
 11 12  2  0  0  0  0
 12 13  1  0  0  0  0
 13 14  3  0  0  0  0
 12 15  1  0  0  0  0
 15 16  3  0  0  0  0
  8 17  1  0  0  0  0
 17 18  1  0  0  0  0
 18 19  1  0  0  0  0
 19 20  2  0  0  0  0
 20 21  1  0  0  0  0
 21 22  1  0  0  0  0
 21 23  1  0  0  0  0
  1 24  1  0  0  0  0
 24 25  2  0  0  0  0
 25 26  1  0  0  0  0
 26 27  1  0  0  0  0
 27 28  2  0  0  0  0
 28 29  1  0  0  0  0
 29 30  2  0  0  0  0
 30 31  1  0  0  0  0
 31 32  1  0  0  0  0
 30 33  1  0  0  0  0
 33 34  2  0  0  0  0
 26 35  1  0  0  0  0
 35 36  2  0  0  0  0
 36 37  1  0  0  0  0
 37 38  2  0  0  0  0
 38 39  1  0  0  0  0
 39 40  1  0  0  0  0
 38 41  1  0  0  0  0
 41 42  2  0  0  0  0
 25 43  1  0  0  0  0
 43 44  1  0  0  0  0
 44 45  1  0  0  0  0
 45 46  2  0  0  0  0
 46 47  1  0  0  0  0
 47 48  1  0  0  0  0
 48 49  2  0  0  0  0
 49 50  1  0  0  0  0
 50 51  2  0  0  0  0
 51 52  1  0  0  0  0
 52 53  1  0  0  0  0
 51 54  1  0  0  0  0
 54 55  2  0  0  0  0
 47 56  1  0  0  0  0
 56 57  2  0  0  0  0
 57 58  1  0  0  0  0
 58 59  2  0  0  0  0
 59 60  1  0  0  0  0
 60 61  1  0  0  0  0
 59 62  1  0  0  0  0
 62 63  2  0  0  0  0
 46 64  1  0  0  0  0
 64 65  1  0  0  0  0
 45 66  1  0  0  0  0
 66 67  2  0  0  0  0
 67 68  1  0  0  0  0
 68 69  1  0  0  0  0
 69 70  2  0  0  0  0
 70 71  1  0  0  0  0
 71 72  2  0  0  0  0
 72 73  1  0  0  0  0
 73 74  1  0  0  0  0
 72 75  1  0  0  0  0
 75 76  2  0  0  0  0
 68 77  1  0  0  0  0
 77 78  2  0  0  0  0
 78 79  1  0  0  0  0
 79 80  2  0  0  0  0
 80 81  1  0  0  0  0
 81 82  1  0  0  0  0
 80 83  1  0  0  0  0
 83 84  2  0  0  0  0
 67 85  1  0  0  0  0
 85 86  1  0  0  0  0
 86 87  1  0  0  0  0
 87 88  2  0  0  0  0
 88 89  1  0  0  0  0
 89 90  1  0  0  0  0
 90 91  2  0  0  0  0
 91 92  1  0  0  0  0
 92 93  2  0  0  0  0
 93 94  1  0  0  0  0
 94 95  1  0  0  0  0
 93 96  1  0  0  0  0
 96 97  2  0  0  0  0
 89 98  1  0  0  0  0
 98 99  2  0  0  0  0
 99100  1  0  0  0  0
100101  2  0  0  0  0
101102  1  0  0  0  0
102103  1  0  0  0  0
101104  1  0  0  0  0
104105  2  0  0  0  0
 88106  1  0  0  0  0
106107  1  0  0  0  0
 87108  1  0  0  0  0
108109  1  0  0  0  0
109110  1  0  0  0  0
110111  2  0  0  0  0
111112  1  0  0  0  0
112113  1  0  0  0  0
110114  1  0  0  0  0
114115  2  0  0  0  0
115116  1  0  0  0  0
116117  1  0  0  0  0
117118  1  0  0  0  0
115119  1  0  0  0  0
119120  1  0  0  0  0
120121  1  0  0  0  0
121122  1  0  0  0  0
114123  1  0  0  0  0
123124  2  0  0  0  0
124125  1  0  0  0  0
125126  2  0  0  0  0
125127  1  0  0  0  0
127128  2  0  0  0  0
128129  1  0  0  0  0
129130  2  0  0  0  0
130131  1  0  0  0  0
131132  2  0  0  0  0
132133  1  0  0  0  0
133134  2  0  0  0  0
134135  1  0  0  0  0
135136  3  0  0  0  0
134137  1  0  0  0  0
137138  3  0  0  0  0
130139  1  0  0  0  0
139140  1  0  0  0  0
140141  1  0  0  0  0
141142  2  0  0  0  0
142143  1  0  0  0  0
143144  1  0  0  0  0
143145  1  0  0  0  0
 11  2  1  0  0  0  0
 23 17  1  0  0  0  0
 65 24  1  0  0  0  0
107 66  1  0  0  0  0
119108  2  0  0  0  0
133124  1  0  0  0  0
145139  1  0  0  0  0
 10  5  1  0  0  0  0
 22 18  1  0  0  0  0
 34 27  1  0  0  0  0
 42 35  1  0  0  0  0
 64 43  2  0  0  0  0
 76 69  1  0  0  0  0
 84 77  1  0  0  0  0
106 85  2  0  0  0  0
113109  2  0  0  0  0
132127  1  0  0  0  0
144140  1  0  0  0  0
 23  7  1  0  0  0  0
 55 48  1  0  0  0  0
 63 56  1  0  0  0  0
 97 90  1  0  0  0  0
105 98  1  0  0  0  0
145129  1  0  0  0  0
  1146  1  0  0  0  0
  6147  1  0  0  0  0
  9148  1  0  0  0  0
 17149  1  0  0  0  0
 18150  1  0  0  0  0
 19151  1  0  0  0  0
 20152  1  0  0  0  0
 21153  1  0  0  0  0
 22154  1  0  0  0  0
 22155  1  0  0  0  0
 23156  1  0  0  0  0
 28157  1  0  0  0  0
 29158  1  0  0  0  0
 32159  1  0  0  0  0
 32160  1  0  0  0  0
 32161  1  0  0  0  0
 33162  1  0  0  0  0
 34163  1  0  0  0  0
 36164  1  0  0  0  0
 37165  1  0  0  0  0
 40166  1  0  0  0  0
 40167  1  0  0  0  0
 40168  1  0  0  0  0
 41169  1  0  0  0  0
 42170  1  0  0  0  0
 49171  1  0  0  0  0
 50172  1  0  0  0  0
 53173  1  0  0  0  0
 53174  1  0  0  0  0
 53175  1  0  0  0  0
 54176  1  0  0  0  0
 55177  1  0  0  0  0
 57178  1  0  0  0  0
 58179  1  0  0  0  0
 61180  1  0  0  0  0
 61181  1  0  0  0  0
 61182  1  0  0  0  0
 62183  1  0  0  0  0
 63184  1  0  0  0  0
 70185  1  0  0  0  0
 71186  1  0  0  0  0
 74187  1  0  0  0  0
 74188  1  0  0  0  0
 74189  1  0  0  0  0
 75190  1  0  0  0  0
 76191  1  0  0  0  0
 78192  1  0  0  0  0
 79193  1  0  0  0  0
 82194  1  0  0  0  0
 82195  1  0  0  0  0
 82196  1  0  0  0  0
 83197  1  0  0  0  0
 84198  1  0  0  0  0
 91199  1  0  0  0  0
 92200  1  0  0  0  0
 95201  1  0  0  0  0
 95202  1  0  0  0  0
 95203  1  0  0  0  0
 96204  1  0  0  0  0
 97205  1  0  0  0  0
 99206  1  0  0  0  0
100207  1  0  0  0  0
103208  1  0  0  0  0
103209  1  0  0  0  0
103210  1  0  0  0  0
104211  1  0  0  0  0
105212  1  0  0  0  0
117213  1  0  0  0  0
117214  1  0  0  0  0
118215  1  0  0  0  0
118216  1  0  0  0  0
118217  1  0  0  0  0
121218  1  0  0  0  0
121219  1  0  0  0  0
122220  1  0  0  0  0
122221  1  0  0  0  0
122222  1  0  0  0  0
123223  1  0  0  0  0
128224  1  0  0  0  0
131225  1  0  0  0  0
139226  1  0  0  0  0
140227  1  0  0  0  0
141228  1  0  0  0  0
142229  1  0  0  0  0
143230  1  0  0  0  0
144231  1  0  0  0  0
144232  1  0  0  0  0
145233  1  0  0  0  0
M  END
