
  xtb     02132220453D
 energy: -437.745244884498 gnorm: 0.000751152134 xtb: 6.4.1 (unknown)
262286  0     0  0            999 V2000
   -7.4043   -1.9496   -0.1938 C   0  0  0  0  0  0  0  0  0  0  0  0
   -8.3461   -0.9941   -0.5019 C   0  0  0  0  0  0  0  0  0  0  0  0
   -8.3707    0.3826   -0.0065 C   0  0  0  0  0  0  0  0  0  0  0  0
   -7.5379    0.9374    0.6922 O   0  0  0  0  0  0  0  0  0  0  0  0
   -9.6253    0.9777   -0.5002 C   0  0  0  0  0  0  0  0  0  0  0  0
  -10.0806    2.2756   -0.2859 C   0  0  0  0  0  0  0  0  0  0  0  0
  -11.2865    2.5511   -0.8854 C   0  0  0  0  0  0  0  0  0  0  0  0
  -11.9863    1.6046   -1.6439 C   0  0  0  0  0  0  0  0  0  0  0  0
  -11.5463    0.3202   -1.8641 C   0  0  0  0  0  0  0  0  0  0  0  0
  -10.3231    0.0181   -1.2611 C   0  0  0  0  0  0  0  0  0  0  0  0
   -9.5313   -1.2126   -1.2957 C   0  0  0  0  0  0  0  0  0  0  0  0
   -9.8562   -2.3460   -2.0035 C   0  0  0  0  0  0  0  0  0  0  0  0
  -11.0603   -2.5256   -2.7127 C   0  0  0  0  0  0  0  0  0  0  0  0
  -12.0259   -2.7486   -3.2942 N   0  0  0  0  0  0  0  0  0  0  0  0
   -9.0285   -3.4732   -2.1660 C   0  0  0  0  0  0  0  0  0  0  0  0
   -8.4006   -4.4121   -2.3833 N   0  0  0  0  0  0  0  0  0  0  0  0
  -13.1122    2.5614   -1.9471 C   0  0  0  0  0  0  0  0  0  0  0  0
  -14.4346    2.3964   -1.1586 C   0  0  0  0  0  0  0  0  0  0  0  0
  -14.0716    1.7522    0.1561 C   0  0  0  0  0  0  0  0  0  0  0  0
  -13.4093    2.6475    0.8765 C   0  0  0  0  0  0  0  0  0  0  0  0
  -13.3128    3.9136    0.0619 C   0  0  0  0  0  0  0  0  0  0  0  0
  -14.6463    3.8480   -0.6997 C   0  0  0  0  0  0  0  0  0  0  0  0
  -12.3329    3.6163   -1.1001 C   0  0  0  0  0  0  0  0  0  0  0  0
   -6.2035   -1.8446    0.5052 C   0  0  0  0  0  0  0  0  0  0  0  0
   -5.3323   -2.9474    0.6962 C   0  0  0  0  0  0  0  0  0  0  0  0
   -5.6003   -4.2594    0.3809 N   0  0  0  0  0  0  0  0  0  0  0  0
   -6.8446   -4.8547    0.6378 C   0  0  0  0  0  0  0  0  0  0  0  0
   -7.3220   -5.8735   -0.1878 C   0  0  0  0  0  0  0  0  0  0  0  0
   -8.5447   -6.4522    0.0666 C   0  0  0  0  0  0  0  0  0  0  0  0
   -9.3242   -6.0233    1.1391 C   0  0  0  0  0  0  0  0  0  0  0  0
  -10.8791   -6.8284    1.3494 S   0  0  0  0  0  0  0  0  0  0  0  0
  -11.6469   -5.9494    2.7407 C   0  0  0  0  0  0  0  0  0  0  0  0
   -8.8464   -5.0173    1.9697 C   0  0  0  0  0  0  0  0  0  0  0  0
   -7.6142   -4.4455    1.7241 C   0  0  0  0  0  0  0  0  0  0  0  0
   -4.5426   -5.0383   -0.1207 C   0  0  0  0  0  0  0  0  0  0  0  0
   -4.3270   -6.3396    0.3291 C   0  0  0  0  0  0  0  0  0  0  0  0
   -3.2928   -7.0877   -0.1907 C   0  0  0  0  0  0  0  0  0  0  0  0
   -2.4490   -6.5481   -1.1576 C   0  0  0  0  0  0  0  0  0  0  0  0
   -1.1422   -7.5625   -1.7823 S   0  0  0  0  0  0  0  0  0  0  0  0
   -0.9862   -6.9655   -3.4930 C   0  0  0  0  0  0  0  0  0  0  0  0
   -2.6433   -5.2434   -1.5902 C   0  0  0  0  0  0  0  0  0  0  0  0
   -3.6892   -4.5010   -1.0829 C   0  0  0  0  0  0  0  0  0  0  0  0
   -4.1040   -2.5299    1.2214 C   0  0  0  0  0  0  0  0  0  0  0  0
   -2.6313   -3.3490    1.6326 S   0  0  0  0  0  0  0  0  0  0  0  0
   -1.9041   -1.8322    2.1251 C   0  0  0  0  0  0  0  0  0  0  0  0
   -2.7880   -0.7641    2.0009 C   0  0  0  0  0  0  0  0  0  0  0  0
   -2.4336    0.5804    2.2323 N   0  0  0  0  0  0  0  0  0  0  0  0
   -2.6636    1.1330    3.4918 C   0  0  0  0  0  0  0  0  0  0  0  0
   -3.4551    0.4625    4.4256 C   0  0  0  0  0  0  0  0  0  0  0  0
   -3.6912    1.0116    5.6672 C   0  0  0  0  0  0  0  0  0  0  0  0
   -3.1557    2.2497    6.0036 C   0  0  0  0  0  0  0  0  0  0  0  0
   -3.5382    2.8918    7.6092 S   0  0  0  0  0  0  0  0  0  0  0  0
   -3.2592    4.6764    7.4140 C   0  0  0  0  0  0  0  0  0  0  0  0
   -2.3334    2.9027    5.0964 C   0  0  0  0  0  0  0  0  0  0  0  0
   -2.0713    2.3387    3.8649 C   0  0  0  0  0  0  0  0  0  0  0  0
   -2.1933    1.3423    1.0811 C   0  0  0  0  0  0  0  0  0  0  0  0
   -1.5018    0.7590    0.0163 C   0  0  0  0  0  0  0  0  0  0  0  0
   -1.2282    1.4761   -1.1288 C   0  0  0  0  0  0  0  0  0  0  0  0
   -1.6569    2.7901   -1.2399 C   0  0  0  0  0  0  0  0  0  0  0  0
   -1.3156    3.7313   -2.7109 S   0  0  0  0  0  0  0  0  0  0  0  0
   -2.1712    2.6832   -3.9314 C   0  0  0  0  0  0  0  0  0  0  0  0
   -2.3623    3.3751   -0.1984 C   0  0  0  0  0  0  0  0  0  0  0  0
   -2.6375    2.6575    0.9480 C   0  0  0  0  0  0  0  0  0  0  0  0
   -4.0277   -1.1640    1.4756 C   0  0  0  0  0  0  0  0  0  0  0  0
   -5.4944   -0.3334    1.0913 S   0  0  0  0  0  0  0  0  0  0  0  0
   -0.5056   -1.7203    2.3129 C   0  0  0  0  0  0  0  0  0  0  0  0
    0.4578   -2.6133    1.8393 C   0  0  0  0  0  0  0  0  0  0  0  0
    0.2316   -3.9527    1.5670 N   0  0  0  0  0  0  0  0  0  0  0  0
   -0.3175   -4.7822    2.5540 C   0  0  0  0  0  0  0  0  0  0  0  0
   -0.2452   -4.4429    3.9020 C   0  0  0  0  0  0  0  0  0  0  0  0
   -0.8086   -5.2540    4.8689 C   0  0  0  0  0  0  0  0  0  0  0  0
   -1.4503   -6.4287    4.5053 C   0  0  0  0  0  0  0  0  0  0  0  0
   -2.2064   -7.5457    5.6433 S   0  0  0  0  0  0  0  0  0  0  0  0
   -1.8809   -6.8064    7.2691 C   0  0  0  0  0  0  0  0  0  0  0  0
   -1.5211   -6.7759    3.1564 C   0  0  0  0  0  0  0  0  0  0  0  0
   -0.9669   -5.9663    2.1942 C   0  0  0  0  0  0  0  0  0  0  0  0
    0.7978   -4.4989    0.4052 C   0  0  0  0  0  0  0  0  0  0  0  0
    1.4596   -5.7227    0.4328 C   0  0  0  0  0  0  0  0  0  0  0  0
    2.0012   -6.2562   -0.7180 C   0  0  0  0  0  0  0  0  0  0  0  0
    1.8916   -5.5699   -1.9193 C   0  0  0  0  0  0  0  0  0  0  0  0
    2.5354   -6.1744   -3.4496 S   0  0  0  0  0  0  0  0  0  0  0  0
    2.7832   -7.9431   -3.1225 C   0  0  0  0  0  0  0  0  0  0  0  0
    1.2507   -4.3340   -1.9473 C   0  0  0  0  0  0  0  0  0  0  0  0
    0.7082   -3.8011   -0.7988 C   0  0  0  0  0  0  0  0  0  0  0  0
    1.6954   -1.9558    1.6661 C   0  0  0  0  0  0  0  0  0  0  0  0
    3.1464   -2.3545    0.8143 S   0  0  0  0  0  0  0  0  0  0  0  0
    3.7513   -0.7151    1.0797 C   0  0  0  0  0  0  0  0  0  0  0  0
    2.9467    0.0185    1.9426 C   0  0  0  0  0  0  0  0  0  0  0  0
    3.3025    1.2121    2.5131 N   0  0  0  0  0  0  0  0  0  0  0  0
    4.6726    1.5227    2.7262 C   0  0  0  0  0  0  0  0  0  0  0  0
    5.0622    2.8545    2.7940 C   0  0  0  0  0  0  0  0  0  0  0  0
    6.3848    3.1946    3.0022 C   0  0  0  0  0  0  0  0  0  0  0  0
    7.3410    2.2044    3.1773 C   0  0  0  0  0  0  0  0  0  0  0  0
    9.0496    2.5366    3.4621 S   0  0  0  0  0  0  0  0  0  0  0  0
    9.2568    4.2251    2.8336 C   0  0  0  0  0  0  0  0  0  0  0  0
    6.9419    0.8707    3.1857 C   0  0  0  0  0  0  0  0  0  0  0  0
    5.6254    0.5342    2.9644 C   0  0  0  0  0  0  0  0  0  0  0  0
    2.4695    1.7510    3.5445 C   0  0  0  0  0  0  0  0  0  0  0  0
    1.8308    2.9720    3.3796 C   0  0  0  0  0  0  0  0  0  0  0  0
    1.1655    3.5456    4.4443 C   0  0  0  0  0  0  0  0  0  0  0  0
    1.1183    2.9011    5.6775 C   0  0  0  0  0  0  0  0  0  0  0  0
    0.3407    3.7553    7.0088 S   0  0  0  0  0  0  0  0  0  0  0  0
   -0.0144    2.4440    8.2124 C   0  0  0  0  0  0  0  0  0  0  0  0
    1.7174    1.6581    5.8283 C   0  0  0  0  0  0  0  0  0  0  0  0
    2.3962    1.0944    4.7670 C   0  0  0  0  0  0  0  0  0  0  0  0
    1.7314   -0.6694    2.1852 C   0  0  0  0  0  0  0  0  0  0  0  0
    0.1923   -0.1829    2.8066 S   0  0  0  0  0  0  0  0  0  0  0  0
    4.7730   -0.1718    0.2341 C   0  0  0  0  0  0  0  0  0  0  0  0
    4.5873    0.9235   -0.5889 C   0  0  0  0  0  0  0  0  0  0  0  0
    3.3647    1.6117   -0.7418 N   0  0  0  0  0  0  0  0  0  0  0  0
    2.5951    1.2215   -1.8587 C   0  0  0  0  0  0  0  0  0  0  0  0
    2.2637   -0.1183   -2.0510 C   0  0  0  0  0  0  0  0  0  0  0  0
    1.5076   -0.4997   -3.1392 C   0  0  0  0  0  0  0  0  0  0  0  0
    1.0716    0.4422   -4.0651 C   0  0  0  0  0  0  0  0  0  0  0  0
    0.0639   -0.1404   -5.4028 S   0  0  0  0  0  0  0  0  0  0  0  0
    0.2901    1.1390   -6.6715 C   0  0  0  0  0  0  0  0  0  0  0  0
    1.4138    1.7760   -3.8906 C   0  0  0  0  0  0  0  0  0  0  0  0
    2.1737    2.1559   -2.8036 C   0  0  0  0  0  0  0  0  0  0  0  0
    3.2435    2.9350   -0.2922 C   0  0  0  0  0  0  0  0  0  0  0  0
    1.9589    3.4684   -0.1458 C   0  0  0  0  0  0  0  0  0  0  0  0
    1.7845    4.7779    0.2386 C   0  0  0  0  0  0  0  0  0  0  0  0
    2.8874    5.5903    0.5056 C   0  0  0  0  0  0  0  0  0  0  0  0
    2.5540    7.2579    0.9772 S   0  0  0  0  0  0  0  0  0  0  0  0
    4.1852    8.0519    0.9506 C   0  0  0  0  0  0  0  0  0  0  0  0
    4.1608    5.0509    0.4128 C   0  0  0  0  0  0  0  0  0  0  0  0
    4.3359    3.7354    0.0190 C   0  0  0  0  0  0  0  0  0  0  0  0
    5.7430    1.1872   -1.3477 C   0  0  0  0  0  0  0  0  0  0  0  0
    6.1134    2.3543   -2.5578 S   0  0  0  0  0  0  0  0  0  0  0  0
    7.7523    1.7089   -2.7127 C   0  0  0  0  0  0  0  0  0  0  0  0
    7.9359    0.5566   -1.9192 C   0  0  0  0  0  0  0  0  0  0  0  0
    9.0657   -0.2080   -1.8645 N   0  0  0  0  0  0  0  0  0  0  0  0
    9.4718   -0.7681   -0.6366 C   0  0  0  0  0  0  0  0  0  0  0  0
    9.4479   -0.0060    0.5308 C   0  0  0  0  0  0  0  0  0  0  0  0
    9.8955   -0.5525    1.7117 C   0  0  0  0  0  0  0  0  0  0  0  0
   10.3546   -1.8688    1.7564 C   0  0  0  0  0  0  0  0  0  0  0  0
   10.8806   -2.4533    3.3329 S   0  0  0  0  0  0  0  0  0  0  0  0
   11.4872   -4.1326    3.0024 C   0  0  0  0  0  0  0  0  0  0  0  0
   10.3745   -2.6284    0.5934 C   0  0  0  0  0  0  0  0  0  0  0  0
    9.9412   -2.0760   -0.5960 C   0  0  0  0  0  0  0  0  0  0  0  0
    9.8819   -0.3785   -2.9917 C   0  0  0  0  0  0  0  0  0  0  0  0
   11.2708   -0.3331   -2.8758 C   0  0  0  0  0  0  0  0  0  0  0  0
   12.0583   -0.3808   -4.0055 C   0  0  0  0  0  0  0  0  0  0  0  0
   11.4759   -0.4655   -5.2673 C   0  0  0  0  0  0  0  0  0  0  0  0
   12.5254   -0.3826   -6.6823 S   0  0  0  0  0  0  0  0  0  0  0  0
   11.4820    0.5540   -7.8417 C   0  0  0  0  0  0  0  0  0  0  0  0
   10.0965   -0.5995   -5.3791 C   0  0  0  0  0  0  0  0  0  0  0  0
    9.3070   -0.5638   -4.2491 C   0  0  0  0  0  0  0  0  0  0  0  0
    6.7978    0.3177   -1.1145 C   0  0  0  0  0  0  0  0  0  0  0  0
    6.3639   -0.8798    0.0607 S   0  0  0  0  0  0  0  0  0  0  0  0
    8.6603    2.3525   -3.5605 C   0  0  0  0  0  0  0  0  0  0  0  0
    8.6300    3.6559   -3.9932 C   0  0  0  0  0  0  0  0  0  0  0  0
    9.3006    4.0181   -5.2640 C   0  0  0  0  0  0  0  0  0  0  0  0
   10.0200    3.3097   -5.9377 O   0  0  0  0  0  0  0  0  0  0  0  0
    8.8447    5.3943   -5.5472 C   0  0  0  0  0  0  0  0  0  0  0  0
    9.0090    6.3614   -6.5503 C   0  0  0  0  0  0  0  0  0  0  0  0
    8.3309    7.5069   -6.2341 C   0  0  0  0  0  0  0  0  0  0  0  0
    8.2577    8.9302   -7.1685 Cl  0  0  0  0  0  0  0  0  0  0  0  0
    7.4910    7.4291   -4.7043 S   0  0  0  0  0  0  0  0  0  0  0  0
    8.0472    5.8209   -4.4964 C   0  0  0  0  0  0  0  0  0  0  0  0
    7.9665    4.8212   -3.4633 C   0  0  0  0  0  0  0  0  0  0  0  0
    7.5628    5.0588   -2.1664 C   0  0  0  0  0  0  0  0  0  0  0  0
    6.9442    6.2608   -1.7850 C   0  0  0  0  0  0  0  0  0  0  0  0
    6.4223    7.2236   -1.4368 N   0  0  0  0  0  0  0  0  0  0  0  0
    7.8218    4.1899   -1.0945 C   0  0  0  0  0  0  0  0  0  0  0  0
    8.0739    3.5492   -0.1724 N   0  0  0  0  0  0  0  0  0  0  0  0
   -7.6058   -2.9474   -0.5623 H   0  0  0  0  0  0  0  0  0  0  0  0
   -9.5047    2.9750    0.2999 H   0  0  0  0  0  0  0  0  0  0  0  0
  -12.0965   -0.3937   -2.4538 H   0  0  0  0  0  0  0  0  0  0  0  0
  -13.2817    2.7782   -3.0000 H   0  0  0  0  0  0  0  0  0  0  0  0
  -15.2381    1.9253   -1.7184 H   0  0  0  0  0  0  0  0  0  0  0  0
  -14.2760    0.7251    0.3956 H   0  0  0  0  0  0  0  0  0  0  0  0
  -12.9492    2.5181    1.8387 H   0  0  0  0  0  0  0  0  0  0  0  0
  -13.0959    4.8244    0.6140 H   0  0  0  0  0  0  0  0  0  0  0  0
  -14.7109    4.5581   -1.5231 H   0  0  0  0  0  0  0  0  0  0  0  0
  -15.5106    3.9621   -0.0470 H   0  0  0  0  0  0  0  0  0  0  0  0
  -11.9960    4.5225   -1.6001 H   0  0  0  0  0  0  0  0  0  0  0  0
   -6.7386   -6.1957   -1.0351 H   0  0  0  0  0  0  0  0  0  0  0  0
   -8.9201   -7.2314   -0.5775 H   0  0  0  0  0  0  0  0  0  0  0  0
  -11.7488   -4.8947    2.5020 H   0  0  0  0  0  0  0  0  0  0  0  0
  -11.0639   -6.0969    3.6452 H   0  0  0  0  0  0  0  0  0  0  0  0
  -12.6289   -6.3963    2.8600 H   0  0  0  0  0  0  0  0  0  0  0  0
   -9.4169   -4.6743    2.8175 H   0  0  0  0  0  0  0  0  0  0  0  0
   -7.2470   -3.6692    2.3793 H   0  0  0  0  0  0  0  0  0  0  0  0
   -4.9763   -6.7604    1.0815 H   0  0  0  0  0  0  0  0  0  0  0  0
   -3.1271   -8.0986    0.1485 H   0  0  0  0  0  0  0  0  0  0  0  0
   -0.4187   -6.0407   -3.5238 H   0  0  0  0  0  0  0  0  0  0  0  0
   -1.9786   -6.8327   -3.9117 H   0  0  0  0  0  0  0  0  0  0  0  0
   -0.4539   -7.7393   -4.0371 H   0  0  0  0  0  0  0  0  0  0  0  0
   -1.9871   -4.8021   -2.3232 H   0  0  0  0  0  0  0  0  0  0  0  0
   -3.8523   -3.4939   -1.4378 H   0  0  0  0  0  0  0  0  0  0  0  0
   -3.9003   -0.4877    4.1727 H   0  0  0  0  0  0  0  0  0  0  0  0
   -4.3113    0.4927    6.3823 H   0  0  0  0  0  0  0  0  0  0  0  0
   -2.1955    4.8920    7.3700 H   0  0  0  0  0  0  0  0  0  0  0  0
   -3.6942    5.1415    8.2931 H   0  0  0  0  0  0  0  0  0  0  0  0
   -3.7678    5.0212    6.5191 H   0  0  0  0  0  0  0  0  0  0  0  0
   -1.8804    3.8483    5.3428 H   0  0  0  0  0  0  0  0  0  0  0  0
   -1.3934    2.8361    3.1889 H   0  0  0  0  0  0  0  0  0  0  0  0
   -1.1641   -0.2639    0.0857 H   0  0  0  0  0  0  0  0  0  0  0  0
   -0.6728    1.0131   -1.9306 H   0  0  0  0  0  0  0  0  0  0  0  0
   -3.1998    2.5399   -3.6148 H   0  0  0  0  0  0  0  0  0  0  0  0
   -1.6665    1.7270   -4.0283 H   0  0  0  0  0  0  0  0  0  0  0  0
   -2.1457    3.2237   -4.8723 H   0  0  0  0  0  0  0  0  0  0  0  0
   -2.7083    4.3925   -0.2985 H   0  0  0  0  0  0  0  0  0  0  0  0
   -3.2236    3.1088    1.7329 H   0  0  0  0  0  0  0  0  0  0  0  0
    0.2583   -3.5366    4.2048 H   0  0  0  0  0  0  0  0  0  0  0  0
   -0.7318   -4.9552    5.9019 H   0  0  0  0  0  0  0  0  0  0  0  0
   -2.3570   -5.8326    7.3381 H   0  0  0  0  0  0  0  0  0  0  0  0
   -2.3242   -7.4847    7.9914 H   0  0  0  0  0  0  0  0  0  0  0  0
   -0.8103   -6.7371    7.4379 H   0  0  0  0  0  0  0  0  0  0  0  0
   -2.0256   -7.6866    2.8740 H   0  0  0  0  0  0  0  0  0  0  0  0
   -1.0454   -6.2367    1.1536 H   0  0  0  0  0  0  0  0  0  0  0  0
    1.5551   -6.2581    1.3652 H   0  0  0  0  0  0  0  0  0  0  0  0
    2.5115   -7.2035   -0.6627 H   0  0  0  0  0  0  0  0  0  0  0  0
    2.9458   -8.4033   -4.0922 H   0  0  0  0  0  0  0  0  0  0  0  0
    3.6582   -8.0916   -2.4961 H   0  0  0  0  0  0  0  0  0  0  0  0
    1.8912   -8.3522   -2.6572 H   0  0  0  0  0  0  0  0  0  0  0  0
    1.1762   -3.8063   -2.8866 H   0  0  0  0  0  0  0  0  0  0  0  0
    0.1999   -2.8481   -0.8284 H   0  0  0  0  0  0  0  0  0  0  0  0
    4.3222    3.6311    2.6897 H   0  0  0  0  0  0  0  0  0  0  0  0
    6.6550    4.2376    3.0336 H   0  0  0  0  0  0  0  0  0  0  0  0
    8.8301    4.2815    1.8359 H   0  0  0  0  0  0  0  0  0  0  0  0
   10.3282    4.3952    2.7923 H   0  0  0  0  0  0  0  0  0  0  0  0
    8.7977    4.9415    3.5090 H   0  0  0  0  0  0  0  0  0  0  0  0
    7.6696    0.0969    3.3721 H   0  0  0  0  0  0  0  0  0  0  0  0
    5.3391   -0.5066    2.9892 H   0  0  0  0  0  0  0  0  0  0  0  0
    1.8645    3.4708    2.4236 H   0  0  0  0  0  0  0  0  0  0  0  0
    0.6926    4.5091    4.3317 H   0  0  0  0  0  0  0  0  0  0  0  0
   -0.6890    2.8828    8.9408 H   0  0  0  0  0  0  0  0  0  0  0  0
   -0.5081    1.6196    7.7068 H   0  0  0  0  0  0  0  0  0  0  0  0
    0.8998    2.1241    8.7040 H   0  0  0  0  0  0  0  0  0  0  0  0
    1.6893    1.1365    6.7713 H   0  0  0  0  0  0  0  0  0  0  0  0
    2.8965    0.1446    4.8936 H   0  0  0  0  0  0  0  0  0  0  0  0
    2.5997   -0.8674   -1.3528 H   0  0  0  0  0  0  0  0  0  0  0  0
    1.2455   -1.5363   -3.2812 H   0  0  0  0  0  0  0  0  0  0  0  0
    1.3504    1.3359   -6.7973 H   0  0  0  0  0  0  0  0  0  0  0  0
   -0.1246    0.7252   -7.5854 H   0  0  0  0  0  0  0  0  0  0  0  0
   -0.2473    2.0434   -6.4016 H   0  0  0  0  0  0  0  0  0  0  0  0
    1.0967    2.5315   -4.5910 H   0  0  0  0  0  0  0  0  0  0  0  0
    2.4388    3.1955   -2.6877 H   0  0  0  0  0  0  0  0  0  0  0  0
    1.0987    2.8477   -0.3481 H   0  0  0  0  0  0  0  0  0  0  0  0
    0.7900    5.1869    0.3335 H   0  0  0  0  0  0  0  0  0  0  0  0
    4.7882    7.6923    1.7800 H   0  0  0  0  0  0  0  0  0  0  0  0
    4.6750    7.8678   -0.0014 H   0  0  0  0  0  0  0  0  0  0  0  0
    3.9935    9.1136    1.0713 H   0  0  0  0  0  0  0  0  0  0  0  0
    5.0344    5.6424    0.6342 H   0  0  0  0  0  0  0  0  0  0  0  0
    5.3388    3.3421   -0.0298 H   0  0  0  0  0  0  0  0  0  0  0  0
    9.1005    1.0160    0.5032 H   0  0  0  0  0  0  0  0  0  0  0  0
    9.9143    0.0431    2.6109 H   0  0  0  0  0  0  0  0  0  0  0  0
   10.6745   -4.7610    2.6500 H   0  0  0  0  0  0  0  0  0  0  0  0
   12.3022   -4.0986    2.2855 H   0  0  0  0  0  0  0  0  0  0  0  0
   11.8512   -4.5031    3.9557 H   0  0  0  0  0  0  0  0  0  0  0  0
   10.7240   -3.6479    0.5964 H   0  0  0  0  0  0  0  0  0  0  0  0
    9.9643   -2.6626   -1.5026 H   0  0  0  0  0  0  0  0  0  0  0  0
   11.7211   -0.2168   -1.9016 H   0  0  0  0  0  0  0  0  0  0  0  0
   13.1318   -0.3114   -3.9258 H   0  0  0  0  0  0  0  0  0  0  0  0
   11.0073    1.3726   -7.3080 H   0  0  0  0  0  0  0  0  0  0  0  0
   10.7469   -0.0972   -8.3056 H   0  0  0  0  0  0  0  0  0  0  0  0
   12.1553    0.9417   -8.5996 H   0  0  0  0  0  0  0  0  0  0  0  0
    9.6335   -0.7223   -6.3449 H   0  0  0  0  0  0  0  0  0  0  0  0
    8.2338   -0.6509   -4.3360 H   0  0  0  0  0  0  0  0  0  0  0  0
    9.4529    1.7596   -3.9999 H   0  0  0  0  0  0  0  0  0  0  0  0
    9.5898    6.2325   -7.4441 H   0  0  0  0  0  0  0  0  0  0  0  0
  1  2  2  0  0  0  0
  2  3  1  0  0  0  0
  3  4  2  0  0  0  0
  3  5  1  0  0  0  0
  5  6  2  0  0  0  0
  6  7  1  0  0  0  0
  7  8  2  0  0  0  0
  8  9  1  0  0  0  0
  9 10  2  0  0  0  0
 10 11  1  0  0  0  0
 11 12  2  0  0  0  0
 12 13  1  0  0  0  0
 13 14  3  0  0  0  0
 12 15  1  0  0  0  0
 15 16  3  0  0  0  0
  8 17  1  0  0  0  0
 17 18  1  0  0  0  0
 18 19  1  0  0  0  0
 19 20  2  0  0  0  0
 20 21  1  0  0  0  0
 21 22  1  0  0  0  0
 21 23  1  0  0  0  0
  1 24  1  0  0  0  0
 24 25  2  0  0  0  0
 25 26  1  0  0  0  0
 26 27  1  0  0  0  0
 27 28  2  0  0  0  0
 28 29  1  0  0  0  0
 29 30  2  0  0  0  0
 30 31  1  0  0  0  0
 31 32  1  0  0  0  0
 30 33  1  0  0  0  0
 33 34  2  0  0  0  0
 26 35  1  0  0  0  0
 35 36  2  0  0  0  0
 36 37  1  0  0  0  0
 37 38  2  0  0  0  0
 38 39  1  0  0  0  0
 39 40  1  0  0  0  0
 38 41  1  0  0  0  0
 41 42  2  0  0  0  0
 25 43  1  0  0  0  0
 43 44  1  0  0  0  0
 44 45  1  0  0  0  0
 45 46  2  0  0  0  0
 46 47  1  0  0  0  0
 47 48  1  0  0  0  0
 48 49  2  0  0  0  0
 49 50  1  0  0  0  0
 50 51  2  0  0  0  0
 51 52  1  0  0  0  0
 52 53  1  0  0  0  0
 51 54  1  0  0  0  0
 54 55  2  0  0  0  0
 47 56  1  0  0  0  0
 56 57  2  0  0  0  0
 57 58  1  0  0  0  0
 58 59  2  0  0  0  0
 59 60  1  0  0  0  0
 60 61  1  0  0  0  0
 59 62  1  0  0  0  0
 62 63  2  0  0  0  0
 46 64  1  0  0  0  0
 64 65  1  0  0  0  0
 45 66  1  0  0  0  0
 66 67  2  0  0  0  0
 67 68  1  0  0  0  0
 68 69  1  0  0  0  0
 69 70  2  0  0  0  0
 70 71  1  0  0  0  0
 71 72  2  0  0  0  0
 72 73  1  0  0  0  0
 73 74  1  0  0  0  0
 72 75  1  0  0  0  0
 75 76  2  0  0  0  0
 68 77  1  0  0  0  0
 77 78  2  0  0  0  0
 78 79  1  0  0  0  0
 79 80  2  0  0  0  0
 80 81  1  0  0  0  0
 81 82  1  0  0  0  0
 80 83  1  0  0  0  0
 83 84  2  0  0  0  0
 67 85  1  0  0  0  0
 85 86  1  0  0  0  0
 86 87  1  0  0  0  0
 87 88  2  0  0  0  0
 88 89  1  0  0  0  0
 89 90  1  0  0  0  0
 90 91  2  0  0  0  0
 91 92  1  0  0  0  0
 92 93  2  0  0  0  0
 93 94  1  0  0  0  0
 94 95  1  0  0  0  0
 93 96  1  0  0  0  0
 96 97  2  0  0  0  0
 89 98  1  0  0  0  0
 98 99  2  0  0  0  0
 99100  1  0  0  0  0
100101  2  0  0  0  0
101102  1  0  0  0  0
102103  1  0  0  0  0
101104  1  0  0  0  0
104105  2  0  0  0  0
 88106  1  0  0  0  0
106107  1  0  0  0  0
 87108  1  0  0  0  0
108109  2  0  0  0  0
109110  1  0  0  0  0
110111  1  0  0  0  0
111112  2  0  0  0  0
112113  1  0  0  0  0
113114  2  0  0  0  0
114115  1  0  0  0  0
115116  1  0  0  0  0
114117  1  0  0  0  0
117118  2  0  0  0  0
110119  1  0  0  0  0
119120  2  0  0  0  0
120121  1  0  0  0  0
121122  2  0  0  0  0
122123  1  0  0  0  0
123124  1  0  0  0  0
122125  1  0  0  0  0
125126  2  0  0  0  0
109127  1  0  0  0  0
127128  1  0  0  0  0
128129  1  0  0  0  0
129130  2  0  0  0  0
130131  1  0  0  0  0
131132  1  0  0  0  0
132133  2  0  0  0  0
133134  1  0  0  0  0
134135  2  0  0  0  0
135136  1  0  0  0  0
136137  1  0  0  0  0
135138  1  0  0  0  0
138139  2  0  0  0  0
131140  1  0  0  0  0
140141  2  0  0  0  0
141142  1  0  0  0  0
142143  2  0  0  0  0
143144  1  0  0  0  0
144145  1  0  0  0  0
143146  1  0  0  0  0
146147  2  0  0  0  0
130148  1  0  0  0  0
148149  1  0  0  0  0
129150  1  0  0  0  0
150151  2  0  0  0  0
151152  1  0  0  0  0
152153  2  0  0  0  0
152154  1  0  0  0  0
154155  1  0  0  0  0
155156  2  0  0  0  0
156157  1  0  0  0  0
156158  1  0  0  0  0
158159  1  0  0  0  0
159160  1  0  0  0  0
160161  2  0  0  0  0
161162  1  0  0  0  0
162163  3  0  0  0  0
161164  1  0  0  0  0
164165  3  0  0  0  0
 11  2  1  0  0  0  0
 23 17  1  0  0  0  0
 65 24  1  0  0  0  0
107 66  1  0  0  0  0
149108  1  0  0  0  0
160151  1  0  0  0  0
 10  5  1  0  0  0  0
 22 18  1  0  0  0  0
 34 27  1  0  0  0  0
 42 35  1  0  0  0  0
 64 43  2  0  0  0  0
 76 69  1  0  0  0  0
 84 77  1  0  0  0  0
106 85  2  0  0  0  0
118111  1  0  0  0  0
126119  1  0  0  0  0
148127  2  0  0  0  0
159154  2  0  0  0  0
 23  7  1  0  0  0  0
 55 48  1  0  0  0  0
 63 56  1  0  0  0  0
 97 90  1  0  0  0  0
105 98  1  0  0  0  0
139132  1  0  0  0  0
147140  1  0  0  0  0
  1166  1  0  0  0  0
  6167  1  0  0  0  0
  9168  1  0  0  0  0
 17169  1  0  0  0  0
 18170  1  0  0  0  0
 19171  1  0  0  0  0
 20172  1  0  0  0  0
 21173  1  0  0  0  0
 22174  1  0  0  0  0
 22175  1  0  0  0  0
 23176  1  0  0  0  0
 28177  1  0  0  0  0
 29178  1  0  0  0  0
 32179  1  0  0  0  0
 32180  1  0  0  0  0
 32181  1  0  0  0  0
 33182  1  0  0  0  0
 34183  1  0  0  0  0
 36184  1  0  0  0  0
 37185  1  0  0  0  0
 40186  1  0  0  0  0
 40187  1  0  0  0  0
 40188  1  0  0  0  0
 41189  1  0  0  0  0
 42190  1  0  0  0  0
 49191  1  0  0  0  0
 50192  1  0  0  0  0
 53193  1  0  0  0  0
 53194  1  0  0  0  0
 53195  1  0  0  0  0
 54196  1  0  0  0  0
 55197  1  0  0  0  0
 57198  1  0  0  0  0
 58199  1  0  0  0  0
 61200  1  0  0  0  0
 61201  1  0  0  0  0
 61202  1  0  0  0  0
 62203  1  0  0  0  0
 63204  1  0  0  0  0
 70205  1  0  0  0  0
 71206  1  0  0  0  0
 74207  1  0  0  0  0
 74208  1  0  0  0  0
 74209  1  0  0  0  0
 75210  1  0  0  0  0
 76211  1  0  0  0  0
 78212  1  0  0  0  0
 79213  1  0  0  0  0
 82214  1  0  0  0  0
 82215  1  0  0  0  0
 82216  1  0  0  0  0
 83217  1  0  0  0  0
 84218  1  0  0  0  0
 91219  1  0  0  0  0
 92220  1  0  0  0  0
 95221  1  0  0  0  0
 95222  1  0  0  0  0
 95223  1  0  0  0  0
 96224  1  0  0  0  0
 97225  1  0  0  0  0
 99226  1  0  0  0  0
100227  1  0  0  0  0
103228  1  0  0  0  0
103229  1  0  0  0  0
103230  1  0  0  0  0
104231  1  0  0  0  0
105232  1  0  0  0  0
112233  1  0  0  0  0
113234  1  0  0  0  0
116235  1  0  0  0  0
116236  1  0  0  0  0
116237  1  0  0  0  0
117238  1  0  0  0  0
118239  1  0  0  0  0
120240  1  0  0  0  0
121241  1  0  0  0  0
124242  1  0  0  0  0
124243  1  0  0  0  0
124244  1  0  0  0  0
125245  1  0  0  0  0
126246  1  0  0  0  0
133247  1  0  0  0  0
134248  1  0  0  0  0
137249  1  0  0  0  0
137250  1  0  0  0  0
137251  1  0  0  0  0
138252  1  0  0  0  0
139253  1  0  0  0  0
141254  1  0  0  0  0
142255  1  0  0  0  0
145256  1  0  0  0  0
145257  1  0  0  0  0
145258  1  0  0  0  0
146259  1  0  0  0  0
147260  1  0  0  0  0
150261  1  0  0  0  0
155262  1  0  0  0  0
M  END
