
  xtb     02122210283D
 energy: -385.226217080200 gnorm: 0.002054826370 xtb: 6.4.1 (unknown)
229252  0     0  0            999 V2000
   -4.6509   -5.3444    6.4944 C   0  0  0  0  0  0  0  0  0  0  0  0
   -3.9142   -6.4003    6.8977 C   0  0  0  0  0  0  0  0  0  0  0  0
   -2.6060   -6.8225    6.3132 C   0  0  0  0  0  0  0  0  0  0  0  0
   -2.1186   -6.4763    5.2608 O   0  0  0  0  0  0  0  0  0  0  0  0
   -1.9989   -7.7083    7.3192 C   0  0  0  0  0  0  0  0  0  0  0  0
   -0.7234   -8.2658    7.2706 C   0  0  0  0  0  0  0  0  0  0  0  0
   -0.3873   -8.9912    8.3860 C   0  0  0  0  0  0  0  0  0  0  0  0
   -1.2546   -9.1568    9.4763 C   0  0  0  0  0  0  0  0  0  0  0  0
   -2.5217   -8.6310    9.5302 C   0  0  0  0  0  0  0  0  0  0  0  0
   -2.8847   -7.8854    8.4028 C   0  0  0  0  0  0  0  0  0  0  0  0
   -4.1171   -7.1659    8.1224 C   0  0  0  0  0  0  0  0  0  0  0  0
   -5.2826   -7.2369    8.8338 C   0  0  0  0  0  0  0  0  0  0  0  0
   -5.4559   -8.0074   10.0034 C   0  0  0  0  0  0  0  0  0  0  0  0
   -5.6618   -8.6037   10.9620 N   0  0  0  0  0  0  0  0  0  0  0  0
   -6.4841   -6.5866    8.4752 C   0  0  0  0  0  0  0  0  0  0  0  0
   -7.5004   -6.1059    8.2429 N   0  0  0  0  0  0  0  0  0  0  0  0
   -0.2364   -9.9387   10.2676 C   0  0  0  0  0  0  0  0  0  0  0  0
    0.5043   -9.1898   11.4044 C   0  0  0  0  0  0  0  0  0  0  0  0
    0.4994   -7.7287   11.0284 C   0  0  0  0  0  0  0  0  0  0  0  0
    1.3133   -7.5727    9.9929 C   0  0  0  0  0  0  0  0  0  0  0  0
    1.8874   -8.9268    9.6530 C   0  0  0  0  0  0  0  0  0  0  0  0
    1.9558   -9.5533   11.0544 C   0  0  0  0  0  0  0  0  0  0  0  0
    0.7261   -9.7574    9.0519 C   0  0  0  0  0  0  0  0  0  0  0  0
   -4.3841   -4.5256    5.3334 C   0  0  0  0  0  0  0  0  0  0  0  0
   -4.4888   -3.1166    5.4855 C   0  0  0  0  0  0  0  0  0  0  0  0
   -4.7952   -2.6115    6.7032 N   0  0  0  0  0  0  0  0  0  0  0  0
   -4.9137   -1.3249    6.8262 C   0  0  0  0  0  0  0  0  0  0  0  0
   -4.7565   -0.4510    5.7096 C   0  0  0  0  0  0  0  0  0  0  0  0
   -4.9805    0.8416    5.8965 O   0  0  0  0  0  0  0  0  0  0  0  0
   -4.9940    1.6737    4.7350 C   0  0  0  0  0  0  0  0  0  0  0  0
   -6.2676    1.4708    3.9289 C   0  0  0  0  0  0  0  0  0  0  0  0
   -4.3770   -0.9131    4.5417 N   0  0  0  0  0  0  0  0  0  0  0  0
   -4.2100   -2.2415    4.4106 C   0  0  0  0  0  0  0  0  0  0  0  0
   -3.6791   -2.7598    3.2014 C   0  0  0  0  0  0  0  0  0  0  0  0
   -3.6231   -4.1328    3.0651 C   0  0  0  0  0  0  0  0  0  0  0  0
   -4.0277   -5.0067    4.0850 C   0  0  0  0  0  0  0  0  0  0  0  0
   -4.1394   -6.3047    3.7953 F   0  0  0  0  0  0  0  0  0  0  0  0
   -3.1788   -4.6570    1.9124 F   0  0  0  0  0  0  0  0  0  0  0  0
   -3.1458   -1.8734    2.1822 C   0  0  0  0  0  0  0  0  0  0  0  0
   -1.8426   -1.8665    1.7231 C   0  0  0  0  0  0  0  0  0  0  0  0
   -0.8076   -2.6632    2.1827 N   0  0  0  0  0  0  0  0  0  0  0  0
    0.1316   -3.1204    1.2431 C   0  0  0  0  0  0  0  0  0  0  0  0
    1.4857   -3.1733    1.5631 C   0  0  0  0  0  0  0  0  0  0  0  0
    2.4035   -3.6418    0.6458 C   0  0  0  0  0  0  0  0  0  0  0  0
    1.9776   -4.0658   -0.6059 C   0  0  0  0  0  0  0  0  0  0  0  0
    3.0948   -4.7339   -1.8029 S   0  0  0  0  0  0  0  0  0  0  0  0
    4.2714   -5.6235   -0.7356 C   0  0  0  0  0  0  0  0  0  0  0  0
    0.6327   -3.9805   -0.9449 C   0  0  0  0  0  0  0  0  0  0  0  0
   -0.2849   -3.5156   -0.0275 C   0  0  0  0  0  0  0  0  0  0  0  0
   -0.7287   -3.0545    3.5230 C   0  0  0  0  0  0  0  0  0  0  0  0
   -1.1830   -2.2127    4.5381 C   0  0  0  0  0  0  0  0  0  0  0  0
   -1.2190   -2.6421    5.8500 C   0  0  0  0  0  0  0  0  0  0  0  0
   -0.7588   -3.9092    6.1779 C   0  0  0  0  0  0  0  0  0  0  0  0
   -0.8558   -4.5976    7.8038 S   0  0  0  0  0  0  0  0  0  0  0  0
   -2.0951   -3.5624    8.6365 C   0  0  0  0  0  0  0  0  0  0  0  0
   -0.1940   -4.7072    5.1868 C   0  0  0  0  0  0  0  0  0  0  0  0
   -0.1989   -4.2964    3.8724 C   0  0  0  0  0  0  0  0  0  0  0  0
   -1.6768   -0.8803    0.7186 C   0  0  0  0  0  0  0  0  0  0  0  0
   -0.3616   -0.3755   -0.2748 S   0  0  0  0  0  0  0  0  0  0  0  0
   -1.3905    0.8008   -1.0975 C   0  0  0  0  0  0  0  0  0  0  0  0
   -2.6947    0.7611   -0.6320 C   0  0  0  0  0  0  0  0  0  0  0  0
   -3.8197    1.4413   -1.1189 N   0  0  0  0  0  0  0  0  0  0  0  0
   -4.4479    2.2703   -0.1778 C   0  0  0  0  0  0  0  0  0  0  0  0
   -3.6292    3.0316    0.6556 C   0  0  0  0  0  0  0  0  0  0  0  0
   -4.1500    3.9624    1.5273 C   0  0  0  0  0  0  0  0  0  0  0  0
   -5.5230    4.1503    1.5930 C   0  0  0  0  0  0  0  0  0  0  0  0
   -6.2835    5.3692    2.6208 S   0  0  0  0  0  0  0  0  0  0  0  0
   -4.9023    6.4771    3.0269 C   0  0  0  0  0  0  0  0  0  0  0  0
   -6.3555    3.3135    0.8510 C   0  0  0  0  0  0  0  0  0  0  0  0
   -5.8296    2.3696   -0.0067 C   0  0  0  0  0  0  0  0  0  0  0  0
   -4.3266    1.1324   -2.3813 C   0  0  0  0  0  0  0  0  0  0  0  0
   -3.7178    0.1528   -3.1715 C   0  0  0  0  0  0  0  0  0  0  0  0
   -4.1886   -0.1341   -4.4343 C   0  0  0  0  0  0  0  0  0  0  0  0
   -5.2977    0.5297   -4.9451 C   0  0  0  0  0  0  0  0  0  0  0  0
   -5.8064    0.1399   -6.5943 S   0  0  0  0  0  0  0  0  0  0  0  0
   -7.5179    0.7486   -6.6566 C   0  0  0  0  0  0  0  0  0  0  0  0
   -5.9221    1.4883   -4.1635 C   0  0  0  0  0  0  0  0  0  0  0  0
   -5.4376    1.7898   -2.9079 C   0  0  0  0  0  0  0  0  0  0  0  0
   -2.8271   -0.1666    0.4318 C   0  0  0  0  0  0  0  0  0  0  0  0
   -4.1427   -0.6368    1.4508 S   0  0  0  0  0  0  0  0  0  0  0  0
   -0.7113    1.6146   -2.0586 C   0  0  0  0  0  0  0  0  0  0  0  0
   -0.9315    2.9004   -2.5160 C   0  0  0  0  0  0  0  0  0  0  0  0
   -2.0232    3.7495   -2.2205 N   0  0  0  0  0  0  0  0  0  0  0  0
   -2.9993    3.8929   -3.2160 C   0  0  0  0  0  0  0  0  0  0  0  0
   -4.2073    4.5437   -2.9531 C   0  0  0  0  0  0  0  0  0  0  0  0
   -5.1436    4.7131   -3.9492 C   0  0  0  0  0  0  0  0  0  0  0  0
   -4.9274    4.1978   -5.2243 C   0  0  0  0  0  0  0  0  0  0  0  0
   -6.2096    4.4343   -6.4171 S   0  0  0  0  0  0  0  0  0  0  0  0
   -5.4992    3.7749   -7.9532 C   0  0  0  0  0  0  0  0  0  0  0  0
   -3.7638    3.4893   -5.4747 C   0  0  0  0  0  0  0  0  0  0  0  0
   -2.8142    3.3446   -4.4835 C   0  0  0  0  0  0  0  0  0  0  0  0
   -1.7414    4.7563   -1.2849 C   0  0  0  0  0  0  0  0  0  0  0  0
   -2.2339    6.0546   -1.3941 C   0  0  0  0  0  0  0  0  0  0  0  0
   -2.0380    6.9802   -0.3873 C   0  0  0  0  0  0  0  0  0  0  0  0
   -1.3078    6.6422    0.7421 C   0  0  0  0  0  0  0  0  0  0  0  0
   -1.0862    7.7056    2.1400 S   0  0  0  0  0  0  0  0  0  0  0  0
   -1.6281    9.3306    1.5381 C   0  0  0  0  0  0  0  0  0  0  0  0
   -0.7164    5.3841    0.8093 C   0  0  0  0  0  0  0  0  0  0  0  0
   -0.9213    4.4598   -0.1901 C   0  0  0  0  0  0  0  0  0  0  0  0
    0.1442    3.3547   -3.3098 C   0  0  0  0  0  0  0  0  0  0  0  0
    0.4185    4.8167   -4.1771 S   0  0  0  0  0  0  0  0  0  0  0  0
    1.9920    4.2193   -4.7252 C   0  0  0  0  0  0  0  0  0  0  0  0
    2.2328    2.8966   -4.3003 C   0  0  0  0  0  0  0  0  0  0  0  0
    3.2569    2.0817   -4.6986 N   0  0  0  0  0  0  0  0  0  0  0  0
    3.8919    2.2477   -5.9362 C   0  0  0  0  0  0  0  0  0  0  0  0
    3.1581    2.5597   -7.0787 C   0  0  0  0  0  0  0  0  0  0  0  0
    3.7888    2.7934   -8.2829 C   0  0  0  0  0  0  0  0  0  0  0  0
    5.1758    2.7267   -8.3675 C   0  0  0  0  0  0  0  0  0  0  0  0
    6.0980    3.1010   -9.8186 S   0  0  0  0  0  0  0  0  0  0  0  0
    4.8457    3.6234  -11.0220 C   0  0  0  0  0  0  0  0  0  0  0  0
    5.9092    2.3539   -7.2417 C   0  0  0  0  0  0  0  0  0  0  0  0
    5.2781    2.1123   -6.0420 C   0  0  0  0  0  0  0  0  0  0  0  0
    3.7085    1.0616   -3.8407 C   0  0  0  0  0  0  0  0  0  0  0  0
    3.8388    1.2886   -2.4712 C   0  0  0  0  0  0  0  0  0  0  0  0
    4.3362    0.2988   -1.6531 C   0  0  0  0  0  0  0  0  0  0  0  0
    4.7182   -0.9299   -2.1856 C   0  0  0  0  0  0  0  0  0  0  0  0
    5.4231   -2.1074   -1.0798 S   0  0  0  0  0  0  0  0  0  0  0  0
    6.3788   -3.1793   -2.1963 C   0  0  0  0  0  0  0  0  0  0  0  0
    4.5561   -1.1715   -3.5435 C   0  0  0  0  0  0  0  0  0  0  0  0
    4.0559   -0.1802   -4.3638 C   0  0  0  0  0  0  0  0  0  0  0  0
    1.1780    2.4458   -3.4734 C   0  0  0  0  0  0  0  0  0  0  0  0
    0.8193    0.9675   -2.6488 S   0  0  0  0  0  0  0  0  0  0  0  0
    2.7465    5.0866   -5.5238 C   0  0  0  0  0  0  0  0  0  0  0  0
    4.1137    5.0613   -5.6790 C   0  0  0  0  0  0  0  0  0  0  0  0
    5.0489    4.5382   -4.6683 C   0  0  0  0  0  0  0  0  0  0  0  0
    4.7685    4.0003   -3.6132 O   0  0  0  0  0  0  0  0  0  0  0  0
    6.3976    4.9183   -5.1387 C   0  0  0  0  0  0  0  0  0  0  0  0
    7.6115    4.6532   -4.5130 C   0  0  0  0  0  0  0  0  0  0  0  0
    8.7097    5.1108   -5.2031 C   0  0  0  0  0  0  0  0  0  0  0  0
    8.6087    5.7816   -6.4280 C   0  0  0  0  0  0  0  0  0  0  0  0
    7.4155    6.0559   -7.0541 C   0  0  0  0  0  0  0  0  0  0  0  0
    6.2894    5.6043   -6.3645 C   0  0  0  0  0  0  0  0  0  0  0  0
    4.8772    5.6819   -6.7251 C   0  0  0  0  0  0  0  0  0  0  0  0
    4.3712    6.1168   -7.9261 C   0  0  0  0  0  0  0  0  0  0  0  0
    5.1369    6.6745   -8.9665 C   0  0  0  0  0  0  0  0  0  0  0  0
    5.6901    7.1342   -9.8625 N   0  0  0  0  0  0  0  0  0  0  0  0
    3.0219    5.9740   -8.3028 C   0  0  0  0  0  0  0  0  0  0  0  0
    1.9543    5.8387   -8.7075 N   0  0  0  0  0  0  0  0  0  0  0  0
   10.1027    5.9436   -6.5554 C   0  0  0  0  0  0  0  0  0  0  0  0
   10.7104    7.3332   -6.2439 C   0  0  0  0  0  0  0  0  0  0  0  0
    9.7671    8.0066   -5.2783 C   0  0  0  0  0  0  0  0  0  0  0  0
    9.8607    7.3765   -4.1150 C   0  0  0  0  0  0  0  0  0  0  0  0
   10.8695    6.2657   -4.2728 C   0  0  0  0  0  0  0  0  0  0  0  0
   11.8323    6.9158   -5.2796 C   0  0  0  0  0  0  0  0  0  0  0  0
   10.2159    5.1996   -5.1873 C   0  0  0  0  0  0  0  0  0  0  0  0
   -5.4425   -4.9684    7.1297 H   0  0  0  0  0  0  0  0  0  0  0  0
   -0.0815   -8.1100    6.4182 H   0  0  0  0  0  0  0  0  0  0  0  0
   -3.1790   -8.7596   10.3742 H   0  0  0  0  0  0  0  0  0  0  0  0
   -0.5196  -10.9503   10.5508 H   0  0  0  0  0  0  0  0  0  0  0  0
    0.1548   -9.4303   12.4048 H   0  0  0  0  0  0  0  0  0  0  0  0
   -0.1230   -6.9906   11.4991 H   0  0  0  0  0  0  0  0  0  0  0  0
    1.4977   -6.6802    9.4242 H   0  0  0  0  0  0  0  0  0  0  0  0
    2.7974   -8.9273    9.0587 H   0  0  0  0  0  0  0  0  0  0  0  0
    2.1435  -10.6261   11.0413 H   0  0  0  0  0  0  0  0  0  0  0  0
    2.6805   -9.0607   11.7008 H   0  0  0  0  0  0  0  0  0  0  0  0
    1.0736  -10.6511    8.5377 H   0  0  0  0  0  0  0  0  0  0  0  0
   -5.1415   -0.9302    7.8052 H   0  0  0  0  0  0  0  0  0  0  0  0
   -4.1156    1.4559    4.1199 H   0  0  0  0  0  0  0  0  0  0  0  0
   -4.9355    2.6912    5.1258 H   0  0  0  0  0  0  0  0  0  0  0  0
   -6.2939    2.1782    3.1071 H   0  0  0  0  0  0  0  0  0  0  0  0
   -7.1383    1.6263    4.5611 H   0  0  0  0  0  0  0  0  0  0  0  0
   -6.2960    0.4636    3.5207 H   0  0  0  0  0  0  0  0  0  0  0  0
    1.8166   -2.8451    2.5372 H   0  0  0  0  0  0  0  0  0  0  0  0
    3.4496   -3.6598    0.9060 H   0  0  0  0  0  0  0  0  0  0  0  0
    4.8191   -6.3008   -1.3833 H   0  0  0  0  0  0  0  0  0  0  0  0
    3.7156   -6.1860    0.0076 H   0  0  0  0  0  0  0  0  0  0  0  0
    4.9565   -4.9260   -0.2632 H   0  0  0  0  0  0  0  0  0  0  0  0
    0.3111   -4.3025   -1.9233 H   0  0  0  0  0  0  0  0  0  0  0  0
   -1.3345   -3.4885   -0.2789 H   0  0  0  0  0  0  0  0  0  0  0  0
   -1.5275   -1.2179    4.2962 H   0  0  0  0  0  0  0  0  0  0  0  0
   -1.6032   -1.9769    6.6080 H   0  0  0  0  0  0  0  0  0  0  0  0
   -1.6777   -2.5853    8.8620 H   0  0  0  0  0  0  0  0  0  0  0  0
   -2.3316   -4.0788    9.5621 H   0  0  0  0  0  0  0  0  0  0  0  0
   -2.9858   -3.4780    8.0186 H   0  0  0  0  0  0  0  0  0  0  0  0
    0.2238   -5.6636    5.4532 H   0  0  0  0  0  0  0  0  0  0  0  0
    0.1829   -4.9516    3.1054 H   0  0  0  0  0  0  0  0  0  0  0  0
   -2.5612    2.9044    0.6070 H   0  0  0  0  0  0  0  0  0  0  0  0
   -3.4716    4.5408    2.1326 H   0  0  0  0  0  0  0  0  0  0  0  0
   -4.3781    6.7506    2.1160 H   0  0  0  0  0  0  0  0  0  0  0  0
   -5.3511    7.3553    3.4799 H   0  0  0  0  0  0  0  0  0  0  0  0
   -4.2287    6.0038    3.7354 H   0  0  0  0  0  0  0  0  0  0  0  0
   -7.4256    3.4105    0.9565 H   0  0  0  0  0  0  0  0  0  0  0  0
   -6.4949    1.7010   -0.5287 H   0  0  0  0  0  0  0  0  0  0  0  0
   -2.8670   -0.3968   -2.8008 H   0  0  0  0  0  0  0  0  0  0  0  0
   -3.6978   -0.8846   -5.0351 H   0  0  0  0  0  0  0  0  0  0  0  0
   -8.0774    0.3297   -5.8270 H   0  0  0  0  0  0  0  0  0  0  0  0
   -7.9239    0.3915   -7.5972 H   0  0  0  0  0  0  0  0  0  0  0  0
   -7.5400    1.8338   -6.6353 H   0  0  0  0  0  0  0  0  0  0  0  0
   -6.7827    2.0278   -4.5234 H   0  0  0  0  0  0  0  0  0  0  0  0
   -5.9207    2.5762   -2.3559 H   0  0  0  0  0  0  0  0  0  0  0  0
   -4.4222    4.8955   -1.9556 H   0  0  0  0  0  0  0  0  0  0  0  0
   -6.0685    5.2296   -3.7405 H   0  0  0  0  0  0  0  0  0  0  0  0
   -5.3157    2.7081   -7.8566 H   0  0  0  0  0  0  0  0  0  0  0  0
   -6.2464    3.9529   -8.7206 H   0  0  0  0  0  0  0  0  0  0  0  0
   -4.5870    4.3124   -8.1938 H   0  0  0  0  0  0  0  0  0  0  0  0
   -3.5756    3.0407   -6.4359 H   0  0  0  0  0  0  0  0  0  0  0  0
   -1.9219    2.7842   -4.7134 H   0  0  0  0  0  0  0  0  0  0  0  0
   -2.7703    6.3574   -2.2792 H   0  0  0  0  0  0  0  0  0  0  0  0
   -2.4590    7.9660   -0.5050 H   0  0  0  0  0  0  0  0  0  0  0  0
   -1.3880   10.0315    2.3314 H   0  0  0  0  0  0  0  0  0  0  0  0
   -1.0789    9.5874    0.6376 H   0  0  0  0  0  0  0  0  0  0  0  0
   -2.6997    9.3313    1.3612 H   0  0  0  0  0  0  0  0  0  0  0  0
   -0.1004    5.1364    1.6605 H   0  0  0  0  0  0  0  0  0  0  0  0
   -0.4423    3.4942   -0.1191 H   0  0  0  0  0  0  0  0  0  0  0  0
    2.0821    2.6301   -7.0248 H   0  0  0  0  0  0  0  0  0  0  0  0
    3.1876    3.0373   -9.1433 H   0  0  0  0  0  0  0  0  0  0  0  0
    5.4023    3.9228  -11.9045 H   0  0  0  0  0  0  0  0  0  0  0  0
    4.2875    4.4727  -10.6395 H   0  0  0  0  0  0  0  0  0  0  0  0
    4.1891    2.7922  -11.2619 H   0  0  0  0  0  0  0  0  0  0  0  0
    6.9832    2.2803   -7.3172 H   0  0  0  0  0  0  0  0  0  0  0  0
    5.8540    1.8383   -5.1713 H   0  0  0  0  0  0  0  0  0  0  0  0
    3.6012    2.2611   -2.0706 H   0  0  0  0  0  0  0  0  0  0  0  0
    4.4593    0.4759   -0.5958 H   0  0  0  0  0  0  0  0  0  0  0  0
    6.9590   -2.5610   -2.8740 H   0  0  0  0  0  0  0  0  0  0  0  0
    7.0442   -3.7581   -1.5630 H   0  0  0  0  0  0  0  0  0  0  0  0
    5.7125   -3.8439   -2.7391 H   0  0  0  0  0  0  0  0  0  0  0  0
    4.8071   -2.1283   -3.9714 H   0  0  0  0  0  0  0  0  0  0  0  0
    3.9377   -0.3676   -5.4210 H   0  0  0  0  0  0  0  0  0  0  0  0
    2.1844    5.8661   -6.0254 H   0  0  0  0  0  0  0  0  0  0  0  0
    7.6477    4.1239   -3.5733 H   0  0  0  0  0  0  0  0  0  0  0  0
    7.3503    6.5767   -7.9951 H   0  0  0  0  0  0  0  0  0  0  0  0
   10.5572    5.4773   -7.4273 H   0  0  0  0  0  0  0  0  0  0  0  0
   10.9919    7.9097   -7.1211 H   0  0  0  0  0  0  0  0  0  0  0  0
    9.1067    8.8098   -5.5482 H   0  0  0  0  0  0  0  0  0  0  0  0
    9.2938    7.5477   -3.2185 H   0  0  0  0  0  0  0  0  0  0  0  0
   11.2972    5.8719   -3.3542 H   0  0  0  0  0  0  0  0  0  0  0  0
   12.5412    6.2140   -5.7171 H   0  0  0  0  0  0  0  0  0  0  0  0
   12.3676    7.7672   -4.8617 H   0  0  0  0  0  0  0  0  0  0  0  0
   10.7508    4.2518   -5.1650 H   0  0  0  0  0  0  0  0  0  0  0  0
  1  2  2  0  0  0  0
  2  3  1  0  0  0  0
  3  4  2  0  0  0  0
  3  5  1  0  0  0  0
  5  6  2  0  0  0  0
  6  7  1  0  0  0  0
  7  8  2  0  0  0  0
  8  9  1  0  0  0  0
  9 10  2  0  0  0  0
 10 11  1  0  0  0  0
 11 12  2  0  0  0  0
 12 13  1  0  0  0  0
 13 14  3  0  0  0  0
 12 15  1  0  0  0  0
 15 16  3  0  0  0  0
  8 17  1  0  0  0  0
 17 18  1  0  0  0  0
 18 19  1  0  0  0  0
 19 20  2  0  0  0  0
 20 21  1  0  0  0  0
 21 22  1  0  0  0  0
 21 23  1  0  0  0  0
  1 24  1  0  0  0  0
 24 25  1  0  0  0  0
 25 26  2  0  0  0  0
 26 27  1  0  0  0  0
 27 28  2  0  0  0  0
 28 29  1  0  0  0  0
 29 30  1  0  0  0  0
 30 31  1  0  0  0  0
 28 32  1  0  0  0  0
 32 33  2  0  0  0  0
 33 34  1  0  0  0  0
 34 35  2  0  0  0  0
 35 36  1  0  0  0  0
 36 37  1  0  0  0  0
 35 38  1  0  0  0  0
 34 39  1  0  0  0  0
 39 40  2  0  0  0  0
 40 41  1  0  0  0  0
 41 42  1  0  0  0  0
 42 43  2  0  0  0  0
 43 44  1  0  0  0  0
 44 45  2  0  0  0  0
 45 46  1  0  0  0  0
 46 47  1  0  0  0  0
 45 48  1  0  0  0  0
 48 49  2  0  0  0  0
 41 50  1  0  0  0  0
 50 51  2  0  0  0  0
 51 52  1  0  0  0  0
 52 53  2  0  0  0  0
 53 54  1  0  0  0  0
 54 55  1  0  0  0  0
 53 56  1  0  0  0  0
 56 57  2  0  0  0  0
 40 58  1  0  0  0  0
 58 59  1  0  0  0  0
 59 60  1  0  0  0  0
 60 61  2  0  0  0  0
 61 62  1  0  0  0  0
 62 63  1  0  0  0  0
 63 64  2  0  0  0  0
 64 65  1  0  0  0  0
 65 66  2  0  0  0  0
 66 67  1  0  0  0  0
 67 68  1  0  0  0  0
 66 69  1  0  0  0  0
 69 70  2  0  0  0  0
 62 71  1  0  0  0  0
 71 72  2  0  0  0  0
 72 73  1  0  0  0  0
 73 74  2  0  0  0  0
 74 75  1  0  0  0  0
 75 76  1  0  0  0  0
 74 77  1  0  0  0  0
 77 78  2  0  0  0  0
 61 79  1  0  0  0  0
 79 80  1  0  0  0  0
 60 81  1  0  0  0  0
 81 82  2  0  0  0  0
 82 83  1  0  0  0  0
 83 84  1  0  0  0  0
 84 85  2  0  0  0  0
 85 86  1  0  0  0  0
 86 87  2  0  0  0  0
 87 88  1  0  0  0  0
 88 89  1  0  0  0  0
 87 90  1  0  0  0  0
 90 91  2  0  0  0  0
 83 92  1  0  0  0  0
 92 93  2  0  0  0  0
 93 94  1  0  0  0  0
 94 95  2  0  0  0  0
 95 96  1  0  0  0  0
 96 97  1  0  0  0  0
 95 98  1  0  0  0  0
 98 99  2  0  0  0  0
 82100  1  0  0  0  0
100101  1  0  0  0  0
101102  1  0  0  0  0
102103  2  0  0  0  0
103104  1  0  0  0  0
104105  1  0  0  0  0
105106  2  0  0  0  0
106107  1  0  0  0  0
107108  2  0  0  0  0
108109  1  0  0  0  0
109110  1  0  0  0  0
108111  1  0  0  0  0
111112  2  0  0  0  0
104113  1  0  0  0  0
113114  2  0  0  0  0
114115  1  0  0  0  0
115116  2  0  0  0  0
116117  1  0  0  0  0
117118  1  0  0  0  0
116119  1  0  0  0  0
119120  2  0  0  0  0
103121  1  0  0  0  0
121122  1  0  0  0  0
102123  1  0  0  0  0
123124  2  0  0  0  0
124125  1  0  0  0  0
125126  2  0  0  0  0
125127  1  0  0  0  0
127128  2  0  0  0  0
128129  1  0  0  0  0
129130  2  0  0  0  0
130131  1  0  0  0  0
131132  2  0  0  0  0
132133  1  0  0  0  0
133134  2  0  0  0  0
134135  1  0  0  0  0
135136  3  0  0  0  0
134137  1  0  0  0  0
137138  3  0  0  0  0
130139  1  0  0  0  0
139140  1  0  0  0  0
140141  1  0  0  0  0
141142  2  0  0  0  0
142143  1  0  0  0  0
143144  1  0  0  0  0
143145  1  0  0  0  0
 11  2  1  0  0  0  0
 23 17  1  0  0  0  0
 36 24  2  0  0  0  0
 80 39  1  0  0  0  0
122 81  1  0  0  0  0
133124  1  0  0  0  0
145139  1  0  0  0  0
 10  5  1  0  0  0  0
 22 18  1  0  0  0  0
 33 25  1  0  0  0  0
 49 42  1  0  0  0  0
 57 50  1  0  0  0  0
 79 58  2  0  0  0  0
 91 84  1  0  0  0  0
 99 92  1  0  0  0  0
121100  2  0  0  0  0
132127  1  0  0  0  0
144140  1  0  0  0  0
 23  7  1  0  0  0  0
 70 63  1  0  0  0  0
 78 71  1  0  0  0  0
112105  1  0  0  0  0
120113  1  0  0  0  0
145129  1  0  0  0  0
  1146  1  0  0  0  0
  6147  1  0  0  0  0
  9148  1  0  0  0  0
 17149  1  0  0  0  0
 18150  1  0  0  0  0
 19151  1  0  0  0  0
 20152  1  0  0  0  0
 21153  1  0  0  0  0
 22154  1  0  0  0  0
 22155  1  0  0  0  0
 23156  1  0  0  0  0
 27157  1  0  0  0  0
 30158  1  0  0  0  0
 30159  1  0  0  0  0
 31160  1  0  0  0  0
 31161  1  0  0  0  0
 31162  1  0  0  0  0
 43163  1  0  0  0  0
 44164  1  0  0  0  0
 47165  1  0  0  0  0
 47166  1  0  0  0  0
 47167  1  0  0  0  0
 48168  1  0  0  0  0
 49169  1  0  0  0  0
 51170  1  0  0  0  0
 52171  1  0  0  0  0
 55172  1  0  0  0  0
 55173  1  0  0  0  0
 55174  1  0  0  0  0
 56175  1  0  0  0  0
 57176  1  0  0  0  0
 64177  1  0  0  0  0
 65178  1  0  0  0  0
 68179  1  0  0  0  0
 68180  1  0  0  0  0
 68181  1  0  0  0  0
 69182  1  0  0  0  0
 70183  1  0  0  0  0
 72184  1  0  0  0  0
 73185  1  0  0  0  0
 76186  1  0  0  0  0
 76187  1  0  0  0  0
 76188  1  0  0  0  0
 77189  1  0  0  0  0
 78190  1  0  0  0  0
 85191  1  0  0  0  0
 86192  1  0  0  0  0
 89193  1  0  0  0  0
 89194  1  0  0  0  0
 89195  1  0  0  0  0
 90196  1  0  0  0  0
 91197  1  0  0  0  0
 93198  1  0  0  0  0
 94199  1  0  0  0  0
 97200  1  0  0  0  0
 97201  1  0  0  0  0
 97202  1  0  0  0  0
 98203  1  0  0  0  0
 99204  1  0  0  0  0
106205  1  0  0  0  0
107206  1  0  0  0  0
110207  1  0  0  0  0
110208  1  0  0  0  0
110209  1  0  0  0  0
111210  1  0  0  0  0
112211  1  0  0  0  0
114212  1  0  0  0  0
115213  1  0  0  0  0
118214  1  0  0  0  0
118215  1  0  0  0  0
118216  1  0  0  0  0
119217  1  0  0  0  0
120218  1  0  0  0  0
123219  1  0  0  0  0
128220  1  0  0  0  0
131221  1  0  0  0  0
139222  1  0  0  0  0
140223  1  0  0  0  0
141224  1  0  0  0  0
142225  1  0  0  0  0
143226  1  0  0  0  0
144227  1  0  0  0  0
144228  1  0  0  0  0
145229  1  0  0  0  0
M  END
