
  xtb     02072212383D
 energy: -301.748568354164 gnorm: 0.000341046539 xtb: 6.4.1 (unknown)
180199  0     0  0            999 V2000
    2.2540   -4.4135   -6.3560 C   0  0  0  0  0  0  0  0  0  0  0  0
    2.2045   -3.4822   -7.3648 C   0  0  0  0  0  0  0  0  0  0  0  0
    1.3145   -2.3234   -7.4034 C   0  0  0  0  0  0  0  0  0  0  0  0
    0.5097   -1.9710   -6.5523 O   0  0  0  0  0  0  0  0  0  0  0  0
    1.5553   -1.6558   -8.6922 C   0  0  0  0  0  0  0  0  0  0  0  0
    0.9198   -0.5159   -9.1795 C   0  0  0  0  0  0  0  0  0  0  0  0
    1.3503   -0.1260  -10.4249 C   0  0  0  0  0  0  0  0  0  0  0  0
    2.3377   -0.8210  -11.1349 C   0  0  0  0  0  0  0  0  0  0  0  0
    2.9715   -1.9477  -10.6654 C   0  0  0  0  0  0  0  0  0  0  0  0
    2.5521   -2.3598   -9.3975 C   0  0  0  0  0  0  0  0  0  0  0  0
    2.9920   -3.4899   -8.5778 C   0  0  0  0  0  0  0  0  0  0  0  0
    4.0046   -4.3573   -8.9006 C   0  0  0  0  0  0  0  0  0  0  0  0
    4.7522   -4.3034  -10.0951 C   0  0  0  0  0  0  0  0  0  0  0  0
    5.4013   -4.3253  -11.0424 N   0  0  0  0  0  0  0  0  0  0  0  0
    4.4740   -5.4148   -8.0957 C   0  0  0  0  0  0  0  0  0  0  0  0
    4.9318   -6.2929   -7.5120 N   0  0  0  0  0  0  0  0  0  0  0  0
    2.2790    0.1300  -12.3046 C   0  0  0  0  0  0  0  0  0  0  0  0
    3.4190    1.1653  -12.4079 C   0  0  0  0  0  0  0  0  0  0  0  0
    2.8585    2.2302  -13.3228 C   0  0  0  0  0  0  0  0  0  0  0  0
    1.9235    2.8889  -12.6500 C   0  0  0  0  0  0  0  0  0  0  0  0
    1.8364    2.2802  -11.2691 C   0  0  0  0  0  0  0  0  0  0  0  0
    3.3050    1.8891  -11.0600 C   0  0  0  0  0  0  0  0  0  0  0  0
    1.1780    0.9054  -11.5120 C   0  0  0  0  0  0  0  0  0  0  0  0
    1.6054   -4.4138   -5.1210 C   0  0  0  0  0  0  0  0  0  0  0  0
    0.5845   -3.1544   -4.4487 S   0  0  0  0  0  0  0  0  0  0  0  0
    0.5383   -3.9248   -2.8909 C   0  0  0  0  0  0  0  0  0  0  0  0
    1.1901   -5.1519   -2.9024 C   0  0  0  0  0  0  0  0  0  0  0  0
    1.4000   -6.2195   -1.9831 C   0  0  0  0  0  0  0  0  0  0  0  0
    2.1243   -7.2305   -2.5128 C   0  0  0  0  0  0  0  0  0  0  0  0
    2.5474   -8.5039   -1.8678 C   0  0  0  0  0  0  0  0  0  0  0  0
    4.0680   -8.5927   -1.7318 C   0  0  0  0  0  0  0  0  0  0  0  0
    2.6081   -6.9184   -4.1786 S   0  0  0  0  0  0  0  0  0  0  0  0
    1.7804   -5.4074   -4.1564 C   0  0  0  0  0  0  0  0  0  0  0  0
   -0.0096   -3.2161   -1.7855 C   0  0  0  0  0  0  0  0  0  0  0  0
    0.5684   -3.0168   -0.5379 C   0  0  0  0  0  0  0  0  0  0  0  0
    1.8097   -3.5078   -0.1543 N   0  0  0  0  0  0  0  0  0  0  0  0
    1.9758   -3.9555    1.1556 C   0  0  0  0  0  0  0  0  0  0  0  0
    3.1835   -3.7818    1.8319 C   0  0  0  0  0  0  0  0  0  0  0  0
    3.3233   -4.2303    3.1273 C   0  0  0  0  0  0  0  0  0  0  0  0
    2.2637   -4.8586    3.7747 C   0  0  0  0  0  0  0  0  0  0  0  0
    2.5090   -5.3918    5.4471 S   0  0  0  0  0  0  0  0  0  0  0  0
    1.4987   -6.9054    5.5147 C   0  0  0  0  0  0  0  0  0  0  0  0
    1.0555   -5.0230    3.1122 C   0  0  0  0  0  0  0  0  0  0  0  0
    0.9163   -4.5805    1.8135 C   0  0  0  0  0  0  0  0  0  0  0  0
    2.8455   -3.5339   -1.1002 C   0  0  0  0  0  0  0  0  0  0  0  0
    2.9319   -2.5278   -2.0650 C   0  0  0  0  0  0  0  0  0  0  0  0
    3.8080   -2.6453   -3.1188 C   0  0  0  0  0  0  0  0  0  0  0  0
    4.6380   -3.7597   -3.2267 C   0  0  0  0  0  0  0  0  0  0  0  0
    5.6136   -3.8782   -4.6926 S   0  0  0  0  0  0  0  0  0  0  0  0
    6.2382   -5.5803   -4.6528 C   0  0  0  0  0  0  0  0  0  0  0  0
    4.6404   -4.7014   -2.2065 C   0  0  0  0  0  0  0  0  0  0  0  0
    3.7485   -4.5912   -1.1559 C   0  0  0  0  0  0  0  0  0  0  0  0
   -0.1937   -2.1090    0.2350 C   0  0  0  0  0  0  0  0  0  0  0  0
   -0.0596   -1.4762    1.8427 S   0  0  0  0  0  0  0  0  0  0  0  0
   -1.4009   -0.3934    1.5298 C   0  0  0  0  0  0  0  0  0  0  0  0
   -2.0208   -0.6317    0.3038 C   0  0  0  0  0  0  0  0  0  0  0  0
   -3.2264   -0.1043   -0.1064 N   0  0  0  0  0  0  0  0  0  0  0  0
   -3.4320    0.0921   -1.4785 C   0  0  0  0  0  0  0  0  0  0  0  0
   -2.3827    0.5487   -2.2735 C   0  0  0  0  0  0  0  0  0  0  0  0
   -2.5157    0.6186   -3.6451 C   0  0  0  0  0  0  0  0  0  0  0  0
   -3.7112    0.2437   -4.2429 C   0  0  0  0  0  0  0  0  0  0  0  0
   -3.9553    0.2239   -5.9888 S   0  0  0  0  0  0  0  0  0  0  0  0
   -2.2658    0.2270   -6.6579 C   0  0  0  0  0  0  0  0  0  0  0  0
   -4.7897   -0.1340   -3.4437 C   0  0  0  0  0  0  0  0  0  0  0  0
   -4.6544   -0.2133   -2.0755 C   0  0  0  0  0  0  0  0  0  0  0  0
   -4.2208    0.1808    0.8410 C   0  0  0  0  0  0  0  0  0  0  0  0
   -5.0104    1.3253    0.7291 C   0  0  0  0  0  0  0  0  0  0  0  0
   -5.8480    1.6896    1.7601 C   0  0  0  0  0  0  0  0  0  0  0  0
   -5.9219    0.9208    2.9206 C   0  0  0  0  0  0  0  0  0  0  0  0
   -6.8961    1.5550    4.2459 S   0  0  0  0  0  0  0  0  0  0  0  0
   -6.4495    0.4891    5.6447 C   0  0  0  0  0  0  0  0  0  0  0  0
   -5.2196   -0.2769    2.9864 C   0  0  0  0  0  0  0  0  0  0  0  0
   -4.3826   -0.6427    1.9531 C   0  0  0  0  0  0  0  0  0  0  0  0
   -1.2951   -1.5967   -0.4349 C   0  0  0  0  0  0  0  0  0  0  0  0
   -1.4462   -2.2416   -2.0311 S   0  0  0  0  0  0  0  0  0  0  0  0
   -1.7765    0.5660    2.5217 C   0  0  0  0  0  0  0  0  0  0  0  0
   -2.3244    1.8060    2.2193 C   0  0  0  0  0  0  0  0  0  0  0  0
   -2.3322    2.2375    0.9445 F   0  0  0  0  0  0  0  0  0  0  0  0
   -2.8498    2.6485    3.2001 C   0  0  0  0  0  0  0  0  0  0  0  0
   -3.4798    3.7555    2.7894 F   0  0  0  0  0  0  0  0  0  0  0  0
   -2.8218    2.3179    4.5471 C   0  0  0  0  0  0  0  0  0  0  0  0
   -2.1840    1.0944    4.8982 C   0  0  0  0  0  0  0  0  0  0  0  0
   -2.0816    0.7473    6.1920 N   0  0  0  0  0  0  0  0  0  0  0  0
   -1.4276   -0.3432    6.5169 C   0  0  0  0  0  0  0  0  0  0  0  0
   -1.3119   -0.6213    7.9846 C   0  0  0  0  0  0  0  0  0  0  0  0
   -0.0610    0.0614    8.5448 C   0  0  0  0  0  0  0  0  0  0  0  0
   -0.8241   -1.1573    5.5180 C   0  0  0  0  0  0  0  0  0  0  0  0
   -0.9596   -0.8507    4.2502 N   0  0  0  0  0  0  0  0  0  0  0  0
   -1.6255    0.2576    3.9035 C   0  0  0  0  0  0  0  0  0  0  0  0
   -0.0603   -2.4098    5.8161 C   0  0  0  0  0  0  0  0  0  0  0  0
   -1.0125   -3.6052    5.8919 C   0  0  0  0  0  0  0  0  0  0  0  0
   -3.4145    3.1279    5.5802 C   0  0  0  0  0  0  0  0  0  0  0  0
   -3.3289    4.4767    5.6574 C   0  0  0  0  0  0  0  0  0  0  0  0
   -2.3547    5.3027    4.8860 C   0  0  0  0  0  0  0  0  0  0  0  0
   -1.5090    4.9117    4.1134 O   0  0  0  0  0  0  0  0  0  0  0  0
   -2.5380    6.6832    5.3664 C   0  0  0  0  0  0  0  0  0  0  0  0
   -1.8526    7.8139    4.9253 C   0  0  0  0  0  0  0  0  0  0  0  0
   -2.2178    8.9742    5.5633 C   0  0  0  0  0  0  0  0  0  0  0  0
   -3.1909    9.0090    6.5724 C   0  0  0  0  0  0  0  0  0  0  0  0
   -3.8721    7.9029    7.0188 C   0  0  0  0  0  0  0  0  0  0  0  0
   -3.5164    6.7082    6.3814 C   0  0  0  0  0  0  0  0  0  0  0  0
   -4.0132    5.3534    6.5937 C   0  0  0  0  0  0  0  0  0  0  0  0
   -4.9800    4.9867    7.4919 C   0  0  0  0  0  0  0  0  0  0  0  0
   -5.6336    5.8732    8.3744 C   0  0  0  0  0  0  0  0  0  0  0  0
   -6.2024    6.5301    9.1250 N   0  0  0  0  0  0  0  0  0  0  0  0
   -5.4647    3.6774    7.6869 C   0  0  0  0  0  0  0  0  0  0  0  0
   -5.9213    2.6503    7.9244 N   0  0  0  0  0  0  0  0  0  0  0  0
   -3.0420   10.4961    6.7755 C   0  0  0  0  0  0  0  0  0  0  0  0
   -2.2341   10.9450    8.0118 C   0  0  0  0  0  0  0  0  0  0  0  0
   -1.8510   12.3725    7.6946 C   0  0  0  0  0  0  0  0  0  0  0  0
   -0.9317   12.3406    6.7383 C   0  0  0  0  0  0  0  0  0  0  0  0
   -0.6776   10.8910    6.3933 C   0  0  0  0  0  0  0  0  0  0  0  0
   -0.8869   10.2512    7.7719 C   0  0  0  0  0  0  0  0  0  0  0  0
   -1.9592   10.4577    5.6497 C   0  0  0  0  0  0  0  0  0  0  0  0
    2.9052   -5.2686   -6.4958 H   0  0  0  0  0  0  0  0  0  0  0  0
    0.1618   -0.0131   -8.5993 H   0  0  0  0  0  0  0  0  0  0  0  0
    3.7248   -2.4727  -11.2282 H   0  0  0  0  0  0  0  0  0  0  0  0
    2.0170   -0.3121  -13.2638 H   0  0  0  0  0  0  0  0  0  0  0  0
    4.3873    0.7506  -12.6742 H   0  0  0  0  0  0  0  0  0  0  0  0
    3.1510    2.3545  -14.3488 H   0  0  0  0  0  0  0  0  0  0  0  0
    1.2788    3.6730  -13.0017 H   0  0  0  0  0  0  0  0  0  0  0  0
    1.3630    2.8823  -10.4980 H   0  0  0  0  0  0  0  0  0  0  0  0
    3.4758    1.2488  -10.1966 H   0  0  0  0  0  0  0  0  0  0  0  0
    3.9581    2.7583  -11.0034 H   0  0  0  0  0  0  0  0  0  0  0  0
    0.1814    0.9806  -11.9432 H   0  0  0  0  0  0  0  0  0  0  0  0
    1.0114   -6.2260   -0.9808 H   0  0  0  0  0  0  0  0  0  0  0  0
    2.1958   -9.3480   -2.4675 H   0  0  0  0  0  0  0  0  0  0  0  0
    2.0815   -8.5680   -0.8821 H   0  0  0  0  0  0  0  0  0  0  0  0
    4.4423   -7.7783   -1.1160 H   0  0  0  0  0  0  0  0  0  0  0  0
    4.5379   -8.5354   -2.7111 H   0  0  0  0  0  0  0  0  0  0  0  0
    4.3489   -9.5349   -1.2685 H   0  0  0  0  0  0  0  0  0  0  0  0
    4.0060   -3.2901    1.3350 H   0  0  0  0  0  0  0  0  0  0  0  0
    4.2552   -4.0933    3.6537 H   0  0  0  0  0  0  0  0  0  0  0  0
    0.4435   -6.6648    5.6075 H   0  0  0  0  0  0  0  0  0  0  0  0
    1.6833   -7.4970    4.6237 H   0  0  0  0  0  0  0  0  0  0  0  0
    1.8281   -7.4453    6.3966 H   0  0  0  0  0  0  0  0  0  0  0  0
    0.2198   -5.4989    3.5999 H   0  0  0  0  0  0  0  0  0  0  0  0
   -0.0228   -4.7211    1.2984 H   0  0  0  0  0  0  0  0  0  0  0  0
    2.2826   -1.6678   -2.0006 H   0  0  0  0  0  0  0  0  0  0  0  0
    3.8456   -1.8856   -3.8843 H   0  0  0  0  0  0  0  0  0  0  0  0
    6.6704   -5.7559   -5.6328 H   0  0  0  0  0  0  0  0  0  0  0  0
    6.9979   -5.6847   -3.8833 H   0  0  0  0  0  0  0  0  0  0  0  0
    5.4104   -6.2651   -4.4979 H   0  0  0  0  0  0  0  0  0  0  0  0
    5.3141   -5.5424   -2.2338 H   0  0  0  0  0  0  0  0  0  0  0  0
    3.7297   -5.3496   -0.3873 H   0  0  0  0  0  0  0  0  0  0  0  0
   -1.4558    0.8479   -1.8075 H   0  0  0  0  0  0  0  0  0  0  0  0
   -1.6809    0.9583   -4.2357 H   0  0  0  0  0  0  0  0  0  0  0  0
   -1.8105    1.2044   -6.5231 H   0  0  0  0  0  0  0  0  0  0  0  0
   -1.6743   -0.5549   -6.1894 H   0  0  0  0  0  0  0  0  0  0  0  0
   -2.3809    0.0200   -7.7180 H   0  0  0  0  0  0  0  0  0  0  0  0
   -5.7259   -0.3919   -3.9143 H   0  0  0  0  0  0  0  0  0  0  0  0
   -5.4823   -0.5391   -1.4636 H   0  0  0  0  0  0  0  0  0  0  0  0
   -4.9179    1.9517   -0.1447 H   0  0  0  0  0  0  0  0  0  0  0  0
   -6.4248    2.5990    1.6961 H   0  0  0  0  0  0  0  0  0  0  0  0
   -5.3682    0.4139    5.7150 H   0  0  0  0  0  0  0  0  0  0  0  0
   -6.9090   -0.4890    5.5336 H   0  0  0  0  0  0  0  0  0  0  0  0
   -6.8360    0.9871    6.5287 H   0  0  0  0  0  0  0  0  0  0  0  0
   -5.3114   -0.9303    3.8388 H   0  0  0  0  0  0  0  0  0  0  0  0
   -3.8248   -1.5652    2.0226 H   0  0  0  0  0  0  0  0  0  0  0  0
   -2.1916   -0.2071    8.4788 H   0  0  0  0  0  0  0  0  0  0  0  0
   -1.2673   -1.6929    8.1759 H   0  0  0  0  0  0  0  0  0  0  0  0
    0.8383   -0.3133    8.0604 H   0  0  0  0  0  0  0  0  0  0  0  0
   -0.1190    1.1341    8.3780 H   0  0  0  0  0  0  0  0  0  0  0  0
    0.0175   -0.1222    9.6132 H   0  0  0  0  0  0  0  0  0  0  0  0
    0.4887   -2.3150    6.7522 H   0  0  0  0  0  0  0  0  0  0  0  0
    0.6500   -2.5747    5.0045 H   0  0  0  0  0  0  0  0  0  0  0  0
   -1.7795   -3.4510    6.6484 H   0  0  0  0  0  0  0  0  0  0  0  0
   -1.5005   -3.7511    4.9312 H   0  0  0  0  0  0  0  0  0  0  0  0
   -0.4530   -4.5005    6.1474 H   0  0  0  0  0  0  0  0  0  0  0  0
   -3.9168    2.5712    6.3600 H   0  0  0  0  0  0  0  0  0  0  0  0
   -1.1131    7.7409    4.1434 H   0  0  0  0  0  0  0  0  0  0  0  0
   -4.6174    7.9476    7.7950 H   0  0  0  0  0  0  0  0  0  0  0  0
   -3.9402   11.0893    6.6157 H   0  0  0  0  0  0  0  0  0  0  0  0
   -2.7259   10.7701    8.9647 H   0  0  0  0  0  0  0  0  0  0  0  0
   -2.3131   13.2317    8.1441 H   0  0  0  0  0  0  0  0  0  0  0  0
   -0.4726   13.1678    6.2292 H   0  0  0  0  0  0  0  0  0  0  0  0
    0.2492   10.6670    5.8720 H   0  0  0  0  0  0  0  0  0  0  0  0
   -0.1300   10.5636    8.4894 H   0  0  0  0  0  0  0  0  0  0  0  0
   -0.9439    9.1645    7.7530 H   0  0  0  0  0  0  0  0  0  0  0  0
   -2.1350   11.0251    4.7379 H   0  0  0  0  0  0  0  0  0  0  0  0
  1  2  2  0  0  0  0
  2  3  1  0  0  0  0
  3  4  2  0  0  0  0
  3  5  1  0  0  0  0
  5  6  2  0  0  0  0
  6  7  1  0  0  0  0
  7  8  2  0  0  0  0
  8  9  1  0  0  0  0
  9 10  2  0  0  0  0
 10 11  1  0  0  0  0
 11 12  2  0  0  0  0
 12 13  1  0  0  0  0
 13 14  3  0  0  0  0
 12 15  1  0  0  0  0
 15 16  3  0  0  0  0
  8 17  1  0  0  0  0
 17 18  1  0  0  0  0
 18 19  1  0  0  0  0
 19 20  2  0  0  0  0
 20 21  1  0  0  0  0
 21 22  1  0  0  0  0
 21 23  1  0  0  0  0
  1 24  1  0  0  0  0
 24 25  1  0  0  0  0
 25 26  1  0  0  0  0
 26 27  2  0  0  0  0
 27 28  1  0  0  0  0
 28 29  2  0  0  0  0
 29 30  1  0  0  0  0
 30 31  1  0  0  0  0
 29 32  1  0  0  0  0
 32 33  1  0  0  0  0
 26 34  1  0  0  0  0
 34 35  2  0  0  0  0
 35 36  1  0  0  0  0
 36 37  1  0  0  0  0
 37 38  2  0  0  0  0
 38 39  1  0  0  0  0
 39 40  2  0  0  0  0
 40 41  1  0  0  0  0
 41 42  1  0  0  0  0
 40 43  1  0  0  0  0
 43 44  2  0  0  0  0
 36 45  1  0  0  0  0
 45 46  2  0  0  0  0
 46 47  1  0  0  0  0
 47 48  2  0  0  0  0
 48 49  1  0  0  0  0
 49 50  1  0  0  0  0
 48 51  1  0  0  0  0
 51 52  2  0  0  0  0
 35 53  1  0  0  0  0
 53 54  1  0  0  0  0
 54 55  1  0  0  0  0
 55 56  2  0  0  0  0
 56 57  1  0  0  0  0
 57 58  1  0  0  0  0
 58 59  2  0  0  0  0
 59 60  1  0  0  0  0
 60 61  2  0  0  0  0
 61 62  1  0  0  0  0
 62 63  1  0  0  0  0
 61 64  1  0  0  0  0
 64 65  2  0  0  0  0
 57 66  1  0  0  0  0
 66 67  2  0  0  0  0
 67 68  1  0  0  0  0
 68 69  2  0  0  0  0
 69 70  1  0  0  0  0
 70 71  1  0  0  0  0
 69 72  1  0  0  0  0
 72 73  2  0  0  0  0
 56 74  1  0  0  0  0
 74 75  1  0  0  0  0
 55 76  1  0  0  0  0
 76 77  2  0  0  0  0
 77 78  1  0  0  0  0
 77 79  1  0  0  0  0
 79 80  1  0  0  0  0
 79 81  2  0  0  0  0
 81 82  1  0  0  0  0
 82 83  2  0  0  0  0
 83 84  1  0  0  0  0
 84 85  1  0  0  0  0
 85 86  1  0  0  0  0
 84 87  2  0  0  0  0
 87 88  1  0  0  0  0
 88 89  2  0  0  0  0
 87 90  1  0  0  0  0
 90 91  1  0  0  0  0
 81 92  1  0  0  0  0
 92 93  2  0  0  0  0
 93 94  1  0  0  0  0
 94 95  2  0  0  0  0
 94 96  1  0  0  0  0
 96 97  2  0  0  0  0
 97 98  1  0  0  0  0
 98 99  2  0  0  0  0
 99100  1  0  0  0  0
100101  2  0  0  0  0
101102  1  0  0  0  0
102103  2  0  0  0  0
103104  1  0  0  0  0
104105  3  0  0  0  0
103106  1  0  0  0  0
106107  3  0  0  0  0
 99108  1  0  0  0  0
108109  1  0  0  0  0
109110  1  0  0  0  0
110111  2  0  0  0  0
111112  1  0  0  0  0
112113  1  0  0  0  0
112114  1  0  0  0  0
 11  2  1  0  0  0  0
 23 17  1  0  0  0  0
 33 24  2  0  0  0  0
 75 34  1  0  0  0  0
 89 76  1  0  0  0  0
102 93  1  0  0  0  0
114108  1  0  0  0  0
 10  5  1  0  0  0  0
 22 18  1  0  0  0  0
 33 27  1  0  0  0  0
 44 37  1  0  0  0  0
 52 45  1  0  0  0  0
 74 53  2  0  0  0  0
 89 82  1  0  0  0  0
101 96  1  0  0  0  0
113109  1  0  0  0  0
 23  7  1  0  0  0  0
 65 58  1  0  0  0  0
 73 66  1  0  0  0  0
114 98  1  0  0  0  0
  1115  1  0  0  0  0
  6116  1  0  0  0  0
  9117  1  0  0  0  0
 17118  1  0  0  0  0
 18119  1  0  0  0  0
 19120  1  0  0  0  0
 20121  1  0  0  0  0
 21122  1  0  0  0  0
 22123  1  0  0  0  0
 22124  1  0  0  0  0
 23125  1  0  0  0  0
 28126  1  0  0  0  0
 30127  1  0  0  0  0
 30128  1  0  0  0  0
 31129  1  0  0  0  0
 31130  1  0  0  0  0
 31131  1  0  0  0  0
 38132  1  0  0  0  0
 39133  1  0  0  0  0
 42134  1  0  0  0  0
 42135  1  0  0  0  0
 42136  1  0  0  0  0
 43137  1  0  0  0  0
 44138  1  0  0  0  0
 46139  1  0  0  0  0
 47140  1  0  0  0  0
 50141  1  0  0  0  0
 50142  1  0  0  0  0
 50143  1  0  0  0  0
 51144  1  0  0  0  0
 52145  1  0  0  0  0
 59146  1  0  0  0  0
 60147  1  0  0  0  0
 63148  1  0  0  0  0
 63149  1  0  0  0  0
 63150  1  0  0  0  0
 64151  1  0  0  0  0
 65152  1  0  0  0  0
 67153  1  0  0  0  0
 68154  1  0  0  0  0
 71155  1  0  0  0  0
 71156  1  0  0  0  0
 71157  1  0  0  0  0
 72158  1  0  0  0  0
 73159  1  0  0  0  0
 85160  1  0  0  0  0
 85161  1  0  0  0  0
 86162  1  0  0  0  0
 86163  1  0  0  0  0
 86164  1  0  0  0  0
 90165  1  0  0  0  0
 90166  1  0  0  0  0
 91167  1  0  0  0  0
 91168  1  0  0  0  0
 91169  1  0  0  0  0
 92170  1  0  0  0  0
 97171  1  0  0  0  0
100172  1  0  0  0  0
108173  1  0  0  0  0
109174  1  0  0  0  0
110175  1  0  0  0  0
111176  1  0  0  0  0
112177  1  0  0  0  0
113178  1  0  0  0  0
113179  1  0  0  0  0
114180  1  0  0  0  0
M  END
