
  xtb     02052209553D
 energy: -387.475821153125 gnorm: 0.000320259637 xtb: 6.4.1 (unknown)
234257  0     0  0            999 V2000
   -3.3925   -6.8574   -4.9166 C   0  0  0  0  0  0  0  0  0  0  0  0
   -3.2257   -8.1700   -5.1786 C   0  0  0  0  0  0  0  0  0  0  0  0
   -2.2264   -9.0708   -4.5352 C   0  0  0  0  0  0  0  0  0  0  0  0
   -1.5231   -8.8198   -3.5835 O   0  0  0  0  0  0  0  0  0  0  0  0
   -2.3590  -10.3634   -5.2302 C   0  0  0  0  0  0  0  0  0  0  0  0
   -1.5905  -11.5057   -5.0166 C   0  0  0  0  0  0  0  0  0  0  0  0
   -1.9446  -12.5747   -5.8028 C   0  0  0  0  0  0  0  0  0  0  0  0
   -2.9861  -12.5132   -6.7403 C   0  0  0  0  0  0  0  0  0  0  0  0
   -3.7546  -11.3962   -6.9590 C   0  0  0  0  0  0  0  0  0  0  0  0
   -3.4185  -10.2971   -6.1604 C   0  0  0  0  0  0  0  0  0  0  0  0
   -4.0303   -8.9754   -6.0889 C   0  0  0  0  0  0  0  0  0  0  0  0
   -5.1713   -8.5771   -6.7304 C   0  0  0  0  0  0  0  0  0  0  0  0
   -5.9146   -9.3938   -7.6101 C   0  0  0  0  0  0  0  0  0  0  0  0
   -6.5664  -10.0011   -8.3341 N   0  0  0  0  0  0  0  0  0  0  0  0
   -5.8142   -7.3284   -6.5745 C   0  0  0  0  0  0  0  0  0  0  0  0
   -6.4279   -6.3615   -6.4905 N   0  0  0  0  0  0  0  0  0  0  0  0
   -2.7955  -13.9476   -7.1643 C   0  0  0  0  0  0  0  0  0  0  0  0
   -3.8050  -14.9938   -6.6305 C   0  0  0  0  0  0  0  0  0  0  0  0
   -4.3339  -14.4520   -5.3255 C   0  0  0  0  0  0  0  0  0  0  0  0
   -3.3520  -14.5100   -4.4357 C   0  0  0  0  0  0  0  0  0  0  0  0
   -2.1415  -15.0923   -5.1229 C   0  0  0  0  0  0  0  0  0  0  0  0
   -2.8256  -16.0558   -6.1057 C   0  0  0  0  0  0  0  0  0  0  0  0
   -1.6385  -14.0169   -6.1182 C   0  0  0  0  0  0  0  0  0  0  0  0
   -2.5402   -6.0041   -4.1278 C   0  0  0  0  0  0  0  0  0  0  0  0
   -1.1594   -6.0000   -4.1590 C   0  0  0  0  0  0  0  0  0  0  0  0
   -0.4930   -6.8332   -4.9721 F   0  0  0  0  0  0  0  0  0  0  0  0
   -0.4129   -5.0195   -3.4922 C   0  0  0  0  0  0  0  0  0  0  0  0
    0.9213   -5.0316   -3.6533 F   0  0  0  0  0  0  0  0  0  0  0  0
   -1.0048   -3.9832   -2.7967 C   0  0  0  0  0  0  0  0  0  0  0  0
   -2.4240   -3.9960   -2.6855 C   0  0  0  0  0  0  0  0  0  0  0  0
   -3.0530   -3.0753   -1.9340 N   0  0  0  0  0  0  0  0  0  0  0  0
   -4.3640   -3.0819   -1.8733 C   0  0  0  0  0  0  0  0  0  0  0  0
   -4.9888   -2.0476   -0.9850 C   0  0  0  0  0  0  0  0  0  0  0  0
   -5.6959   -0.9404   -1.7689 C   0  0  0  0  0  0  0  0  0  0  0  0
   -5.1201   -4.0523   -2.5939 C   0  0  0  0  0  0  0  0  0  0  0  0
   -4.5118   -4.9799   -3.2910 N   0  0  0  0  0  0  0  0  0  0  0  0
   -3.1737   -4.9864   -3.3595 C   0  0  0  0  0  0  0  0  0  0  0  0
   -6.6164   -4.1239   -2.6192 C   0  0  0  0  0  0  0  0  0  0  0  0
   -7.1396   -3.7532   -4.0099 C   0  0  0  0  0  0  0  0  0  0  0  0
   -0.2421   -2.8590   -2.2942 C   0  0  0  0  0  0  0  0  0  0  0  0
   -0.4752   -1.5287   -2.5971 C   0  0  0  0  0  0  0  0  0  0  0  0
   -1.4867   -1.0518   -3.4255 N   0  0  0  0  0  0  0  0  0  0  0  0
   -1.8764   -1.8196   -4.5319 C   0  0  0  0  0  0  0  0  0  0  0  0
   -3.2187   -2.0154   -4.8626 C   0  0  0  0  0  0  0  0  0  0  0  0
   -3.5698   -2.9084   -5.8501 C   0  0  0  0  0  0  0  0  0  0  0  0
   -2.5932   -3.6218   -6.5424 C   0  0  0  0  0  0  0  0  0  0  0  0
   -3.1659   -4.8318   -7.6939 S   0  0  0  0  0  0  0  0  0  0  0  0
   -1.6550   -5.6966   -8.2114 C   0  0  0  0  0  0  0  0  0  0  0  0
   -1.2544   -3.3624   -6.2839 C   0  0  0  0  0  0  0  0  0  0  0  0
   -0.9046   -2.4676   -5.2918 C   0  0  0  0  0  0  0  0  0  0  0  0
   -2.2466    0.0270   -2.9660 C   0  0  0  0  0  0  0  0  0  0  0  0
   -2.3597    0.2848   -1.6005 C   0  0  0  0  0  0  0  0  0  0  0  0
   -3.0806    1.3667   -1.1366 C   0  0  0  0  0  0  0  0  0  0  0  0
   -3.7353    2.1987   -2.0319 C   0  0  0  0  0  0  0  0  0  0  0  0
   -4.7104    3.5953   -1.5493 S   0  0  0  0  0  0  0  0  0  0  0  0
   -4.5144    3.6724    0.2532 C   0  0  0  0  0  0  0  0  0  0  0  0
   -3.6473    1.9349   -3.3978 C   0  0  0  0  0  0  0  0  0  0  0  0
   -2.8983    0.8759   -3.8623 C   0  0  0  0  0  0  0  0  0  0  0  0
    0.4592   -0.6971   -1.9364 C   0  0  0  0  0  0  0  0  0  0  0  0
    0.7170    1.0093   -1.8111 S   0  0  0  0  0  0  0  0  0  0  0  0
    1.9374    0.7771   -0.5546 C   0  0  0  0  0  0  0  0  0  0  0  0
    2.1674   -0.5658   -0.3149 C   0  0  0  0  0  0  0  0  0  0  0  0
    2.9435   -1.1237    0.7290 N   0  0  0  0  0  0  0  0  0  0  0  0
    4.0946   -1.8406    0.3838 C   0  0  0  0  0  0  0  0  0  0  0  0
    4.4727   -2.0187   -0.9472 C   0  0  0  0  0  0  0  0  0  0  0  0
    5.6230   -2.7066   -1.2618 C   0  0  0  0  0  0  0  0  0  0  0  0
    6.4322   -3.2356   -0.2619 C   0  0  0  0  0  0  0  0  0  0  0  0
    7.8721   -4.1101   -0.7913 S   0  0  0  0  0  0  0  0  0  0  0  0
    8.8317   -4.3201    0.7357 C   0  0  0  0  0  0  0  0  0  0  0  0
    6.0753   -3.0446    1.0653 C   0  0  0  0  0  0  0  0  0  0  0  0
    4.9292   -2.3431    1.3811 C   0  0  0  0  0  0  0  0  0  0  0  0
    2.1380   -1.5348    1.8139 C   0  0  0  0  0  0  0  0  0  0  0  0
    1.2413   -0.6245    2.3792 C   0  0  0  0  0  0  0  0  0  0  0  0
    0.4408   -0.9919    3.4387 C   0  0  0  0  0  0  0  0  0  0  0  0
    0.5037   -2.2816    3.9601 C   0  0  0  0  0  0  0  0  0  0  0  0
   -0.5465   -2.6281    5.3388 S   0  0  0  0  0  0  0  0  0  0  0  0
   -0.2763   -4.3931    5.6632 C   0  0  0  0  0  0  0  0  0  0  0  0
    1.3610   -3.2035    3.3769 C   0  0  0  0  0  0  0  0  0  0  0  0
    2.1587   -2.8349    2.3105 C   0  0  0  0  0  0  0  0  0  0  0  0
    1.3421   -1.3847   -1.1201 C   0  0  0  0  0  0  0  0  0  0  0  0
    1.1252   -3.0938   -1.2310 S   0  0  0  0  0  0  0  0  0  0  0  0
    2.3145    1.9434    0.1734 C   0  0  0  0  0  0  0  0  0  0  0  0
    3.2300    2.1444    1.2072 C   0  0  0  0  0  0  0  0  0  0  0  0
    4.3598    1.3981    1.4869 N   0  0  0  0  0  0  0  0  0  0  0  0
    4.7977    1.4232    2.8355 C   0  0  0  0  0  0  0  0  0  0  0  0
    3.9873    0.8826    3.8256 C   0  0  0  0  0  0  0  0  0  0  0  0
    4.3763    0.9156    5.1517 C   0  0  0  0  0  0  0  0  0  0  0  0
    5.5859    1.4969    5.5052 C   0  0  0  0  0  0  0  0  0  0  0  0
    6.1908    1.5975    7.1575 S   0  0  0  0  0  0  0  0  0  0  0  0
    4.7876    1.0464    8.1692 C   0  0  0  0  0  0  0  0  0  0  0  0
    6.4018    2.0403    4.5126 C   0  0  0  0  0  0  0  0  0  0  0  0
    6.0127    2.0084    3.1933 C   0  0  0  0  0  0  0  0  0  0  0  0
    5.2572    0.9949    0.4913 C   0  0  0  0  0  0  0  0  0  0  0  0
    5.1139    1.3632   -0.8434 C   0  0  0  0  0  0  0  0  0  0  0  0
    6.0228    0.9525   -1.8004 C   0  0  0  0  0  0  0  0  0  0  0  0
    7.1114    0.1722   -1.4447 C   0  0  0  0  0  0  0  0  0  0  0  0
    8.3296   -0.4156   -2.5761 S   0  0  0  0  0  0  0  0  0  0  0  0
    7.5577   -0.1521   -4.1983 C   0  0  0  0  0  0  0  0  0  0  0  0
    7.2793   -0.1752   -0.1069 C   0  0  0  0  0  0  0  0  0  0  0  0
    6.3644    0.2150    0.8413 C   0  0  0  0  0  0  0  0  0  0  0  0
    2.9018    3.3255    1.9258 C   0  0  0  0  0  0  0  0  0  0  0  0
    3.4400    3.9803    3.4309 S   0  0  0  0  0  0  0  0  0  0  0  0
    2.2286    5.2702    3.3217 C   0  0  0  0  0  0  0  0  0  0  0  0
    1.6136    5.3023    2.0465 C   0  0  0  0  0  0  0  0  0  0  0  0
    0.9816    6.3780    1.5181 N   0  0  0  0  0  0  0  0  0  0  0  0
    0.3541    6.3409    0.2524 C   0  0  0  0  0  0  0  0  0  0  0  0
   -0.6687    5.4496   -0.0433 C   0  0  0  0  0  0  0  0  0  0  0  0
   -1.2391    5.4385   -1.3051 C   0  0  0  0  0  0  0  0  0  0  0  0
   -0.7978    6.3308   -2.2741 C   0  0  0  0  0  0  0  0  0  0  0  0
   -1.4182    6.4159   -3.9186 S   0  0  0  0  0  0  0  0  0  0  0  0
   -2.4539    4.9379   -4.0720 C   0  0  0  0  0  0  0  0  0  0  0  0
    0.1982    7.2556   -1.9589 C   0  0  0  0  0  0  0  0  0  0  0  0
    0.7690    7.2619   -0.7089 C   0  0  0  0  0  0  0  0  0  0  0  0
    1.0450    7.6547    2.1152 C   0  0  0  0  0  0  0  0  0  0  0  0
   -0.1295    8.3906    2.2659 C   0  0  0  0  0  0  0  0  0  0  0  0
   -0.1068    9.6028    2.9200 C   0  0  0  0  0  0  0  0  0  0  0  0
    1.0905   10.1149    3.4180 C   0  0  0  0  0  0  0  0  0  0  0  0
    0.9866   11.6178    4.3254 S   0  0  0  0  0  0  0  0  0  0  0  0
    2.6756   11.8954    4.9263 C   0  0  0  0  0  0  0  0  0  0  0  0
    2.2762    9.4245    3.1848 C   0  0  0  0  0  0  0  0  0  0  0  0
    2.2497    8.2035    2.5431 C   0  0  0  0  0  0  0  0  0  0  0  0
    1.9186    4.1132    1.3409 C   0  0  0  0  0  0  0  0  0  0  0  0
    1.2839    3.3529   -0.0759 S   0  0  0  0  0  0  0  0  0  0  0  0
    1.9749    6.0181    4.4673 C   0  0  0  0  0  0  0  0  0  0  0  0
    0.7898    6.6731    4.7454 C   0  0  0  0  0  0  0  0  0  0  0  0
   -0.5093    6.3217    4.1563 C   0  0  0  0  0  0  0  0  0  0  0  0
   -0.7457    5.4750    3.3097 O   0  0  0  0  0  0  0  0  0  0  0  0
   -1.5111    7.1328    4.8790 C   0  0  0  0  0  0  0  0  0  0  0  0
   -2.8868    7.1447    4.6750 C   0  0  0  0  0  0  0  0  0  0  0  0
   -3.5673    8.0148    5.4940 C   0  0  0  0  0  0  0  0  0  0  0  0
   -2.9271    8.8105    6.4508 C   0  0  0  0  0  0  0  0  0  0  0  0
   -1.5675    8.8095    6.6610 C   0  0  0  0  0  0  0  0  0  0  0  0
   -0.8604    7.9332    5.8370 C   0  0  0  0  0  0  0  0  0  0  0  0
    0.5758    7.6775    5.7469 C   0  0  0  0  0  0  0  0  0  0  0  0
    1.5588    8.3837    6.3984 C   0  0  0  0  0  0  0  0  0  0  0  0
    1.3274    9.4023    7.3411 C   0  0  0  0  0  0  0  0  0  0  0  0
    1.2274   10.2442    8.1170 N   0  0  0  0  0  0  0  0  0  0  0  0
    2.9350    8.2381    6.1420 C   0  0  0  0  0  0  0  0  0  0  0  0
    4.0693    8.2274    5.9535 N   0  0  0  0  0  0  0  0  0  0  0  0
   -4.2216    9.4228    6.9249 C   0  0  0  0  0  0  0  0  0  0  0  0
   -4.8237    8.9010    8.2531 C   0  0  0  0  0  0  0  0  0  0  0  0
   -4.3341    7.4842    8.4200 C   0  0  0  0  0  0  0  0  0  0  0  0
   -4.9419    6.7355    7.5094 C   0  0  0  0  0  0  0  0  0  0  0  0
   -5.8531    7.6334    6.7097 C   0  0  0  0  0  0  0  0  0  0  0  0
   -6.2678    8.6363    7.7979 C   0  0  0  0  0  0  0  0  0  0  0  0
   -4.9354    8.5401    5.8530 C   0  0  0  0  0  0  0  0  0  0  0  0
   -4.2609   -6.3425   -5.3037 H   0  0  0  0  0  0  0  0  0  0  0  0
   -0.7947  -11.5074   -4.2882 H   0  0  0  0  0  0  0  0  0  0  0  0
   -4.5515  -11.3648   -7.6832 H   0  0  0  0  0  0  0  0  0  0  0  0
   -2.5469  -14.1068   -8.2116 H   0  0  0  0  0  0  0  0  0  0  0  0
   -4.5498  -15.3125   -7.3547 H   0  0  0  0  0  0  0  0  0  0  0  0
   -5.3192  -14.0420   -5.2031 H   0  0  0  0  0  0  0  0  0  0  0  0
   -3.3529  -14.1577   -3.4208 H   0  0  0  0  0  0  0  0  0  0  0  0
   -1.3717  -15.5017   -4.4740 H   0  0  0  0  0  0  0  0  0  0  0  0
   -3.3288  -16.8812   -5.6044 H   0  0  0  0  0  0  0  0  0  0  0  0
   -2.1549  -16.4440   -6.8710 H   0  0  0  0  0  0  0  0  0  0  0  0
   -0.6336  -14.2247   -6.4805 H   0  0  0  0  0  0  0  0  0  0  0  0
   -4.1904   -1.6064   -0.3876 H   0  0  0  0  0  0  0  0  0  0  0  0
   -5.7005   -2.5313   -0.3116 H   0  0  0  0  0  0  0  0  0  0  0  0
   -6.5142   -1.3318   -2.3659 H   0  0  0  0  0  0  0  0  0  0  0  0
   -4.9950   -0.4360   -2.4283 H   0  0  0  0  0  0  0  0  0  0  0  0
   -6.0990   -0.2034   -1.0785 H   0  0  0  0  0  0  0  0  0  0  0  0
   -7.0562   -3.4787   -1.8607 H   0  0  0  0  0  0  0  0  0  0  0  0
   -6.9047   -5.1560   -2.4103 H   0  0  0  0  0  0  0  0  0  0  0  0
   -8.2253   -3.8017   -4.0236 H   0  0  0  0  0  0  0  0  0  0  0  0
   -6.8338   -2.7452   -4.2836 H   0  0  0  0  0  0  0  0  0  0  0  0
   -6.7518   -4.4486   -4.7493 H   0  0  0  0  0  0  0  0  0  0  0  0
   -3.9894   -1.4990   -4.3117 H   0  0  0  0  0  0  0  0  0  0  0  0
   -4.6091   -3.0895   -6.0773 H   0  0  0  0  0  0  0  0  0  0  0  0
   -1.1420   -6.1073   -7.3473 H   0  0  0  0  0  0  0  0  0  0  0  0
   -1.9897   -6.5024   -8.8575 H   0  0  0  0  0  0  0  0  0  0  0  0
   -1.0112   -5.0245   -8.7710 H   0  0  0  0  0  0  0  0  0  0  0  0
   -0.4725   -3.8584   -6.8360 H   0  0  0  0  0  0  0  0  0  0  0  0
    0.1401   -2.2891   -5.0830 H   0  0  0  0  0  0  0  0  0  0  0  0
   -1.8963   -0.3815   -0.8900 H   0  0  0  0  0  0  0  0  0  0  0  0
   -3.1365    1.5340   -0.0734 H   0  0  0  0  0  0  0  0  0  0  0  0
   -4.9548    2.7926    0.7138 H   0  0  0  0  0  0  0  0  0  0  0  0
   -5.0558    4.5606    0.5641 H   0  0  0  0  0  0  0  0  0  0  0  0
   -3.4648    3.7725    0.5126 H   0  0  0  0  0  0  0  0  0  0  0  0
   -4.1702    2.5738   -4.0927 H   0  0  0  0  0  0  0  0  0  0  0  0
   -2.8185    0.6979   -4.9240 H   0  0  0  0  0  0  0  0  0  0  0  0
    3.8707   -1.6096   -1.7434 H   0  0  0  0  0  0  0  0  0  0  0  0
    5.9074   -2.8477   -2.2932 H   0  0  0  0  0  0  0  0  0  0  0  0
    8.3281   -5.0100    1.4070 H   0  0  0  0  0  0  0  0  0  0  0  0
    9.7844   -4.7388    0.4271 H   0  0  0  0  0  0  0  0  0  0  0  0
    8.9878   -3.3545    1.2075 H   0  0  0  0  0  0  0  0  0  0  0  0
    6.6860   -3.4266    1.8676 H   0  0  0  0  0  0  0  0  0  0  0  0
    4.6817   -2.1733    2.4187 H   0  0  0  0  0  0  0  0  0  0  0  0
    1.1666    0.3760    1.9811 H   0  0  0  0  0  0  0  0  0  0  0  0
   -0.2414   -0.2792    3.8769 H   0  0  0  0  0  0  0  0  0  0  0  0
   -0.9300   -4.6402    6.4940 H   0  0  0  0  0  0  0  0  0  0  0  0
   -0.5524   -4.9770    4.7900 H   0  0  0  0  0  0  0  0  0  0  0  0
    0.7582   -4.5672    5.9450 H   0  0  0  0  0  0  0  0  0  0  0  0
    1.4117   -4.2207    3.7301 H   0  0  0  0  0  0  0  0  0  0  0  0
    2.7937   -3.5756    1.8493 H   0  0  0  0  0  0  0  0  0  0  0  0
    3.0444    0.4319    3.5569 H   0  0  0  0  0  0  0  0  0  0  0  0
    3.7245    0.4823    5.8929 H   0  0  0  0  0  0  0  0  0  0  0  0
    3.9145    1.6522    7.9458 H   0  0  0  0  0  0  0  0  0  0  0  0
    4.5919   -0.0084    7.9995 H   0  0  0  0  0  0  0  0  0  0  0  0
    5.0919    1.2020    9.1995 H   0  0  0  0  0  0  0  0  0  0  0  0
    7.3366    2.4988    4.7955 H   0  0  0  0  0  0  0  0  0  0  0  0
    6.6408    2.4456    2.4316 H   0  0  0  0  0  0  0  0  0  0  0  0
    4.2983    1.9964   -1.1542 H   0  0  0  0  0  0  0  0  0  0  0  0
    5.8707    1.2645   -2.8213 H   0  0  0  0  0  0  0  0  0  0  0  0
    7.5210    0.9079   -4.4333 H   0  0  0  0  0  0  0  0  0  0  0  0
    8.1937   -0.6642   -4.9135 H   0  0  0  0  0  0  0  0  0  0  0  0
    6.5648   -0.5915   -4.2028 H   0  0  0  0  0  0  0  0  0  0  0  0
    8.1369   -0.7651    0.1762 H   0  0  0  0  0  0  0  0  0  0  0  0
    6.5078   -0.0864    1.8664 H   0  0  0  0  0  0  0  0  0  0  0  0
   -1.0227    4.7875    0.7322 H   0  0  0  0  0  0  0  0  0  0  0  0
   -2.0268    4.7365   -1.5229 H   0  0  0  0  0  0  0  0  0  0  0  0
   -2.7480    4.8937   -5.1161 H   0  0  0  0  0  0  0  0  0  0  0  0
   -1.8743    4.0570   -3.8119 H   0  0  0  0  0  0  0  0  0  0  0  0
   -3.3351    5.0317   -3.4443 H   0  0  0  0  0  0  0  0  0  0  0  0
    0.5206    7.9564   -2.7133 H   0  0  0  0  0  0  0  0  0  0  0  0
    1.5486    7.9696   -0.4686 H   0  0  0  0  0  0  0  0  0  0  0  0
   -1.0587    7.9921    1.8879 H   0  0  0  0  0  0  0  0  0  0  0  0
   -1.0188   10.1592    3.0716 H   0  0  0  0  0  0  0  0  0  0  0  0
    2.6101   12.7619    5.5769 H   0  0  0  0  0  0  0  0  0  0  0  0
    3.3385   12.1073    4.0924 H   0  0  0  0  0  0  0  0  0  0  0  0
    3.0179   11.0371    5.4965 H   0  0  0  0  0  0  0  0  0  0  0  0
    3.2248    9.8199    3.5081 H   0  0  0  0  0  0  0  0  0  0  0  0
    3.1745    7.6695    2.3844 H   0  0  0  0  0  0  0  0  0  0  0  0
    2.7555    6.0149    5.2187 H   0  0  0  0  0  0  0  0  0  0  0  0
   -3.3438    6.5164    3.9259 H   0  0  0  0  0  0  0  0  0  0  0  0
   -1.0857    9.4270    7.4008 H   0  0  0  0  0  0  0  0  0  0  0  0
   -4.3011   10.5040    6.8308 H   0  0  0  0  0  0  0  0  0  0  0  0
   -4.6797    9.5616    9.1039 H   0  0  0  0  0  0  0  0  0  0  0  0
   -3.5759    7.1913    9.1225 H   0  0  0  0  0  0  0  0  0  0  0  0
   -4.7923    5.6926    7.2990 H   0  0  0  0  0  0  0  0  0  0  0  0
   -6.6475    7.1404    6.1549 H   0  0  0  0  0  0  0  0  0  0  0  0
   -6.8794    8.1837    8.5772 H   0  0  0  0  0  0  0  0  0  0  0  0
   -6.7677    9.5207    7.4050 H   0  0  0  0  0  0  0  0  0  0  0  0
   -5.4781    9.0469    5.0569 H   0  0  0  0  0  0  0  0  0  0  0  0
  1  2  2  0  0  0  0
  2  3  1  0  0  0  0
  3  4  2  0  0  0  0
  3  5  1  0  0  0  0
  5  6  2  0  0  0  0
  6  7  1  0  0  0  0
  7  8  2  0  0  0  0
  8  9  1  0  0  0  0
  9 10  2  0  0  0  0
 10 11  1  0  0  0  0
 11 12  2  0  0  0  0
 12 13  1  0  0  0  0
 13 14  3  0  0  0  0
 12 15  1  0  0  0  0
 15 16  3  0  0  0  0
  8 17  1  0  0  0  0
 17 18  1  0  0  0  0
 18 19  1  0  0  0  0
 19 20  2  0  0  0  0
 20 21  1  0  0  0  0
 21 22  1  0  0  0  0
 21 23  1  0  0  0  0
  1 24  1  0  0  0  0
 24 25  2  0  0  0  0
 25 26  1  0  0  0  0
 25 27  1  0  0  0  0
 27 28  1  0  0  0  0
 27 29  2  0  0  0  0
 29 30  1  0  0  0  0
 30 31  2  0  0  0  0
 31 32  1  0  0  0  0
 32 33  1  0  0  0  0
 33 34  1  0  0  0  0
 32 35  2  0  0  0  0
 35 36  1  0  0  0  0
 36 37  2  0  0  0  0
 35 38  1  0  0  0  0
 38 39  1  0  0  0  0
 29 40  1  0  0  0  0
 40 41  2  0  0  0  0
 41 42  1  0  0  0  0
 42 43  1  0  0  0  0
 43 44  2  0  0  0  0
 44 45  1  0  0  0  0
 45 46  2  0  0  0  0
 46 47  1  0  0  0  0
 47 48  1  0  0  0  0
 46 49  1  0  0  0  0
 49 50  2  0  0  0  0
 42 51  1  0  0  0  0
 51 52  2  0  0  0  0
 52 53  1  0  0  0  0
 53 54  2  0  0  0  0
 54 55  1  0  0  0  0
 55 56  1  0  0  0  0
 54 57  1  0  0  0  0
 57 58  2  0  0  0  0
 41 59  1  0  0  0  0
 59 60  1  0  0  0  0
 60 61  1  0  0  0  0
 61 62  2  0  0  0  0
 62 63  1  0  0  0  0
 63 64  1  0  0  0  0
 64 65  2  0  0  0  0
 65 66  1  0  0  0  0
 66 67  2  0  0  0  0
 67 68  1  0  0  0  0
 68 69  1  0  0  0  0
 67 70  1  0  0  0  0
 70 71  2  0  0  0  0
 63 72  1  0  0  0  0
 72 73  2  0  0  0  0
 73 74  1  0  0  0  0
 74 75  2  0  0  0  0
 75 76  1  0  0  0  0
 76 77  1  0  0  0  0
 75 78  1  0  0  0  0
 78 79  2  0  0  0  0
 62 80  1  0  0  0  0
 80 81  1  0  0  0  0
 61 82  1  0  0  0  0
 82 83  2  0  0  0  0
 83 84  1  0  0  0  0
 84 85  1  0  0  0  0
 85 86  2  0  0  0  0
 86 87  1  0  0  0  0
 87 88  2  0  0  0  0
 88 89  1  0  0  0  0
 89 90  1  0  0  0  0
 88 91  1  0  0  0  0
 91 92  2  0  0  0  0
 84 93  1  0  0  0  0
 93 94  2  0  0  0  0
 94 95  1  0  0  0  0
 95 96  2  0  0  0  0
 96 97  1  0  0  0  0
 97 98  1  0  0  0  0
 96 99  1  0  0  0  0
 99100  2  0  0  0  0
 83101  1  0  0  0  0
101102  1  0  0  0  0
102103  1  0  0  0  0
103104  2  0  0  0  0
104105  1  0  0  0  0
105106  1  0  0  0  0
106107  2  0  0  0  0
107108  1  0  0  0  0
108109  2  0  0  0  0
109110  1  0  0  0  0
110111  1  0  0  0  0
109112  1  0  0  0  0
112113  2  0  0  0  0
105114  1  0  0  0  0
114115  2  0  0  0  0
115116  1  0  0  0  0
116117  2  0  0  0  0
117118  1  0  0  0  0
118119  1  0  0  0  0
117120  1  0  0  0  0
120121  2  0  0  0  0
104122  1  0  0  0  0
122123  1  0  0  0  0
103124  1  0  0  0  0
124125  2  0  0  0  0
125126  1  0  0  0  0
126127  2  0  0  0  0
126128  1  0  0  0  0
128129  2  0  0  0  0
129130  1  0  0  0  0
130131  2  0  0  0  0
131132  1  0  0  0  0
132133  2  0  0  0  0
133134  1  0  0  0  0
134135  2  0  0  0  0
135136  1  0  0  0  0
136137  3  0  0  0  0
135138  1  0  0  0  0
138139  3  0  0  0  0
131140  1  0  0  0  0
140141  1  0  0  0  0
141142  1  0  0  0  0
142143  2  0  0  0  0
143144  1  0  0  0  0
144145  1  0  0  0  0
144146  1  0  0  0  0
 11  2  1  0  0  0  0
 23 17  1  0  0  0  0
 37 24  1  0  0  0  0
 81 40  1  0  0  0  0
123 82  1  0  0  0  0
134125  1  0  0  0  0
146140  1  0  0  0  0
 10  5  1  0  0  0  0
 22 18  1  0  0  0  0
 37 30  1  0  0  0  0
 50 43  1  0  0  0  0
 58 51  1  0  0  0  0
 80 59  2  0  0  0  0
 92 85  1  0  0  0  0
100 93  1  0  0  0  0
122101  2  0  0  0  0
133128  1  0  0  0  0
145141  1  0  0  0  0
 23  7  1  0  0  0  0
 71 64  1  0  0  0  0
 79 72  1  0  0  0  0
113106  1  0  0  0  0
121114  1  0  0  0  0
146130  1  0  0  0  0
  1147  1  0  0  0  0
  6148  1  0  0  0  0
  9149  1  0  0  0  0
 17150  1  0  0  0  0
 18151  1  0  0  0  0
 19152  1  0  0  0  0
 20153  1  0  0  0  0
 21154  1  0  0  0  0
 22155  1  0  0  0  0
 22156  1  0  0  0  0
 23157  1  0  0  0  0
 33158  1  0  0  0  0
 33159  1  0  0  0  0
 34160  1  0  0  0  0
 34161  1  0  0  0  0
 34162  1  0  0  0  0
 38163  1  0  0  0  0
 38164  1  0  0  0  0
 39165  1  0  0  0  0
 39166  1  0  0  0  0
 39167  1  0  0  0  0
 44168  1  0  0  0  0
 45169  1  0  0  0  0
 48170  1  0  0  0  0
 48171  1  0  0  0  0
 48172  1  0  0  0  0
 49173  1  0  0  0  0
 50174  1  0  0  0  0
 52175  1  0  0  0  0
 53176  1  0  0  0  0
 56177  1  0  0  0  0
 56178  1  0  0  0  0
 56179  1  0  0  0  0
 57180  1  0  0  0  0
 58181  1  0  0  0  0
 65182  1  0  0  0  0
 66183  1  0  0  0  0
 69184  1  0  0  0  0
 69185  1  0  0  0  0
 69186  1  0  0  0  0
 70187  1  0  0  0  0
 71188  1  0  0  0  0
 73189  1  0  0  0  0
 74190  1  0  0  0  0
 77191  1  0  0  0  0
 77192  1  0  0  0  0
 77193  1  0  0  0  0
 78194  1  0  0  0  0
 79195  1  0  0  0  0
 86196  1  0  0  0  0
 87197  1  0  0  0  0
 90198  1  0  0  0  0
 90199  1  0  0  0  0
 90200  1  0  0  0  0
 91201  1  0  0  0  0
 92202  1  0  0  0  0
 94203  1  0  0  0  0
 95204  1  0  0  0  0
 98205  1  0  0  0  0
 98206  1  0  0  0  0
 98207  1  0  0  0  0
 99208  1  0  0  0  0
100209  1  0  0  0  0
107210  1  0  0  0  0
108211  1  0  0  0  0
111212  1  0  0  0  0
111213  1  0  0  0  0
111214  1  0  0  0  0
112215  1  0  0  0  0
113216  1  0  0  0  0
115217  1  0  0  0  0
116218  1  0  0  0  0
119219  1  0  0  0  0
119220  1  0  0  0  0
119221  1  0  0  0  0
120222  1  0  0  0  0
121223  1  0  0  0  0
124224  1  0  0  0  0
129225  1  0  0  0  0
132226  1  0  0  0  0
140227  1  0  0  0  0
141228  1  0  0  0  0
142229  1  0  0  0  0
143230  1  0  0  0  0
144231  1  0  0  0  0
145232  1  0  0  0  0
145233  1  0  0  0  0
146234  1  0  0  0  0
M  END
