
  xtb     02142215433D
 energy: -306.091500087931 gnorm: 0.000631508471 xtb: 6.4.1 (unknown)
176196  0     0  0            999 V2000
   -0.5034    9.1189   -2.8537 C   0  0  0  0  0  0  0  0  0  0  0  0
   -0.6529    9.1045   -4.2058 C   0  0  0  0  0  0  0  0  0  0  0  0
   -0.4631    7.9000   -5.0597 C   0  0  0  0  0  0  0  0  0  0  0  0
   -0.1842    6.7721   -4.7119 O   0  0  0  0  0  0  0  0  0  0  0  0
   -0.5361    8.3823   -6.4499 C   0  0  0  0  0  0  0  0  0  0  0  0
   -0.4106    7.6093   -7.6019 C   0  0  0  0  0  0  0  0  0  0  0  0
   -0.5054    8.3258   -8.7697 C   0  0  0  0  0  0  0  0  0  0  0  0
   -0.6949    9.7146   -8.7917 C   0  0  0  0  0  0  0  0  0  0  0  0
   -0.8071   10.4906   -7.6629 C   0  0  0  0  0  0  0  0  0  0  0  0
   -0.7265    9.7786   -6.4616 C   0  0  0  0  0  0  0  0  0  0  0  0
   -0.8145   10.2493   -5.0824 C   0  0  0  0  0  0  0  0  0  0  0  0
   -1.0844   11.5333   -4.6879 C   0  0  0  0  0  0  0  0  0  0  0  0
   -1.2469   11.9508   -3.3496 C   0  0  0  0  0  0  0  0  0  0  0  0
   -1.4123   12.3714   -2.2939 N   0  0  0  0  0  0  0  0  0  0  0  0
   -1.2636   12.6194   -5.5695 C   0  0  0  0  0  0  0  0  0  0  0  0
   -1.4137   13.5471   -6.2293 N   0  0  0  0  0  0  0  0  0  0  0  0
   -0.7027    9.7686  -10.2991 C   0  0  0  0  0  0  0  0  0  0  0  0
   -2.0724    9.9177  -11.0067 C   0  0  0  0  0  0  0  0  0  0  0  0
   -3.1026    9.3290  -10.0751 C   0  0  0  0  0  0  0  0  0  0  0  0
   -2.9252    8.0148  -10.0536 C   0  0  0  0  0  0  0  0  0  0  0  0
   -1.7712    7.6911  -10.9701 C   0  0  0  0  0  0  0  0  0  0  0  0
   -1.9580    8.7821  -12.0364 C   0  0  0  0  0  0  0  0  0  0  0  0
   -0.4933    8.2217  -10.2739 C   0  0  0  0  0  0  0  0  0  0  0  0
   -0.5190    7.9491   -2.0352 C   0  0  0  0  0  0  0  0  0  0  0  0
   -1.3687    6.8517   -2.2665 C   0  0  0  0  0  0  0  0  0  0  0  0
   -1.2596    5.6136   -1.5184 C   0  0  0  0  0  0  0  0  0  0  0  0
   -2.1303    4.6967   -1.9587 N   0  0  0  0  0  0  0  0  0  0  0  0
   -3.0144    5.3423   -3.1214 S   0  0  0  0  0  4  0  0  0  0  0  0
   -2.3572    6.8003   -3.1622 N   0  0  0  0  0  0  0  0  0  0  0  0
   -0.3061    5.4351   -0.5059 C   0  0  0  0  0  0  0  0  0  0  0  0
    0.4533    6.5681   -0.1878 C   0  0  0  0  0  0  0  0  0  0  0  0
    1.3530    6.6681    0.7982 N   0  0  0  0  0  0  0  0  0  0  0  0
    1.9749    8.1421    0.7876 S   0  0  0  0  0  0  0  0  0  0  0  0
    1.1623    8.7472   -0.4522 N   0  0  0  0  0  0  0  0  0  0  0  0
    0.3311    7.8141   -0.9225 C   0  0  0  0  0  0  0  0  0  0  0  0
   -0.1044    4.1396    0.1191 C   0  0  0  0  0  0  0  0  0  0  0  0
    1.1486    3.5766    0.2476 C   0  0  0  0  0  0  0  0  0  0  0  0
    2.2404    4.2326   -0.1766 F   0  0  0  0  0  0  0  0  0  0  0  0
    1.3297    2.2920    0.7735 C   0  0  0  0  0  0  0  0  0  0  0  0
    2.5898    1.8323    0.8866 F   0  0  0  0  0  0  0  0  0  0  0  0
    0.2727    1.5081    1.1935 C   0  0  0  0  0  0  0  0  0  0  0  0
   -1.0358    2.0492    1.0425 C   0  0  0  0  0  0  0  0  0  0  0  0
   -2.1117    1.2803    1.2804 N   0  0  0  0  0  0  0  0  0  0  0  0
   -3.3130    1.7873    1.1556 C   0  0  0  0  0  0  0  0  0  0  0  0
   -4.4584    0.8329    1.3203 C   0  0  0  0  0  0  0  0  0  0  0  0
   -5.1582    0.9582    2.6751 C   0  0  0  0  0  0  0  0  0  0  0  0
   -3.4782    3.1723    0.8568 C   0  0  0  0  0  0  0  0  0  0  0  0
   -2.4416    3.9049    0.5450 N   0  0  0  0  0  0  0  0  0  0  0  0
   -1.2144    3.3691    0.5599 C   0  0  0  0  0  0  0  0  0  0  0  0
   -4.7930    3.8925    0.8722 C   0  0  0  0  0  0  0  0  0  0  0  0
   -4.8910    4.7896    2.1082 C   0  0  0  0  0  0  0  0  0  0  0  0
    0.4656    0.1858    1.7417 C   0  0  0  0  0  0  0  0  0  0  0  0
   -0.1359   -0.3429    2.8738 C   0  0  0  0  0  0  0  0  0  0  0  0
   -0.9147    0.3696    3.7658 N   0  0  0  0  0  0  0  0  0  0  0  0
   -1.9719   -0.2745    4.4150 C   0  0  0  0  0  0  0  0  0  0  0  0
   -2.3286    0.0846    5.7159 C   0  0  0  0  0  0  0  0  0  0  0  0
   -3.3545   -0.5704    6.3584 C   0  0  0  0  0  0  0  0  0  0  0  0
   -4.0428   -1.6043    5.7250 C   0  0  0  0  0  0  0  0  0  0  0  0
   -5.3348   -2.3784    6.6456 S   0  0  0  0  0  0  0  0  0  0  0  0
   -5.6712   -3.8966    5.7074 C   0  0  0  0  0  0  0  0  0  0  0  0
   -3.7034   -1.9533    4.4252 C   0  0  0  0  0  0  0  0  0  0  0  0
   -2.6800   -1.2907    3.7770 C   0  0  0  0  0  0  0  0  0  0  0  0
   -0.7072    1.7481    3.9265 C   0  0  0  0  0  0  0  0  0  0  0  0
    0.5848    2.2685    3.9418 C   0  0  0  0  0  0  0  0  0  0  0  0
    0.8022    3.6314    3.9751 C   0  0  0  0  0  0  0  0  0  0  0  0
   -0.2753    4.5068    4.0121 C   0  0  0  0  0  0  0  0  0  0  0  0
   -0.1284    6.2617    3.9929 S   0  0  0  0  0  0  0  0  0  0  0  0
    1.6634    6.5477    4.0105 C   0  0  0  0  0  0  0  0  0  0  0  0
   -1.5681    3.9892    4.0685 C   0  0  0  0  0  0  0  0  0  0  0  0
   -1.7832    2.6303    4.0280 C   0  0  0  0  0  0  0  0  0  0  0  0
    0.2362   -1.6997    3.0455 C   0  0  0  0  0  0  0  0  0  0  0  0
   -0.1178   -2.8998    4.2339 S   0  0  0  0  0  0  0  0  0  0  0  0
    0.8513   -4.0947    3.3549 C   0  0  0  0  0  0  0  0  0  0  0  0
    1.5136   -3.5217    2.2501 C   0  0  0  0  0  0  0  0  0  0  0  0
    2.4963   -4.0944    1.4982 N   0  0  0  0  0  0  0  0  0  0  0  0
    2.7549   -3.5965    0.2021 C   0  0  0  0  0  0  0  0  0  0  0  0
    1.7167   -3.4240   -0.7118 C   0  0  0  0  0  0  0  0  0  0  0  0
    1.9836   -2.9211   -1.9650 C   0  0  0  0  0  0  0  0  0  0  0  0
    3.2863   -2.5800   -2.3281 C   0  0  0  0  0  0  0  0  0  0  0  0
    3.5013   -1.9274   -3.9507 S   0  0  0  0  0  0  0  0  0  0  0  0
    5.2310   -1.3767   -3.9759 C   0  0  0  0  0  0  0  0  0  0  0  0
    4.3242   -2.7796   -1.4265 C   0  0  0  0  0  0  0  0  0  0  0  0
    4.0576   -3.2869   -0.1697 C   0  0  0  0  0  0  0  0  0  0  0  0
    3.2799   -5.1639    1.9491 C   0  0  0  0  0  0  0  0  0  0  0  0
    3.7559   -5.2147    3.2574 C   0  0  0  0  0  0  0  0  0  0  0  0
    4.4764   -6.3027    3.7047 C   0  0  0  0  0  0  0  0  0  0  0  0
    4.7295   -7.3710    2.8499 C   0  0  0  0  0  0  0  0  0  0  0  0
    5.5486   -8.8519    3.3307 S   0  0  0  0  0  0  0  0  0  0  0  0
    5.9065   -8.6159    5.0931 C   0  0  0  0  0  0  0  0  0  0  0  0
    4.3072   -7.2962    1.5230 C   0  0  0  0  0  0  0  0  0  0  0  0
    3.5976   -6.2051    1.0742 C   0  0  0  0  0  0  0  0  0  0  0  0
    1.1103   -2.1749    2.0776 C   0  0  0  0  0  0  0  0  0  0  0  0
    1.5375   -0.9406    0.9449 S   0  0  0  0  0  0  0  0  0  0  0  0
    0.8475   -5.4040    3.8458 C   0  0  0  0  0  0  0  0  0  0  0  0
    1.0915   -6.5361    3.0985 C   0  0  0  0  0  0  0  0  0  0  0  0
    0.8543   -6.6263    1.6488 C   0  0  0  0  0  0  0  0  0  0  0  0
    0.4755   -5.7394    0.9049 O   0  0  0  0  0  0  0  0  0  0  0  0
    1.0372   -8.0496    1.2994 C   0  0  0  0  0  0  0  0  0  0  0  0
    0.9141   -8.6265    0.0400 C   0  0  0  0  0  0  0  0  0  0  0  0
    1.1577   -9.9797    0.0184 C   0  0  0  0  0  0  0  0  0  0  0  0
    1.4931  -10.7078    1.1661 C   0  0  0  0  0  0  0  0  0  0  0  0
    1.6166  -10.1493    2.4172 C   0  0  0  0  0  0  0  0  0  0  0  0
    1.3739   -8.7755    2.4585 C   0  0  0  0  0  0  0  0  0  0  0  0
    1.4363   -7.8434    3.5815 C   0  0  0  0  0  0  0  0  0  0  0  0
    1.9057   -8.1274    4.8411 C   0  0  0  0  0  0  0  0  0  0  0  0
    2.3051   -9.4023    5.2818 C   0  0  0  0  0  0  0  0  0  0  0  0
    2.6598  -10.4059    5.7150 N   0  0  0  0  0  0  0  0  0  0  0  0
    2.1311   -7.1506    5.8301 C   0  0  0  0  0  0  0  0  0  0  0  0
    2.3980   -6.4073    6.6653 N   0  0  0  0  0  0  0  0  0  0  0  0
    1.5817  -12.0107    0.4110 C   0  0  0  0  0  0  0  0  0  0  0  0
    0.3996  -13.0031    0.5400 C   0  0  0  0  0  0  0  0  0  0  0  0
   -0.8221  -12.1768    0.8561 C   0  0  0  0  0  0  0  0  0  0  0  0
   -1.1367  -11.4863   -0.2317 C   0  0  0  0  0  0  0  0  0  0  0  0
   -0.1328  -11.8333   -1.3031 C   0  0  0  0  0  0  0  0  0  0  0  0
    0.1471  -13.3019   -0.9465 C   0  0  0  0  0  0  0  0  0  0  0  0
    1.2115  -11.1979   -0.8696 C   0  0  0  0  0  0  0  0  0  0  0  0
   -0.3019   10.0479   -2.3355 H   0  0  0  0  0  0  0  0  0  0  0  0
   -0.2574    6.5433   -7.5381 H   0  0  0  0  0  0  0  0  0  0  0  0
   -0.9407   11.5590   -7.6970 H   0  0  0  0  0  0  0  0  0  0  0  0
    0.0706   10.3806  -10.7590 H   0  0  0  0  0  0  0  0  0  0  0  0
   -2.2798   10.9159  -11.3823 H   0  0  0  0  0  0  0  0  0  0  0  0
   -3.7952    9.9159   -9.5008 H   0  0  0  0  0  0  0  0  0  0  0  0
   -3.4399    7.2841   -9.4574 H   0  0  0  0  0  0  0  0  0  0  0  0
   -1.7042    6.6619  -11.3131 H   0  0  0  0  0  0  0  0  0  0  0  0
   -2.8679    8.6494  -12.6198 H   0  0  0  0  0  0  0  0  0  0  0  0
   -1.1043    8.8864  -12.7047 H   0  0  0  0  0  0  0  0  0  0  0  0
    0.4168    7.8227  -10.7177 H   0  0  0  0  0  0  0  0  0  0  0  0
   -5.1816    0.9987    0.5185 H   0  0  0  0  0  0  0  0  0  0  0  0
   -4.0584   -0.1770    1.2231 H   0  0  0  0  0  0  0  0  0  0  0  0
   -5.9762    0.2440    2.7314 H   0  0  0  0  0  0  0  0  0  0  0  0
   -5.5641    1.9546    2.8241 H   0  0  0  0  0  0  0  0  0  0  0  0
   -4.4644    0.7380    3.4820 H   0  0  0  0  0  0  0  0  0  0  0  0
   -4.8354    4.5227   -0.0179 H   0  0  0  0  0  0  0  0  0  0  0  0
   -5.6265    3.1924    0.8462 H   0  0  0  0  0  0  0  0  0  0  0  0
   -4.8491    4.1990    3.0212 H   0  0  0  0  0  0  0  0  0  0  0  0
   -4.0638    5.4946    2.1147 H   0  0  0  0  0  0  0  0  0  0  0  0
   -5.8259    5.3444    2.0970 H   0  0  0  0  0  0  0  0  0  0  0  0
   -1.7883    0.8719    6.2196 H   0  0  0  0  0  0  0  0  0  0  0  0
   -3.6277   -0.2992    7.3664 H   0  0  0  0  0  0  0  0  0  0  0  0
   -6.3248   -4.4924    6.3369 H   0  0  0  0  0  0  0  0  0  0  0  0
   -4.7408   -4.4277    5.5304 H   0  0  0  0  0  0  0  0  0  0  0  0
   -6.1761   -3.6617    4.7747 H   0  0  0  0  0  0  0  0  0  0  0  0
   -4.2343   -2.7307    3.9002 H   0  0  0  0  0  0  0  0  0  0  0  0
   -2.4377   -1.5472    2.7573 H   0  0  0  0  0  0  0  0  0  0  0  0
    1.4310    1.5980    3.9119 H   0  0  0  0  0  0  0  0  0  0  0  0
    1.8165    3.9950    3.9655 H   0  0  0  0  0  0  0  0  0  0  0  0
    2.1028    6.1520    3.0997 H   0  0  0  0  0  0  0  0  0  0  0  0
    2.0989    6.1025    4.9002 H   0  0  0  0  0  0  0  0  0  0  0  0
    1.7857    7.6260    4.0424 H   0  0  0  0  0  0  0  0  0  0  0  0
   -2.4021    4.6711    4.1274 H   0  0  0  0  0  0  0  0  0  0  0  0
   -2.7904    2.2443    4.0511 H   0  0  0  0  0  0  0  0  0  0  0  0
    0.7164   -3.7114   -0.4299 H   0  0  0  0  0  0  0  0  0  0  0  0
    1.1877   -2.7850   -2.6807 H   0  0  0  0  0  0  0  0  0  0  0  0
    5.8994   -2.2306   -3.9140 H   0  0  0  0  0  0  0  0  0  0  0  0
    5.4040   -0.6764   -3.1641 H   0  0  0  0  0  0  0  0  0  0  0  0
    5.3637   -0.8761   -4.9301 H   0  0  0  0  0  0  0  0  0  0  0  0
    5.3425   -2.5406   -1.6859 H   0  0  0  0  0  0  0  0  0  0  0  0
    4.8642   -3.4372    0.5330 H   0  0  0  0  0  0  0  0  0  0  0  0
    3.5542   -4.4002    3.9367 H   0  0  0  0  0  0  0  0  0  0  0  0
    4.8229   -6.3098    4.7251 H   0  0  0  0  0  0  0  0  0  0  0  0
    6.5837   -7.7774    5.2266 H   0  0  0  0  0  0  0  0  0  0  0  0
    4.9844   -8.4754    5.6492 H   0  0  0  0  0  0  0  0  0  0  0  0
    6.3868   -9.5349    5.4142 H   0  0  0  0  0  0  0  0  0  0  0  0
    4.5257   -8.1165    0.8568 H   0  0  0  0  0  0  0  0  0  0  0  0
    3.2622   -6.1586    0.0494 H   0  0  0  0  0  0  0  0  0  0  0  0
    0.5811   -5.5163    4.8903 H   0  0  0  0  0  0  0  0  0  0  0  0
    0.6563   -8.0307   -0.8220 H   0  0  0  0  0  0  0  0  0  0  0  0
    1.8738  -10.7199    3.2942 H   0  0  0  0  0  0  0  0  0  0  0  0
    2.5477  -12.5110    0.4360 H   0  0  0  0  0  0  0  0  0  0  0  0
    0.5898  -13.8487    1.1955 H   0  0  0  0  0  0  0  0  0  0  0  0
   -1.2832  -12.1363    1.8256 H   0  0  0  0  0  0  0  0  0  0  0  0
   -1.9127  -10.7532   -0.3525 H   0  0  0  0  0  0  0  0  0  0  0  0
   -0.4275  -11.6139   -2.3262 H   0  0  0  0  0  0  0  0  0  0  0  0
   -0.7163  -13.9461   -1.1062 H   0  0  0  0  0  0  0  0  0  0  0  0
    1.0145  -13.7151   -1.4595 H   0  0  0  0  0  0  0  0  0  0  0  0
    1.9367  -11.1677   -1.6807 H   0  0  0  0  0  0  0  0  0  0  0  0
  1  2  2  0  0  0  0
  2  3  1  0  0  0  0
  3  4  2  0  0  0  0
  3  5  1  0  0  0  0
  5  6  2  0  0  0  0
  6  7  1  0  0  0  0
  7  8  2  0  0  0  0
  8  9  1  0  0  0  0
  9 10  2  0  0  0  0
 10 11  1  0  0  0  0
 11 12  2  0  0  0  0
 12 13  1  0  0  0  0
 13 14  3  0  0  0  0
 12 15  1  0  0  0  0
 15 16  3  0  0  0  0
  8 17  1  0  0  0  0
 17 18  1  0  0  0  0
 18 19  1  0  0  0  0
 19 20  2  0  0  0  0
 20 21  1  0  0  0  0
 21 22  1  0  0  0  0
 21 23  1  0  0  0  0
  1 24  1  0  0  0  0
 24 25  2  0  0  0  0
 25 26  1  0  0  0  0
 26 27  1  0  0  0  0
 27 28  2  0  0  0  0
 28 29  2  0  0  0  0
 26 30  2  0  0  0  0
 30 31  1  0  0  0  0
 31 32  2  0  0  0  0
 32 33  1  0  0  0  0
 33 34  1  0  0  0  0
 34 35  2  0  0  0  0
 30 36  1  0  0  0  0
 36 37  2  0  0  0  0
 37 38  1  0  0  0  0
 37 39  1  0  0  0  0
 39 40  1  0  0  0  0
 39 41  2  0  0  0  0
 41 42  1  0  0  0  0
 42 43  2  0  0  0  0
 43 44  1  0  0  0  0
 44 45  1  0  0  0  0
 45 46  1  0  0  0  0
 44 47  2  0  0  0  0
 47 48  1  0  0  0  0
 48 49  2  0  0  0  0
 47 50  1  0  0  0  0
 50 51  1  0  0  0  0
 41 52  1  0  0  0  0
 52 53  2  0  0  0  0
 53 54  1  0  0  0  0
 54 55  1  0  0  0  0
 55 56  2  0  0  0  0
 56 57  1  0  0  0  0
 57 58  2  0  0  0  0
 58 59  1  0  0  0  0
 59 60  1  0  0  0  0
 58 61  1  0  0  0  0
 61 62  2  0  0  0  0
 54 63  1  0  0  0  0
 63 64  2  0  0  0  0
 64 65  1  0  0  0  0
 65 66  2  0  0  0  0
 66 67  1  0  0  0  0
 67 68  1  0  0  0  0
 66 69  1  0  0  0  0
 69 70  2  0  0  0  0
 53 71  1  0  0  0  0
 71 72  1  0  0  0  0
 72 73  1  0  0  0  0
 73 74  2  0  0  0  0
 74 75  1  0  0  0  0
 75 76  1  0  0  0  0
 76 77  2  0  0  0  0
 77 78  1  0  0  0  0
 78 79  2  0  0  0  0
 79 80  1  0  0  0  0
 80 81  1  0  0  0  0
 79 82  1  0  0  0  0
 82 83  2  0  0  0  0
 75 84  1  0  0  0  0
 84 85  2  0  0  0  0
 85 86  1  0  0  0  0
 86 87  2  0  0  0  0
 87 88  1  0  0  0  0
 88 89  1  0  0  0  0
 87 90  1  0  0  0  0
 90 91  2  0  0  0  0
 74 92  1  0  0  0  0
 92 93  1  0  0  0  0
 73 94  1  0  0  0  0
 94 95  2  0  0  0  0
 95 96  1  0  0  0  0
 96 97  2  0  0  0  0
 96 98  1  0  0  0  0
 98 99  2  0  0  0  0
 99100  1  0  0  0  0
100101  2  0  0  0  0
101102  1  0  0  0  0
102103  2  0  0  0  0
103104  1  0  0  0  0
104105  2  0  0  0  0
105106  1  0  0  0  0
106107  3  0  0  0  0
105108  1  0  0  0  0
108109  3  0  0  0  0
101110  1  0  0  0  0
110111  1  0  0  0  0
111112  1  0  0  0  0
112113  2  0  0  0  0
113114  1  0  0  0  0
114115  1  0  0  0  0
114116  1  0  0  0  0
 11  2  1  0  0  0  0
 23 17  1  0  0  0  0
 35 24  1  0  0  0  0
 49 36  1  0  0  0  0
 93 52  1  0  0  0  0
104 95  1  0  0  0  0
116110  1  0  0  0  0
 10  5  1  0  0  0  0
 22 18  1  0  0  0  0
 29 25  1  0  0  0  0
 35 31  1  0  0  0  0
 49 42  1  0  0  0  0
 62 55  1  0  0  0  0
 70 63  1  0  0  0  0
 92 71  2  0  0  0  0
103 98  1  0  0  0  0
115111  1  0  0  0  0
 23  7  1  0  0  0  0
 83 76  1  0  0  0  0
 91 84  1  0  0  0  0
116100  1  0  0  0  0
  1117  1  0  0  0  0
  6118  1  0  0  0  0
  9119  1  0  0  0  0
 17120  1  0  0  0  0
 18121  1  0  0  0  0
 19122  1  0  0  0  0
 20123  1  0  0  0  0
 21124  1  0  0  0  0
 22125  1  0  0  0  0
 22126  1  0  0  0  0
 23127  1  0  0  0  0
 45128  1  0  0  0  0
 45129  1  0  0  0  0
 46130  1  0  0  0  0
 46131  1  0  0  0  0
 46132  1  0  0  0  0
 50133  1  0  0  0  0
 50134  1  0  0  0  0
 51135  1  0  0  0  0
 51136  1  0  0  0  0
 51137  1  0  0  0  0
 56138  1  0  0  0  0
 57139  1  0  0  0  0
 60140  1  0  0  0  0
 60141  1  0  0  0  0
 60142  1  0  0  0  0
 61143  1  0  0  0  0
 62144  1  0  0  0  0
 64145  1  0  0  0  0
 65146  1  0  0  0  0
 68147  1  0  0  0  0
 68148  1  0  0  0  0
 68149  1  0  0  0  0
 69150  1  0  0  0  0
 70151  1  0  0  0  0
 77152  1  0  0  0  0
 78153  1  0  0  0  0
 81154  1  0  0  0  0
 81155  1  0  0  0  0
 81156  1  0  0  0  0
 82157  1  0  0  0  0
 83158  1  0  0  0  0
 85159  1  0  0  0  0
 86160  1  0  0  0  0
 89161  1  0  0  0  0
 89162  1  0  0  0  0
 89163  1  0  0  0  0
 90164  1  0  0  0  0
 91165  1  0  0  0  0
 94166  1  0  0  0  0
 99167  1  0  0  0  0
102168  1  0  0  0  0
110169  1  0  0  0  0
111170  1  0  0  0  0
112171  1  0  0  0  0
113172  1  0  0  0  0
114173  1  0  0  0  0
115174  1  0  0  0  0
115175  1  0  0  0  0
116176  1  0  0  0  0
M  END
