200

C         -0.67370       -5.30120        5.52350
C         -0.54400       -5.35850        6.88030
C         -1.05660       -4.40480        7.88800
O         -1.96150       -3.60100        7.78090
C         -0.26900       -4.65080        9.10850
C         -0.29880       -3.90380       10.28460
C          0.56540       -4.35290       11.25300
C          1.39300       -5.46910       11.07030
C          1.42490       -6.22000        9.92030
C          0.55830       -5.77420        8.91760
C          0.34380       -6.28430        7.56760
C          0.88680       -7.43520        7.05970
C          0.65530       -7.95890        5.77020
N          0.52930       -8.46060        4.74400
C          1.76980       -8.28040        7.76320
N          2.50570       -9.00970        8.25860
C          2.01230       -5.33420       12.43900
C          3.42860       -4.72300       12.49230
C          3.57450       -4.27320       13.92800
C          2.79160       -3.21600       14.10100
C          2.10340       -2.93380       12.78490
C          3.20740       -3.36620       11.81100
C          1.09010       -4.08950       12.64250
C         -1.25620       -4.30840        4.70610
C         -2.12310       -3.26120        4.93630
C         -2.24130       -2.37920        3.85390
C         -3.16840       -1.24250        3.78620
C         -3.99800       -1.11980        2.65670
O         -3.86870       -2.09130        1.71260
C         -4.90230       -2.28910        0.76350
C         -4.71810       -1.46880       -0.50790
C         -4.91110       -0.07410        2.57560
C         -5.00180        0.83890        3.60790
C         -4.21520        0.72030        4.73590
C         -3.30350       -0.32630        4.84180
O         -2.51030       -0.51850        5.92220
C         -2.74870        0.24490        7.09230
C         -1.91260       -0.34100        8.22030
C         -1.43900       -2.75030        2.78150
S         -0.64950       -4.25630        3.06020
C         -1.03070       -1.87100        1.71890
C         -0.40960       -0.66580        1.98330
N         -0.03920       -0.23560        3.25750
C         -0.38840        1.05840        3.63950
C          0.36860        1.77960        4.56450
C          0.00480        3.06200        4.91060
C         -1.10940        3.66630        4.33240
S         -1.47530        5.32050        4.83980
C         -3.10860        5.64020        4.11230
C         -1.85360        2.96320        3.39740
C         -1.49920        1.67230        3.06290
C          0.66340       -1.12080        4.08560
C          1.57420       -2.02190        3.53750
C          2.22440       -2.94800        4.33200
C          1.97120       -2.99340        5.69440
S          2.71060       -4.15880        6.80290
C          3.42130       -5.41260        5.69880
C          1.09020       -2.07190        6.25470
C          0.44920       -1.14680        5.46360
C         -0.13050        0.03670        0.79190
S          0.62860        1.54560        0.45100
C          0.41950        1.27330       -1.27600
C         -0.15340        0.03490       -1.55690
N         -0.39540       -0.51250       -2.80950
C         -1.74820       -0.85070       -3.09540
C         -2.71020        0.15210       -3.09970
C         -3.99920       -0.12260       -3.50860
C         -4.33510       -1.40880       -3.91240
S         -5.94290       -1.82190       -4.50720
C         -6.50390       -0.24540       -5.21750
C         -3.38680       -2.42680       -3.84690
C         -2.09650       -2.15000       -3.44510
C          0.48390       -0.37850       -3.87730
C          0.02060       -0.44820       -5.19560
C          0.86440       -0.16990       -6.24650
C          2.18370        0.19810       -6.01360
S          3.14940        0.72690       -7.39940
C          4.23470        1.96980       -6.63770
C          2.68220        0.15410       -4.71850
C          1.84490       -0.14690       -3.66450
C         -0.48860       -0.64580       -0.36070
S         -1.18270       -2.19140        0.00880
C          0.75120        2.34080       -2.14660
C          1.48870        3.46600       -1.83530
C          1.59980        4.38960       -2.87630
C          2.34320        5.64240       -2.69780
C          2.02780        6.43190       -1.57600
O          1.03130        5.96100       -0.78740
C          0.72580        6.61680        0.42790
C         -0.28260        5.75220        1.16900
C          2.70840        7.62290       -1.35370
C          3.71030        8.00820       -2.22420
C          4.05710        7.22880       -3.31020
C          3.37850        6.03910       -3.55730
O          3.66720        5.18600       -4.57690
C          4.51610        5.60520       -5.63360
C          5.97890        5.26790       -5.36800
C          0.90700        3.98370       -4.02520
S          0.13880        2.44090       -3.75880
C          0.92140        4.56050       -5.30300
C          0.39970        4.06940       -6.47150
C          1.12740        4.35150       -7.73140
O          1.96380        5.21100       -7.91870
C          0.70080        3.29270       -8.66910
C          1.21730        3.02790       -9.93500
C          0.64350        1.94570      -10.55840
C         -0.37770        1.18490       -9.97440
C         -0.90640        1.44210       -8.73170
C         -0.32270        2.52740       -8.07440
C         -0.61190        3.08460       -6.75650
C         -1.77070        2.88500       -6.04460
C         -2.75310        1.92640       -6.33960
N         -3.59000        1.15050       -6.48440
C         -2.14710        3.69080       -4.94980
N         -2.53150        4.35450       -4.09480
C         -0.46450        0.24780      -11.15280
C          0.20230       -1.13420      -10.98460
C          0.37700       -1.62320      -12.40430
C          1.33760       -0.89940      -12.96470
C          1.82900        0.08940      -11.93240
C          1.65040       -0.74650      -10.65880
C          0.66930        1.10010      -11.80790
H         -0.13180       -6.04920        4.95600
H         -0.95200       -3.05080       10.38500
H          2.06910       -7.07380        9.79580
H          1.89110       -6.18760       13.10330
H          4.21400       -5.36050       12.09610
H          4.16900       -4.78690       14.66060
H          2.60130       -2.67070       15.00690
H          1.68220       -1.94020       12.65640
H          4.08590       -2.72620       11.87570
H          2.88540       -3.43770       10.77370
H          0.35340       -4.11230       13.44350
H         -2.64330       -3.13030        5.86590
H         -4.84410       -3.35330        0.51540
H         -5.87880       -2.09280        1.22140
H         -4.70910       -0.40190       -0.29920
H         -5.52830       -1.68720       -1.19780
H         -3.77740       -1.73050       -0.98360
H         -5.55350        0.03500        1.71790
H         -5.70650        1.65370        3.53360
H         -4.31260        1.44590        5.52620
H         -3.81310        0.18970        7.35550
H         -2.48070        1.29720        6.91690
H         -0.85790       -0.12330        8.07560
H         -2.04730       -1.41950        8.24060
H         -2.23120        0.08360        9.16830
H          1.24690        1.33280        5.00460
H          0.58880        3.61700        5.62910
H         -3.80980        4.87780        4.43850
H         -3.41340        6.61060        4.49170
H         -3.03820        5.67330        3.02890
H         -2.71700        3.39960        2.92320
H         -2.10420        1.13050        2.35190
H          1.77280       -2.00690        2.47580
H          2.91890       -3.63120        3.87030
H          4.28350       -5.00800        5.17680
H          3.73590       -6.22990        6.34140
H          2.66580       -5.75830        4.99860
H          0.89940       -2.10530        7.31670
H         -0.26020       -0.46610        5.89800
H         -2.43560        1.15780       -2.81450
H         -4.72580        0.67280       -3.52780
H         -6.88360        0.40880       -4.43750
H         -7.30500       -0.49700       -5.90540
H         -5.67760        0.21370       -5.75230
H         -3.66800       -3.42690       -4.13790
H         -1.34630       -2.92560       -3.42780
H         -1.01540       -0.67260       -5.39460
H          0.49620       -0.19760       -7.26010
H          3.65580        2.57800       -5.94850
H          4.60890        2.57990       -7.45390
H          5.06530        1.48650       -6.13080
H          3.72100        0.36690       -4.52050
H          2.24110       -0.16380       -2.66020
H          1.95870        3.59370       -0.87680
H          1.63520        6.73720        1.03210
H          0.30150        7.61010        0.22670
H         -0.53460        6.21730        2.11770
H          0.13480        4.76610        1.35860
H         -1.17990        5.63600        0.56720
H          2.46440        8.25010       -0.51220
H          4.24000        8.93190       -2.04640
H          4.86090        7.55170       -3.95070
H          4.15640        5.06260       -6.51300
H          4.38810        6.67490       -5.82860
H          6.58100        5.55320       -6.22600
H          6.34620        5.79110       -4.48820
H          6.08690        4.19910       -5.20040
H          1.57920        5.41110       -5.42790
H          1.99770        3.64150      -10.35700
H         -1.69360        0.85450       -8.28650
H         -1.43170        0.19630      -11.64960
H         -0.30520       -1.80410      -10.29560
H         -0.23460       -2.38130      -12.85770
H          1.68840       -0.93280      -13.97960
H          2.80480        0.53460      -12.10550
H          2.31210       -1.61070      -10.63850
H          1.77090       -0.18110       -9.73700
H          0.45500        1.62110      -12.73940
