206

C         -6.15120        1.29150       -2.26840
C         -6.56230        2.08870       -3.31260
C         -5.72340        2.66540       -4.36270
O         -4.57850        2.35500       -4.65940
C         -6.54750        3.67860       -5.04310
C         -6.15160        4.54420       -6.06030
C         -7.14110        5.40080       -6.48030
C         -8.43040        5.39520       -5.93310
C         -8.83540        4.54200       -4.93290
C         -7.84270        3.66600       -4.48710
C         -7.89350        2.63070       -3.45510
C         -9.01890        2.25480       -2.76290
C        -10.27180        2.89300       -2.85120
N        -11.32050        3.36200       -2.83980
C         -9.11290        1.15210       -1.89390
N         -9.30170        0.25260       -1.20210
C         -8.89540        6.52930       -6.81250
C         -8.98920        7.91980       -6.14910
C         -8.99140        8.87850       -7.31790
C         -7.77090        8.88300       -7.83840
C         -6.92300        7.92770       -7.03000
C         -7.55430        8.12230       -5.64530
C         -7.45750        6.53440       -7.42400
C         -4.87350        0.87900       -1.89410
C         -4.58850        0.19570       -0.68710
N         -5.46270        0.00330        0.34750
C         -6.45160        0.93800        0.69560
C         -7.67680        0.49870        1.18790
C         -8.68380        1.40190        1.46760
C         -8.48660        2.75620        1.23810
S         -9.74610        3.97250        1.44790
C        -11.27410        2.99750        1.34530
C         -7.23510        3.20500        0.81500
C         -6.22350        2.30930        0.55910
C         -5.29660       -1.13220        1.16720
C         -5.23040       -2.39370        0.58850
C         -5.05390       -3.51540        1.37540
C         -4.94090       -3.38460        2.75330
S         -4.68320       -4.73470        3.85680
C         -4.67530       -6.19380        2.77610
C         -5.03230       -2.11980        3.33500
C         -5.21330       -1.00250        2.55210
C         -3.24110       -0.21100       -0.64740
S         -2.28560       -1.05330        0.52310
C         -0.84940       -0.82900       -0.47180
C         -1.09460       -0.05710       -1.59730
N         -0.10150        0.44840       -2.41430
C         -0.43250        1.03600       -3.65130
C         -1.25960        0.37060       -4.54920
C         -1.65220        0.97160       -5.72870
C         -1.22570        2.25700       -6.02600
S         -1.74570        3.12310       -7.47220
C         -3.36240        2.35990       -7.80380
C         -0.34930        2.90480       -5.15990
C          0.04440        2.30370       -3.98500
C          1.15710        0.76490       -1.86600
C          1.28260        1.31480       -0.59320
C          2.52340        1.64320       -0.08550
C          3.66090        1.45370       -0.85770
S          5.27880        1.88320       -0.29340
C          4.94080        3.18400        0.92970
C          3.54200        0.91090       -2.13440
C          2.30320        0.56770       -2.63360
C         -2.47790        0.23720       -1.71740
S         -3.42030        1.11420       -2.87140
C          0.38500       -1.42430       -0.03840
C          1.17120       -2.36140       -0.69330
N          0.88250       -2.92000       -1.92540
C          1.91850       -3.39710       -2.74110
C          1.74570       -4.56130       -3.49080
C          2.77620       -5.04910       -4.26170
C          4.00620       -4.39490       -4.29740
S          5.26840       -5.11800       -5.29600
C          6.78880       -4.35380       -4.66140
C          4.17410       -3.22310       -3.57350
C          3.13830       -2.72950       -2.80430
C         -0.45590       -3.11460       -2.29380
C         -1.39550       -3.52570       -1.34850
C         -2.73280       -3.56570       -1.66880
C         -3.16150       -3.20440       -2.94250
S         -4.90590       -3.10510       -3.21990
C         -5.02730       -1.93190       -4.60000
C         -2.21840       -2.93030       -3.92330
C         -0.87500       -2.88070       -3.59950
C          2.28440       -2.73280        0.10230
S          3.57380       -3.87450       -0.07670
C          4.16090       -3.48100        1.52050
C          3.38760       -2.52090        2.16060
N          3.64590       -2.03040        3.45130
C          4.37580       -0.85040        3.59740
C          4.24220       -0.05140        4.73340
C          5.05290        1.04820        4.91150
C          6.00840        1.38390        3.95750
S          7.04100        2.78950        4.28450
C          8.48740        2.48530        3.23030
C          6.09660        0.63830        2.79180
C          5.27940       -0.45780        2.60980
C          3.18530       -2.79440        4.53330
C          2.01450       -3.53700        4.40360
C          1.54390       -4.31040        5.44760
C          2.24070       -4.35700        6.64580
S          1.73420       -5.29050        8.05560
C          0.20120       -6.10140        7.51860
C          3.42450       -3.63090        6.77350
C          3.89730       -2.86420        5.73360
C          2.32730       -2.10070        1.33940
S          0.98310       -1.04700        1.57350
C          5.42380       -3.94340        1.96630
N          6.29700       -4.57320        1.20920
N          7.47010       -4.67980        1.74420
C          7.59380       -4.11430        2.92430
S          6.07420       -3.45630        3.50710
C          8.86660       -3.96660        3.52590
C          9.23340       -3.05640        4.47130
C          8.36700       -2.01150        5.06000
O          7.15290       -2.00390        5.14410
C          9.27400       -0.96390        5.54080
C          8.96100        0.27600        6.01880
C         10.00730        1.15030        6.38730
C          9.74750        2.45460        6.85140
C         10.77620        3.28830        7.19770
C         12.10590        2.85190        7.09860
C         12.39110        1.59140        6.64780
C         11.35780        0.70740        6.27680
C         11.64820       -0.59150        5.79670
C         10.62010       -1.41720        5.42610
C         10.60530       -2.76520        4.87040
C         11.67280       -3.61520        4.78700
C         12.97660       -3.27560        5.20650
N         14.05490       -3.04500        5.52430
C         11.60190       -4.94840        4.32700
N         11.61270       -6.04460        3.98790
H         -6.93150        0.97160       -1.59030
H         -5.14640        4.52380       -6.45110
H         -9.83100        4.54920       -4.52150
H         -9.73900        6.31110       -7.46460
H         -9.79390        8.02580       -5.42670
H         -9.86550        9.39530       -7.66820
H         -7.42170        9.40430       -8.71040
H         -5.84530        8.04150       -7.11040
H         -7.39270        9.12650       -5.25700
H         -7.23590        7.39050       -4.90510
H         -7.34200        6.31800       -8.48450
H         -7.85100       -0.55700        1.32520
H         -9.62720        1.03210        1.83300
H        -11.43900        2.45250        2.27040
H        -12.07280        3.71670        1.19420
H        -11.21530        2.32500        0.49470
H         -7.07360        4.26410        0.68490
H         -5.25990        2.66290        0.22330
H         -5.33340       -2.49180       -0.48230
H         -5.01900       -4.48380        0.90280
H         -4.53490       -7.04420        3.43620
H         -3.84970       -6.13340        2.07300
H         -5.62830       -6.28090        2.26290
H         -4.95300       -2.02900        4.40730
H         -5.28170       -0.02370        3.00250
H         -1.60040       -0.62260       -4.31060
H         -2.29880        0.43270       -6.40210
H         -3.23590        1.40950       -8.31500
H         -3.88390        2.23620       -6.85870
H         -3.89700        3.04980       -8.44970
H         -0.00310        3.89690       -5.40600
H          0.69980        2.82790       -3.30540
H          0.40110        1.49880        0.00310
H          2.59080        2.05120        0.91030
H          4.58450        2.74980        1.85980
H          5.88620        3.68900        1.10200
H          4.22050        3.88310        0.51670
H          4.43010        0.76640       -2.73050
H          2.20970        0.15980       -3.62900
H          0.80480       -5.08940       -3.45030
H          2.64740       -5.95550       -4.83270
H          6.80650       -4.43060       -3.57840
H          6.85800       -3.31970       -4.98700
H          7.60610       -4.92660       -5.08830
H          5.10520       -2.68080       -3.59960
H          3.27580       -1.81190       -2.25280
H         -1.07280       -3.78620       -0.35160
H         -3.45720       -3.85490       -0.92600
H         -6.06780       -1.62260       -4.63160
H         -4.39180       -1.07210       -4.40630
H         -4.76250       -2.41780       -5.53490
H         -2.52380       -2.73500       -4.93960
H         -0.14510       -2.63230       -4.35590
H          3.50840       -0.30350        5.48290
H          4.95610        1.65560        5.79890
H          9.25680        3.16960        3.57470
H          8.25120        2.68980        2.18970
H          8.81850        1.45910        3.36070
H          6.80050        0.89390        2.01610
H          5.36670       -1.02500        1.69490
H          1.45380       -3.50570        3.48160
H          0.62880       -4.86310        5.30960
H          0.40400       -6.75960        6.67870
H         -0.54690       -5.35560        7.26620
H         -0.13330       -6.68460        8.37090
H          3.97510       -3.68630        7.70010
H          4.82910       -2.33170        5.83770
H          9.63070       -4.57190        3.05310
H          7.93130        0.59080        6.10030
H          8.72130        2.78420        6.91720
H         10.57050        4.28800        7.54960
H         12.90550        3.52100        7.37950
H         13.41380        1.25320        6.56830
H         12.68040       -0.89520        5.71950
