156

C         -0.42110       -0.01750        7.38610
C         -0.90090       -1.00360        8.17780
C         -1.60460       -2.24530        7.75140
O         -2.08700       -2.50790        6.66830
C         -1.55690       -3.14650        8.91610
C         -2.04350       -4.45250        8.98090
C         -1.80120       -5.08330       10.17570
C         -1.12930       -4.46330       11.23900
C         -0.67330       -3.16840       11.20310
C         -0.91050       -2.50710        9.99320
C         -0.58960       -1.14440        9.59680
C         -0.17180       -0.14240       10.42720
C         -0.00640        1.20830       10.04670
N          0.11620        2.32960        9.83450
C          0.08630       -0.30730       11.80540
N          0.31140       -0.37550       12.92870
C         -1.20350       -5.69350       12.10810
C          0.09010       -6.52810       12.22360
C         -0.39150       -7.87590       12.70950
C         -1.03030       -8.46230       11.70510
C         -0.99160       -7.51990       10.52360
C          0.37640       -6.86400       10.75410
C         -1.95600       -6.38310       10.92490
C         -0.62120        0.17730        5.97080
C         -1.79760       -0.11250        5.27110
C         -1.79550        0.00330        3.89680
C         -0.62580        0.39370        3.24180
C          0.43820        0.82550        4.05590
N          0.43500        0.72660        5.35570
C         -0.48150        0.35900        1.81090
C          0.64420       -0.03860        1.09650
N          1.74800       -0.65180        1.65280
C          1.62030       -1.40460        2.83650
C          2.57720       -1.28830        3.84380
C          2.41940       -1.96440        5.03400
C          1.30310       -2.76810        5.24380
S          1.14460       -3.55380        6.81960
C          0.07980       -4.97530        6.43980
C          0.36160       -2.91140        4.23330
C          0.52770       -2.24390        3.03720
C          2.99480       -0.61130        1.00950
C          3.43580        0.54440        0.36880
C          4.65170        0.55870       -0.28620
C          5.45090       -0.57550       -0.29980
S          7.04280       -0.60980       -1.07300
C          6.71800        0.20350       -2.66500
C          5.03060       -1.71850        0.37320
C          3.81270       -1.74080        1.01500
C          0.44920        0.17230       -0.29240
S          1.43350       -0.04920       -1.69230
C          0.14190        0.56120       -2.73280
C         -1.04230        0.80200       -2.00250
N         -2.26860        1.11800       -2.53250
C         -3.10870        1.97310       -1.79710
C         -2.58540        3.13440       -1.22740
C         -3.39570        3.97120       -0.49600
C         -4.74760        3.67310       -0.32130
S         -5.68050        4.81930        0.63430
C         -7.36640        4.14650        0.61200
C         -5.27160        2.52080       -0.89490
C         -4.45680        1.67790       -1.62420
C         -2.75790        0.48390       -3.68220
C         -2.37320       -0.81950       -4.00270
C         -2.83070       -1.41080       -5.15670
C         -3.68510       -0.72300       -6.02150
S         -4.17940       -1.57350       -7.47500
C         -5.21460       -0.37460       -8.35920
C         -4.09170        0.56590       -5.69230
C         -3.63110        1.15960       -4.53630
C         -0.81800        0.63610       -0.61990
S         -1.81480        0.83860        0.77930
C          0.40620        0.93330       -4.05760
S         -0.70760        1.95160       -4.92320
C          0.32480        2.10370       -6.34160
C          1.50290        1.38830       -6.10730
S          2.85830        1.05170       -7.10660
C          3.52000        0.00730       -5.87950
C          4.82020       -0.62980       -6.08980
O          5.41100       -1.28300       -5.26510
O          5.26040       -0.38030       -7.32790
C          6.55410       -0.87880       -7.66740
C          7.64990        0.05800       -7.17980
C          2.73040       -0.05780       -4.76060
C          1.54980        0.71640       -4.85710
F          3.05250       -0.80830       -3.70640
C         -0.22780        2.75370       -7.43590
C          0.39480        3.20050       -8.58930
C          1.81880        3.48280       -8.72280
O          2.68160        3.38300       -7.86370
C          1.99290        4.04830      -10.08140
C          3.14730        4.46760      -10.70400
C          3.03420        4.99480      -11.98990
C          4.29120        5.44820      -12.67890
F          4.91880        6.42170      -11.99460
F          4.08200        5.92650      -13.91200
F          5.18400        4.44890      -12.80490
C          1.80090        5.10190      -12.61750
C          0.64010        4.67940      -11.98010
C          0.73720        4.14810      -10.70580
C         -0.27750        3.61160       -9.79300
C         -1.61220        3.46550      -10.08750
C         -2.56380        2.84650       -9.25640
N         -3.40260        2.33650       -8.65690
C         -2.21200        3.89450      -11.28880
N         -2.76610        4.22640      -12.23820
H          0.29490        0.67880        7.80570
H         -2.56510       -4.89640        8.14730
H         -0.16510       -2.69960       12.02900
H         -1.72030       -5.57530       13.05820
H          0.88550       -6.05690       12.79400
H         -0.27010       -8.22890       13.71650
H         -1.54940       -9.40260       11.70540
H         -1.18200       -7.95510        9.54580
H          0.56640       -5.99230       10.12990
H          1.19570       -7.57290       10.64690
H         -2.97670       -6.72530       11.08450
H         -2.68380       -0.42670        5.79450
H         -2.67430       -0.24590        3.31910
H          1.31540        1.28240        3.61740
H          3.43820       -0.65560        3.69140
H          3.15120       -1.86130        5.81960
H          0.48220       -5.50330        5.58080
H         -0.93480       -4.63410        6.25490
H          0.10590       -5.61310        7.31790
H         -0.51400       -3.52330        4.37300
H         -0.20890       -2.36260        2.25620
H          2.83390        1.44090        0.40340
H          4.97940        1.46550       -0.77030
H          5.98310       -0.37530       -3.21720
H          6.38910        1.22700       -2.51470
H          7.66680        0.19660       -3.19250
H          5.66350       -2.59200        0.37260
H          3.47930       -2.63720        1.51620
H         -1.54260        3.37470       -1.37140
H         -2.99620        4.87100       -0.05470
H         -7.96650        4.84870        1.18230
H         -7.38540        3.17260        1.09190
H         -7.73250        4.09440       -0.40910
H         -6.31070        2.26140       -0.77450
H         -4.86580        0.77730       -2.05730
H         -1.71620       -1.36500       -3.34190
H         -2.53320       -2.41760       -5.40640
H         -4.64640        0.53090       -8.55230
H         -6.11360       -0.17020       -7.78490
H         -5.47830       -0.85490       -9.29640
H         -4.74380        1.12560       -6.34070
H         -3.92770        2.16980       -4.29860
H          6.67830       -1.87260       -7.22460
H          6.55140       -0.95110       -8.75650
H          7.64760        0.09810       -6.09320
H          8.61640       -0.30490       -7.51680
H          7.48810        1.05920       -7.57170
H         -1.29250        2.93420       -7.35010
H          4.10360        4.38650      -10.21070
H          1.74150        5.51830      -13.61120
H         -0.30680        4.77550      -12.48510
