210

C         -3.36010       -2.00690        5.18120
C         -2.99790       -2.93670        6.13320
C         -2.08600       -4.06340        5.88370
O         -1.48710       -4.31690        4.85360
C         -2.13690       -4.89750        7.10320
C         -1.43560       -6.07420        7.34710
C         -1.65920       -6.61150        8.59330
C         -2.51960       -6.02420        9.52820
C         -3.22430       -4.86590        9.29750
C         -3.01080       -4.30650        8.03620
C         -3.54200       -3.07700        7.45360
C         -4.29560       -2.13380        8.11050
C         -4.77730       -2.26200        9.42630
N         -5.20390       -2.28480       10.49320
C         -4.61180       -0.87000        7.57670
N         -4.85900        0.20190        7.24220
C         -2.26240       -7.09530       10.55940
C         -3.36140       -8.16390       10.73540
C         -2.64870       -9.30800       11.41960
C         -1.83590       -9.86600       10.53150
C         -1.98520       -9.10780        9.23230
C         -3.47050       -8.73280        9.31480
C         -1.30350       -7.75220        9.51520
C         -2.61170       -1.65060        4.05800
C         -1.22520       -1.72730        3.79840
N         -0.24700       -1.96830        4.71820
C          1.01980       -2.41050        4.29260
C          2.16860       -1.82100        4.81810
C          3.40950       -2.23980        4.39670
C          3.52860       -3.25320        3.44570
S          5.16700       -3.69810        2.98170
C          4.93540       -4.90840        1.65300
C          2.38420       -3.85560        2.93910
C          1.13780       -3.43660        3.36190
C         -0.43600       -1.74370        6.08970
C         -1.12150       -0.62180        6.54990
C         -1.36490       -0.44640        7.89620
C         -0.92960       -1.39820        8.81310
S         -1.27040       -1.33780       10.53770
C         -2.30420        0.13910       10.73850
C         -0.18290       -2.48630        8.36250
C          0.06720       -2.65610        7.01900
C         -0.95320       -1.34890        2.46300
S          0.47610       -1.21930        1.49250
C         -0.43590       -0.51450        0.15850
C         -1.78160       -0.40920        0.46080
N         -2.78070        0.21700       -0.31980
C         -3.84910       -0.57020       -0.75970
C         -4.84090       -0.01470       -1.57350
C         -5.88590       -0.78430       -2.03240
C         -5.96250       -2.13690       -1.71270
S         -7.31500       -3.05580       -2.39210
C         -7.27820       -4.61430       -1.45970
C         -4.96290       -2.70650       -0.94210
C         -3.92010       -1.93200       -0.47520
C         -2.98360        1.56840        0.04880
C         -1.89990        2.44760        0.05380
C         -2.06850        3.76670        0.41520
C         -3.32100        4.24380        0.79340
S         -3.41970        5.95680        1.20940
C         -5.12360        6.16660        1.79750
C         -4.39410        3.36470        0.83050
C         -4.22170        2.04130        0.47290
C         -2.05690       -0.89120        1.75860
S         -3.49800       -0.93430        2.70220
C          0.32620       -0.01960       -0.94210
C         -0.03060        0.37580       -2.22900
N         -1.21700        0.12970       -2.90180
C         -1.79730       -1.13960       -2.98040
C         -1.18460       -2.27900       -2.45990
C         -1.78550       -3.51450       -2.57930
C         -3.00230       -3.65380       -3.23770
S         -3.71020       -5.27020       -3.30870
C         -5.00050       -5.11360       -4.57840
C         -3.61390       -2.52750       -3.76890
C         -3.02480       -1.28990       -3.62750
C         -1.58400        1.11340       -3.85210
C         -1.67540        0.81370       -5.20820
C         -2.03050        1.78530       -6.12230
C         -2.29240        3.07890       -5.69190
S         -2.76750        4.39560       -6.76890
C         -3.13440        3.56380       -8.34200
C         -2.17640        3.39010       -4.33990
C         -1.82730        2.41790       -3.42810
C          1.05220        1.04400       -2.86270
S          1.21540        1.92260       -4.34600
C          2.90990        2.22650       -4.00080
C          3.30300        1.73110       -2.75730
N          4.51900        1.94080       -2.14390
C          5.14770        3.19390       -2.21710
C          4.38550        4.35920       -2.21860
C          4.98700        5.59830       -2.30120
C          6.37020        5.69430       -2.38710
S          7.25270        7.21310       -2.49640
C          5.94940        8.47480       -2.53930
C          7.13770        4.52990       -2.37860
C          6.53760        3.29480       -2.29380
C          5.12590        0.86710       -1.48240
C          5.87640        1.06430       -0.32650
C          6.53250        0.00890        0.27530
C          6.44380       -1.26700       -0.26680
S          7.30930       -2.67130        0.35110
C          8.16570       -2.05680        1.82500
C          5.65560       -1.47570       -1.39770
C          5.00560       -0.42420       -1.99990
C          2.22850        1.05590       -2.13200
S          2.03250        0.28920       -0.59890
C          3.67960        2.92590       -4.97390
C          3.07250        3.84580       -5.85910
N          1.78000        4.16160       -5.99550
N          1.76060        5.04420       -6.94970
C          0.54220        5.67290       -7.36960
C          0.05090        6.64860       -6.30650
N          2.91540        5.36330       -7.47290
C          3.80760        4.62480       -6.79780
C          5.21660        4.51930       -6.91310
C          5.77200        3.52180       -6.10160
C          5.04830        2.75970       -5.18790
F          5.70350        1.76550       -4.55690
F          7.08830        3.27700       -6.19120
C          6.04210        5.22330       -7.83350
C          5.80970        6.35700       -8.55010
C          6.66760        6.62240       -9.74950
O          7.68730        6.05320      -10.05790
C          5.95120        7.68200      -10.45890
S          6.13960        8.52300      -11.93670
C          4.70720        9.44130      -11.57460
Br         4.10030       10.73440      -12.78580
C          4.12050        9.12600      -10.37950
C          4.84090        8.10320       -9.73930
C          4.79270        7.37930       -8.48040
C          4.05460        7.77380       -7.39530
C          3.07390        8.78040       -7.48480
N          2.23830        9.56630       -7.53370
C          4.22500        7.29370       -6.08540
N          4.33860        6.99460       -4.98230
H         -4.32830       -1.52800        5.27010
H         -0.77350       -6.49110        6.60390
H         -3.88430       -4.42300       10.02470
H         -1.84610       -6.75170       11.50440
H         -4.27390       -7.80550       11.20380
H         -2.76370       -9.55040       12.45980
H         -1.13640      -10.66740       10.68170
H         -1.64480       -9.61030        8.33070
H         -4.11890       -9.60650        9.26960
H         -3.78620       -8.00560        8.56910
H         -0.24890       -7.85080        9.76680
H          2.07870       -1.03190        5.55000
H          4.30350       -1.78470        4.79440
H          5.93270       -5.14110        1.29350
H          4.35420       -4.46170        0.85210
H          4.46060       -5.80410        2.04290
H          2.44740       -4.65840        2.22300
H          0.24600       -3.92510        3.00200
H         -1.47780        0.11800        5.84880
H         -1.90530        0.42980        8.21460
H         -3.20430        0.05340       10.13700
H         -1.73730        1.02890       10.48090
H         -2.57170        0.16170       11.79030
H          0.17710       -3.20780        9.07970
H          0.63480       -3.50710        6.67480
H         -4.77980        1.02580       -1.85510
H         -6.64970       -0.34610       -2.65690
H         -6.39610       -5.19290       -1.72020
H         -8.17290       -5.15420       -1.75420
H         -7.30650       -4.39920       -0.39580
H         -4.97080       -3.75670       -0.70050
H         -3.14670       -2.41530        0.09960
H         -0.91650        2.09240       -0.21240
H         -1.22790        4.44370        0.40950
H         -5.82450        5.97230        0.99070
H         -5.30450        5.51390        2.64640
H         -5.19880        7.20430        2.10740
H         -5.37100        3.68880        1.15060
H         -5.06030        1.36500        0.54010
H         -0.22430       -2.21120       -1.97400
H         -1.30610       -4.38970       -2.16790
H         -5.80660       -4.47450       -4.22870
H         -5.37310       -6.11990       -4.74340
H         -4.56160       -4.72620       -5.49290
H         -4.55950       -2.59330       -4.28110
H         -3.53240       -0.42610       -4.02590
H         -1.46040       -0.18800       -5.54950
H         -2.08790        1.52130       -7.16590
H         -2.22610        3.16350       -8.78350
H         -3.87040        2.78230       -8.17970
H         -3.54790        4.33170       -8.98840
H         -2.37340        4.39900       -4.01160
H         -1.75250        2.66180       -2.37970
H          3.30930        4.29630       -2.14940
H          4.36550        6.47690       -2.30200
H          5.41550        8.48800       -1.59340
H          5.28240        8.27430       -3.37270
H          6.46100        9.42070       -2.68760
H          8.21140        4.60810       -2.45210
H          7.13790        2.39830       -2.31310
H          5.95480        2.05470        0.09630
H          7.11320        0.19660        1.16360
H          7.43770       -1.70140        2.54780
H          8.87350       -1.28130        1.54740
H          8.69570       -2.91220        2.23180
H          5.58530       -2.46980       -1.81220
H          4.42890       -0.58800       -2.89770
H          0.75050        6.18490       -8.31000
H         -0.20720        4.89270       -7.51900
H         -0.06380        6.12810       -5.35930
H         -0.91320        7.05020       -6.60260
H          0.75090        7.47100       -6.18160
H          6.98980        4.74220       -8.05920
H          3.23150        9.60100      -10.00760
