187

C          3.34070       -4.93600       -6.87960
C          3.14680       -5.35160       -8.16920
C          4.04910       -6.40890       -8.69770
O          4.86690       -7.04120       -8.06460
C          3.76640       -6.49290      -10.14280
C          4.42860       -7.26950      -11.08950
C          3.95420       -7.11550      -12.37030
C          2.90240       -6.24730      -12.68900
C          2.23140       -5.48450      -11.76190
C          2.69360       -5.63300      -10.45270
C          2.21640       -5.01650       -9.21280
C          0.98300       -4.42590       -9.05690
C          0.44160       -4.03440       -7.81860
N         -0.05810       -3.70090       -6.83940
C          0.06970       -4.19830      -10.10480
N         -0.71050       -3.96100      -10.91390
C          2.97010       -6.57630      -14.15920
C          3.65470       -5.55330      -15.09930
C          4.65230       -4.79590      -14.25880
C          5.64260       -5.62560      -13.95870
C          5.33190       -6.95970      -14.59070
C          4.60200       -6.49430      -15.86080
C          4.13670       -7.55080      -13.80320
C          2.91400       -3.81130       -6.15040
C          2.60080       -2.49400       -6.51540
C          2.84950       -1.93430       -7.88080
C          4.35280       -1.78710       -8.13160
C          2.21310       -1.73860       -5.41020
C          2.22450       -2.46400       -4.21790
S          2.78580       -4.06060       -4.40900
C          1.75140       -1.64670       -3.17320
C          1.42290       -0.38930       -3.67540
C          1.65660       -0.34280       -5.17190
C          2.71450        0.71810       -5.53850
C          2.22280        2.15820       -5.51680
C          0.34140       -0.21830       -5.98430
C         -0.77190        0.58650       -5.32480
C          0.99050        0.47720       -2.67240
C          0.97050       -0.12250       -1.42600
S          1.49930       -1.79000       -1.48540
C          0.60300        0.42980       -0.16410
C          0.75780        1.72310        0.31640
N          1.39070        2.77630       -0.32810
C          2.53910        2.59080       -1.10300
C          3.38890        1.49950       -0.91510
C          4.48370        1.32080       -1.72970
C          4.77830        2.23880       -2.73480
S          6.18270        1.87960       -3.74610
C          6.43820        3.40800       -4.69210
C          3.96380        3.35000       -2.89820
C          2.85030        3.51480       -2.09820
C          1.00940        4.07670        0.05290
C          1.96140        5.02170        0.43610
C          1.56360        6.25770        0.89100
C          0.20990        6.58020        0.97610
S         -0.17890        8.17400        1.62680
C         -1.96720        8.09090        1.92700
C         -0.73900        5.65860        0.55720
C         -0.33920        4.41740        0.09950
C          0.24170        1.83190        1.63120
S          0.15720        3.11360        2.78500
C         -0.54260        2.03960        3.99360
C         -0.65160        0.73710        3.51350
N         -1.04690       -0.37730        4.24200
C         -0.57610       -0.58290        5.54150
C          0.68100       -0.12180        5.92340
C          1.10850       -0.23510        7.23170
C          0.28420       -0.81640        8.18490
S          0.69670       -0.93940        9.89820
C          2.49780       -0.69850        9.91970
C         -0.96090       -1.31120        7.80230
C         -1.38610       -1.20070        6.49850
C         -1.85130       -1.32710        3.59900
C         -2.85450       -0.90980        2.72320
C         -3.62570       -1.83520        2.05850
C         -3.42210       -3.19920        2.25810
S         -4.47620       -4.28680        1.35200
C         -3.87140       -5.94400        1.77880
C         -2.43380       -3.61870        3.13840
C         -1.65290       -2.68980        3.79780
C         -0.23120        0.64640        2.16580
S         -0.09340       -0.65510        1.03890
C         -0.94570        2.52840        5.27140
C         -0.41540        3.56240        6.04230
C          0.65030        4.49990        5.56550
C          0.04610        5.68970        4.81450
C         -1.01030        3.60860        7.30950
C         -2.01390        2.65740        7.47670
S         -2.27660        1.71310        6.07670
C         -2.49740        2.68050        8.80100
C         -1.80320        3.67860        9.50100
C         -0.82570        4.39620        8.59660
C          0.59780        4.30270        9.16990
C          1.12500        2.87400        9.20170
C         -1.24240        5.86300        8.35370
C         -1.40640        6.70010        9.61550
C         -2.14370        3.69980       10.83480
C         -3.10410        2.73480       11.16730
S         -3.57680        1.77730        9.76940
C         -3.59930        2.56370       12.46620
C         -4.50340        1.66110       12.95440
C         -4.88400        1.64460       14.37760
O         -4.49110        2.39200       15.24920
C         -5.84740        0.52350       14.52170
C         -6.50680        0.06380       15.64480
C         -7.36260       -1.02230       15.50430
C         -7.55040       -1.62860       14.27080
C         -6.88900       -1.16760       13.13890
C         -6.03790       -0.08820       13.27620
C         -5.21430        0.60010       12.25050
O         -5.15850        0.32000       11.06540
H          3.96850       -5.62110       -6.31170
H          5.23670       -7.92410      -10.80270
H          1.42420       -4.81930      -12.02120
H          2.06690       -6.99870      -14.59520
H          2.96740       -4.95090      -15.68750
H          4.51170       -3.78270      -13.92990
H          6.49420       -5.44450      -13.32920
H          6.17120       -7.63880      -14.71600
H          4.08630       -7.29840      -16.38390
H          5.25580       -5.96510      -16.55270
H          3.99170       -8.61100      -14.00180
H          2.42780       -2.57530       -8.65280
H          2.36310       -0.96250       -7.96120
H          4.83920       -2.75950       -8.10320
H          4.80810       -1.15470       -7.37250
H          4.52740       -1.34130       -9.10820
H          3.09240        0.49860       -6.53750
H          3.54880        0.61190       -4.84020
H          1.86400        2.43480       -4.53040
H          1.43050        2.31460       -6.24360
H          3.04570        2.82200       -5.77410
H         -0.03810       -1.22700       -6.16510
H          0.57760        0.21830       -6.95660
H         -1.09680        0.10930       -4.40410
H         -1.62370        0.63190       -6.00030
H         -0.46110        1.60200       -5.09900
H          0.66920        1.49170       -2.81650
H          3.19800        0.79560       -0.12040
H          5.13050        0.46820       -1.59030
H          6.52780        4.25000       -4.01230
H          7.37030        3.26630       -5.23020
H          5.62660        3.55530       -5.39890
H          4.17140        4.08860       -3.65530
H          2.21000        4.37190       -2.24880
H          3.01020        4.76840        0.39700
H          2.29590        6.98420        1.20800
H         -2.21660        9.00080        2.46380
H         -2.50740        8.06230        0.98510
H         -2.19340        7.22440        2.54110
H         -1.79160        5.88910        0.58490
H         -1.08050        3.69660       -0.21360
H          1.32710        0.34070        5.19150
H          2.08550        0.13790        7.49460
H          2.81390       -0.94310       10.92880
H          2.74380        0.33570        9.69840
H          2.96340       -1.37600        9.21040
H         -1.59900       -1.76230        8.54610
H         -2.36220       -1.56260        6.21470
H         -3.02610        0.14600        2.57380
H         -4.40070       -1.51440        1.37960
H         -2.83080       -6.04470        1.48500
H         -4.48440       -6.63350        1.20660
H         -4.00420       -6.12840        2.84090
H         -2.25170       -4.66650        3.31420
H         -0.87560       -3.02370        4.46910
H          1.34160        3.97480        4.90370
H          1.21660        4.86640        6.42140
H          0.83440        6.34590        4.45420
H         -0.61500        6.25850        5.46340
H         -0.52870        5.34690        3.95800
H          0.58480        4.69900       10.18610
H          1.27080        4.92680        8.57850
H          2.11550        2.85670        9.65260
H          1.19100        2.46640        8.19520
H          0.46710        2.23450        9.78620
H         -0.48760        6.32630        7.71610
H         -2.18940        5.85950        7.80830
H         -2.20650        6.30920       10.23770
H         -1.65920        7.72190        9.34090
H         -0.48800        6.72470       10.19580
H         -1.72850        4.35500       11.58000
H         -3.19780        3.25090       13.20660
H         -6.35460        0.54090       16.60090
H         -7.88940       -1.40100       16.36810
H         -8.22080       -2.47170       14.19000
H         -7.02940       -1.63350       12.17540
