246

C         -7.15110        8.50060        7.18460
C         -8.44680        8.66330        7.58790
C         -9.55250        7.70930        7.38970
O         -9.51800        6.63120        6.82590
C        -10.73950        8.32070        8.00880
C        -12.02020        7.77670        8.07130
C        -12.93420        8.57210        8.71850
C        -12.59850        9.82000        9.26110
C        -11.34010       10.36950        9.20210
C        -10.39220        9.57480        8.55010
C         -8.97430        9.81860        8.29340
C         -8.28980       10.95010        8.65680
C         -8.85800       12.04140        9.34760
N         -9.24190       12.96700        9.90850
C         -6.92850       11.21780        8.40070
N         -5.83440       11.52740        8.23410
C        -13.99670       10.06330        9.77090
C        -14.25720        9.86130       11.28410
C        -13.23600        8.86080       11.76580
C        -13.55310        7.67950       11.25300
C        -14.79490        7.85990       10.41520
C        -15.50350        8.96430       11.21550
C        -14.37040        8.67290        9.16690
C         -6.53110        7.43240        6.50640
C         -5.19310        7.46240        6.15650
C         -4.74700        6.31890        5.47840
C         -3.44260        6.03120        4.99630
C         -2.39160        7.01540        5.01860
C         -2.51330        8.37010        4.83910
C         -1.32680        9.11760        4.91630
C         -0.19640        8.38650        5.16280
S          1.40060        9.08990        5.23090
C          2.42050        7.67290        5.76790
C          2.27060        7.38430        7.24800
Se        -0.58540        6.54780        5.29730
C         -3.26340        4.75660        4.47210
C         -4.29910        3.79740        4.33670
C         -5.59620        4.08570        4.81630
C         -6.66070        3.11090        4.78490
C         -6.55720        1.75350        4.94980
C         -7.75590        1.02430        4.87230
C         -8.87520        1.77700        4.64110
S        -10.48370        1.09540        4.56140
C        -11.51350        2.57320        4.25730
C        -11.48510        3.00550        2.80490
Se        -8.45840        3.60890        4.51870
C         -5.78310        5.35700        5.35760
S         -7.28570        5.93200        6.01540
C         -3.85330        2.63670        3.65890
C         -2.52750        2.66060        3.33750
S         -1.76000        4.15420        3.82800
C         -1.75740        1.66170        2.67160
C         -2.19840        0.58970        1.95320
C         -1.15470       -0.18010        1.38250
C         -1.26840       -1.32860        0.57390
C         -2.55780       -1.80680        0.12770
C         -3.60700       -1.06080       -0.34680
C         -4.70590       -1.83210       -0.74470
C         -4.51860       -3.18290       -0.57930
C         -5.41570       -4.28480       -0.77370
C         -6.47860       -4.37680       -1.59640
C         -6.89490       -3.48230       -2.63750
C         -6.18080       -2.61130       -3.41640
C         -6.95410       -1.97420       -4.40490
C         -8.26440       -2.34750       -4.39970
C         -9.39270       -1.89470       -5.26520
C         -8.96940       -0.88640       -6.32660
S         -8.56250       -3.52490       -3.16120
S         -2.93990       -3.50030        0.09100
C         -0.07820       -1.91940        0.16490
C          1.19610       -1.40870        0.50160
C          1.31490       -0.27430        1.33180
C          2.60590        0.22410        1.74720
C          3.03300        1.50930        1.96930
C          4.37440        1.58650        2.36910
C          4.99730        0.36450        2.45910
C          6.35050        0.10270        2.86180
C          7.00760       -1.05990        2.73850
C          6.47820       -2.23540        2.06470
C          6.15540       -2.38340        0.74790
C          5.62470       -3.65570        0.44300
C          5.54080       -4.48010        1.52060
C          5.01480       -5.87220        1.58480
C          6.09790       -6.87070        1.99420
S          6.15350       -3.70230        2.94520
S          3.88320       -0.90580        2.07180
C          0.12300        0.32120        1.72810
S         -0.00910        1.75260        2.71100
C          2.22430       -2.06560       -0.21790
C          1.77730       -3.03580       -1.05980
S          0.04370       -3.26160       -0.94160
C          2.55760       -3.62300       -2.11010
C          3.35180       -2.89280       -2.98130
N          3.52160       -1.51800       -2.98050
C          2.47480       -0.64710       -2.65880
C          1.15670       -0.94360       -3.01090
C          0.12740       -0.12930       -2.59790
C          0.38740        1.01270       -1.84300
S         -1.02110        1.93630       -1.31360
C         -0.31550        3.41980       -0.54390
C          1.70030        1.34550       -1.54190
C          2.73230        0.52030       -1.94510
C          4.74970       -1.01960       -3.44900
C          4.78880        0.02340       -4.36960
C          5.99010        0.41860       -4.92070
C          7.16760       -0.22380       -4.56190
S          8.71740        0.18140       -5.31270
C          8.20300        0.44150       -7.03920
C          7.14380       -1.21620       -3.59130
C          5.94410       -1.61120       -3.03970
C          3.96570       -3.73820       -3.93730
S          5.01920       -3.44420       -5.26530
C          5.02030       -5.16270       -5.67230
C          4.20210       -5.90600       -4.79030
N          4.02390       -7.27020       -4.79060
C          3.98030       -7.91430       -3.54020
C          2.99640       -8.85120       -3.24500
C          2.96460       -9.47060       -2.01070
C          3.92250       -9.16430       -1.05320
S          3.98220       -9.87920        0.55760
C          2.56510      -11.01070        0.59340
C          4.91870       -8.23560       -1.35230
C          4.94520       -7.61310       -2.57840
C          3.74310       -8.00370       -5.94990
C          3.00120       -7.44260       -6.98680
C          2.69730       -8.18350       -8.10880
C          3.13500       -9.49890       -8.21680
S          2.78640      -10.51960       -9.60760
C          2.54580       -9.30470      -10.93620
C          3.86820      -10.06520       -7.17690
C          4.17300       -9.32700       -6.05580
C          3.63960       -5.07840       -3.79940
S          2.53080       -5.33680       -2.48570
C          5.82600       -5.70470       -6.68200
C          6.90290       -5.13760       -7.32210
C          7.50700       -3.82070       -7.07080
O          6.97470       -2.82310       -6.61530
C          8.89830       -3.91340       -7.54800
C          9.91090       -2.97300       -7.37890
C         11.11270       -3.34590       -7.93240
C         11.29470       -4.56080       -8.60600
C         10.30110       -5.49560       -8.78340
C          9.07280       -5.13800       -8.22400
C          7.79600       -5.84800       -8.21150
C          7.46570       -6.91760       -9.00570
C          6.14620       -7.35860       -9.20890
N          5.08840       -7.69630       -9.50530
C          8.37500       -7.60460       -9.83330
N          9.07220       -8.21530      -10.51160
C         12.75210       -4.28310       -8.87770
C         13.80060       -5.00580       -7.99590
C         13.12500       -5.30150       -6.67990
C         12.95200       -4.14970       -6.04550
C         13.50790       -3.05410       -6.92090
C         14.67030       -3.80520       -7.58960
C         12.54810       -2.92780       -8.12970
H         -6.46370        9.30790        7.40680
H        -12.23290        6.81170        7.63820
H        -11.10300       11.33160        9.62390
H        -14.50130       10.94330        9.37690
H        -14.33320       10.78250       11.85550
H        -12.38220        9.11820       12.36480
H        -13.01700        6.75240       11.33740
H        -15.36130        6.95850       10.19580
H        -16.33720        9.41960       10.68270
H        -15.83410        8.62700       12.19670
H        -15.12010        8.64440        8.37840
H         -4.55870        8.28800        6.42530
H         -3.45480        8.83270        4.59610
H         -1.30090       10.18550        4.78600
H          3.44270        7.95880        5.52150
H          2.12800        6.81440        5.15480
H          1.23850        7.12600        7.48670
H          2.55490        8.25410        7.83540
H          2.90750        6.54730        7.52610
H         -5.62310        1.27420        5.19020
H         -7.79890       -0.04380        4.99900
H        -11.14970        3.36200        4.92260
H        -12.51750        2.27850        4.56170
H        -10.47150        3.27450        2.50510
H        -11.83550        2.20150        2.16190
H        -12.12620        3.87340        2.66630
H         -4.49570        1.81690        3.39840
H         -3.23940        0.35680        1.83190
H         -3.55900        0.00900       -0.45010
H         -5.62210       -1.41090       -1.11650
H         -5.20200       -5.14180       -0.14700
H         -7.10590       -5.25380       -1.49300
H         -5.12290       -2.45750       -3.30360
H         -6.54070       -1.26300       -5.09680
H        -10.16910       -1.45320       -4.63170
H         -9.83890       -2.76930       -5.74940
H         -9.82890       -0.60090       -6.92810
H         -8.21690       -1.31500       -6.98400
H         -8.56100        0.00910       -5.86440
H          2.41550        2.37700        1.82160
H          4.87970        2.51500        2.57010
H          6.85290        0.94310        3.32370
H          7.99760       -1.15530        3.16610
H          6.29360       -1.59770        0.02490
H          5.29870       -3.94960       -0.54040
H          4.19750       -5.92010        2.30950
H          4.60970       -6.13670        0.60530
H          6.47080       -6.63330        2.98800
H          5.69390       -7.88030        2.00430
H          6.93370       -6.83230        1.29810
H          3.26460       -1.80810       -0.15900
H          0.94490       -1.82420       -3.59870
H         -0.89410       -0.37030       -2.85030
H         -1.16440        4.03010       -0.25120
H          0.29460        3.95440       -1.26590
H          0.25830        3.14770        0.33700
H          1.93590        2.23080       -0.97420
H          3.75030        0.77120       -1.68490
H          3.86890        0.50270       -4.67080
H          5.99960        1.21480       -5.64850
H          9.10680        0.39960       -7.63940
H          7.73420        1.41400       -7.15660
H          7.52490       -0.36100       -7.31430
H          8.06610       -1.69010       -3.29270
H          5.92190       -2.40670       -2.31020
H          2.24740       -9.08960       -3.98510
H          2.18260      -10.18450       -1.80990
H          2.68360      -11.77950       -0.16460
H          1.64310      -10.45390        0.45460
H          2.57760      -11.46250        1.58060
H          5.67460       -8.02060       -0.61430
H          5.71950       -6.89510       -2.80650
H          2.65760       -6.42190       -6.90380
H          2.11400       -7.73060       -8.89320
H          3.31840       -8.54770      -10.84920
H          1.55050       -8.87260      -10.87990
H          2.65590       -9.85270      -11.86660
H          4.20680      -11.08570       -7.26670
H          4.75480       -9.76410       -5.25760
H          5.63130       -6.74920       -6.90530
H          9.73710       -2.05430       -6.84130
H         10.45400       -6.42990       -9.29800
H         13.04440       -4.24920       -9.92540
H         14.29650       -5.84310       -8.47980
H         12.80020       -6.28100       -6.38070
H         12.45320       -3.97310       -5.11060
H         13.73640       -2.11400       -6.42590
H         15.45780       -4.07420       -6.88720
H         15.09960       -3.27380       -8.43790
H         12.70570       -2.00820       -8.69010
