252

C          6.45630        4.84250        6.15360
C          7.11420        4.98710        4.96980
C          7.23210        3.96550        3.89450
O          7.09490        2.76270        3.96230
C          7.53720        4.72600        2.66830
C          7.64110        4.20850        1.37830
C          7.91080        5.15150        0.41580
C          8.06140        6.51350        0.71230
C          7.97120        7.03530        1.98060
C          7.70520        6.09000        2.97600
C          7.54250        6.25950        4.41460
C          7.82170        7.39290        5.13020
C          7.75050        7.48520        6.53690
N          7.73950        7.62800        7.67610
C          8.27340        8.60110        4.56070
N          8.64250        9.61050        4.15700
C          8.30630        6.88060       -0.73040
C          9.76450        7.16900       -1.16430
C         10.65310        6.39580       -0.22170
C         10.51350        5.10660       -0.49970
C          9.52800        4.98460       -1.63580
C          9.84690        6.27300       -2.41070
C          8.14140        5.36310       -1.05940
C          5.92960        3.63080        6.66710
C          6.36520        2.34200        6.51800
C          5.41560        1.37390        6.90670
C          5.45580       -0.01300        6.61570
C          6.68870       -0.68340        6.31970
C          7.96110       -0.34360        6.71980
C          8.94870       -1.24460        6.30330
C          8.43900       -2.29400        5.58690
S          9.35740       -3.56980        4.83460
C          8.13060       -4.92860        4.80590
C          7.84010       -5.45480        6.19570
S          6.71760       -2.17100        5.41220
C          4.20360       -0.62030        6.53040
C          3.00010       -0.01770        6.97410
C          3.01740        1.28490        7.50820
C          1.83850        1.96600        8.00610
C          0.58720        2.09000        7.47180
C         -0.26810        2.91800        8.22050
C          0.33010        3.42980        9.33620
S         -0.44310        4.44650       10.52360
C          0.99450        5.29600       11.27140
C          1.65440        6.26490       10.31110
S          1.96900        2.87490        9.48870
C          4.22310        1.96820        7.38370
S          4.37850        3.69890        7.49430
C          1.85570       -0.74490        6.55400
C          2.16130       -1.75860        5.69350
S          3.87840       -2.07910        5.63680
C          1.34430       -2.16440        4.57840
C          1.69820       -1.84670        3.28050
N          2.94510       -1.33960        2.85580
C          3.93040       -2.26220        2.49350
C          5.28550       -1.93520        2.51300
C          6.24840       -2.86480        2.17360
C          5.88130       -4.15800        1.83410
S          7.03480       -5.42860        1.39820
C          8.55420       -4.50590        1.02920
C          4.53660       -4.50770        1.86390
C          3.57390       -3.57480        2.17690
C          3.13850        0.04520        2.83810
C          3.99050        0.64880        1.91000
C          4.26990        1.99810        1.97320
C          3.68530        2.78850        2.95190
S          4.07750        4.50830        3.15290
C          4.22050        5.07000        1.42850
C          2.76390        2.21950        3.81910
C          2.47770        0.87250        3.74840
C          0.60650       -2.01170        2.40360
S          0.39370       -1.70030        0.72520
C         -1.30580       -2.13180        0.85710
C         -1.65820       -2.53170        2.12590
N         -2.94660       -2.91460        2.49690
C         -3.46770       -2.34000        3.66100
C         -3.16650       -1.00850        3.95760
C         -3.61920       -0.43500        5.12320
C         -4.39580       -1.16810        6.01800
S         -4.90810       -0.32310        7.48220
C         -5.89300       -1.55430        8.37990
C         -4.71270       -2.48600        5.71970
C         -4.24710       -3.06700        4.55570
C         -3.55120       -4.00090        1.85670
C         -4.93430       -4.06600        1.70980
C         -5.53390       -5.16290        1.12010
C         -4.75680       -6.21710        0.66130
S         -5.39130       -7.68810       -0.07690
C         -7.18950       -7.45570       -0.06950
C         -3.37220       -6.14630        0.78760
C         -2.77400       -5.05350        1.37140
C         -0.55400       -2.45620        3.01420
S         -0.32000       -2.68140        4.71660
C         -2.18620       -1.72320       -0.21460
C         -2.58910       -2.34840       -1.37020
N         -2.26980       -3.66140       -1.70200
C         -0.90660       -4.00520       -1.66740
C         -0.47250       -5.24310       -1.20640
C          0.87710       -5.53410       -1.12810
C          1.81990       -4.58930       -1.51050
S          3.56650       -4.82220       -1.40990
C          3.75430       -6.59750       -1.07990
C          1.38790       -3.35700       -1.99630
C          0.04440       -3.06900       -2.07880
C         -3.27620       -4.48980       -2.18710
C         -2.99780       -5.59890       -2.98340
C         -4.01630       -6.40720       -3.44630
C         -5.33760       -6.11470       -3.14000
S         -6.70070       -7.10080       -3.69090
C         -5.95370       -8.75190       -3.82210
C         -5.62500       -4.99000       -2.37610
C         -4.60990       -4.19760       -1.89110
C         -3.29380       -1.45200       -2.21640
S         -3.98450       -1.57670       -3.79270
C         -4.27250        0.16940       -3.83610
C         -3.92090        0.78710       -2.62780
N         -3.90910        2.12950       -2.34350
C         -2.80110        2.61240       -1.60810
C         -1.51310        2.21020       -1.96580
C         -0.43840        2.58370       -1.19370
C         -0.62410        3.37350       -0.05950
S          0.82870        3.72430        0.87540
C          0.23240        4.62130        2.33490
C         -1.89780        3.82280        0.26300
C         -2.98110        3.44140       -0.50830
C         -4.86250        3.01450       -2.84600
C         -4.50230        4.30760       -3.22700
C         -5.42760        5.13330       -3.82620
C         -6.72480        4.68520       -4.06240
S         -7.82690        5.73640       -4.95330
C         -8.78960        4.51790       -5.90200
C         -7.11120        3.43160       -3.60490
C         -6.18830        2.60590       -2.99690
C         -3.35890       -0.15890       -1.73460
S         -2.65040       -0.02680       -0.16770
C         -4.77530        0.77910       -5.00030
C         -4.64210        0.40500       -6.30630
C         -5.57870        0.96370       -7.30840
O         -6.38350        1.85630       -7.12730
C         -5.35590        0.17950       -8.53710
C         -6.04750        0.27990       -9.74180
C         -5.61740       -0.59450      -10.71100
C         -4.57830       -1.51000      -10.49890
C         -3.88160       -1.61660       -9.31830
C         -4.29820       -0.73070       -8.32280
C         -3.75480       -0.50650       -6.98390
C         -2.49960       -0.87700       -6.56540
C         -1.64280       -1.73730       -7.27850
N         -0.90660       -2.44690       -7.80180
C         -1.87050       -0.34450       -5.42470
N         -1.28200        0.11450       -4.55030
C         -4.68760       -2.07880      -11.89120
C         -5.39760       -3.44460      -12.06070
C         -6.36710       -3.56940      -10.91170
C         -7.34900       -2.70120      -11.11460
C         -7.06100       -1.97330      -12.40420
C         -6.36930       -3.09280      -13.19840
C         -5.84350       -1.05650      -12.12910
H          6.17680        5.73750        6.69740
H          7.51710        3.15180        1.19500
H          8.08540        8.08500        2.19450
H          7.59610        7.57730       -1.17160
H          9.99820        8.22290       -1.28820
H         11.22980        6.84850        0.56350
H         10.95030        4.26590        0.00710
H          9.54650        4.04950       -2.18970
H          9.10570        6.51690       -3.17070
H         10.84040        6.26130       -2.85610
H          7.32490        5.07010       -1.71750
H          7.30970        2.09910        6.07380
H          8.17350        0.50410        7.34530
H          9.99490       -1.14240        6.52640
H          7.23100       -4.55110        4.31990
H          8.58430       -5.69550        4.17910
H          7.13110       -6.27730        6.13150
H          7.40750       -4.67580        6.82020
H          8.75240       -5.81360        6.66710
H          0.29810        1.65580        6.53150
H         -1.28280        3.14260        7.94780
H          0.57800        5.81490       12.13410
H          1.68700        4.52690       11.61380
H          2.05420        5.74220        9.44470
H          2.47540        6.77310       10.81190
H          0.93820        7.00880        9.96970
H          0.84530       -0.44270        6.75930
H          5.60040       -0.95100        2.82330
H          7.28480       -2.56760        2.20110
H          9.23660       -5.22570        0.58800
H          8.98730       -4.10160        1.94030
H          8.33110       -3.71900        0.31520
H          4.25570       -5.52380        1.63840
H          2.53580       -3.87020        2.17490
H          4.43590        0.05220        1.12880
H          4.94690        2.43130        1.25400
H          4.16260        6.15350        1.45940
H          5.17630        4.76750        1.01020
H          3.39320        4.66190        0.85660
H          2.27740        2.83520        4.56120
H          1.73840        0.46270        4.41610
H         -2.57650       -0.42780        3.26320
H         -3.38220        0.59220        5.35490
H         -5.27430       -2.40860        8.63940
H         -6.74990       -1.85210        7.78260
H         -6.22930       -1.05540        9.28350
H         -5.30970       -3.08150        6.39130
H         -4.47980       -4.10040        4.34660
H         -5.54480       -3.25010        2.06840
H         -6.60760       -5.18020        1.02340
H         -7.54320       -7.33310        0.95000
H         -7.45350       -6.60650       -0.69180
H         -7.60370       -8.36310       -0.49770
H         -2.77860       -6.97870        0.44010
H         -1.69970       -5.01520        1.47510
H         -1.19690       -5.98060       -0.90000
H          1.17760       -6.50100       -0.75670
H          3.31680       -6.85440       -0.11980
H          4.82490       -6.77550       -1.05010
H          3.30060       -7.17020       -1.88340
H          2.11980       -2.62860       -2.30850
H         -0.27470       -2.11350       -2.46870
H         -1.97760       -5.82250       -3.25520
H         -3.76880       -7.25910       -4.05960
H         -5.34740       -8.93410       -2.93990
H         -5.36410       -8.83070       -4.73100
H         -6.78100       -9.45360       -3.86180
H         -6.65360       -4.74690       -2.15530
H         -4.84980       -3.35620       -1.25890
H         -1.36650        1.59040       -2.83770
H          0.55790        2.25950       -1.45160
H         -0.21120        5.56700        2.03790
H          1.11320        4.80250        2.94400
H         -0.47520        4.00390        2.88020
H         -2.06510        4.45440        1.12070
H         -3.97460        3.77320       -0.24490
H         -3.48490        4.64040       -3.08730
H         -5.14570        6.12190       -4.15310
H         -9.22940        5.06540       -6.72960
H         -9.57720        4.09250       -5.28680
H         -8.11930        3.74850       -6.27460
H         -8.12580        3.08910       -3.73010
H         -6.48610        1.62810       -2.64600
H         -5.40330        1.65340       -4.86110
H         -6.84150        0.99950       -9.86720
H         -3.08510       -2.32600       -9.16460
H         -3.79680       -1.99470      -12.51060
H         -4.72670       -4.28520      -12.21670
H         -6.21420       -4.21370      -10.06580
H         -8.18000       -2.47610      -10.47190
H         -7.90520       -1.47480      -12.87350
H         -5.87130       -2.74060      -14.10080
H         -7.04290       -3.91190      -13.44570
H         -5.70620       -0.30470      -12.90400
