
  xtb     02122220193D
 energy: -364.968581459632 gnorm: 0.003012828849 xtb: 6.4.1 (unknown)
213233  0     0  0            999 V2000
   -5.9823   -1.0395    3.7434 C   0  0  0  0  0  0  0  0  0  0  0  0
   -6.4284    0.0643    4.4358 C   0  0  0  0  0  0  0  0  0  0  0  0
   -5.5812    1.2014    4.8217 C   0  0  0  0  0  0  0  0  0  0  0  0
   -4.4036    1.3749    4.5591 O   0  0  0  0  0  0  0  0  0  0  0  0
   -6.4166    2.0352    5.7141 C   0  0  0  0  0  0  0  0  0  0  0  0
   -6.0489    3.2192    6.3469 C   0  0  0  0  0  0  0  0  0  0  0  0
   -7.0417    3.7760    7.1188 C   0  0  0  0  0  0  0  0  0  0  0  0
   -8.3058    3.1914    7.2609 C   0  0  0  0  0  0  0  0  0  0  0  0
   -8.6821    2.0209    6.6435 C   0  0  0  0  0  0  0  0  0  0  0  0
   -7.6882    1.4448    5.8489 C   0  0  0  0  0  0  0  0  0  0  0  0
   -7.7249    0.2341    5.0317 C   0  0  0  0  0  0  0  0  0  0  0  0
   -8.8399   -0.5156    4.7459 C   0  0  0  0  0  0  0  0  0  0  0  0
  -10.1161   -0.2822    5.2926 C   0  0  0  0  0  0  0  0  0  0  0  0
  -11.1741   -0.1439    5.7179 N   0  0  0  0  0  0  0  0  0  0  0  0
   -8.8552   -1.5717    3.8136 C   0  0  0  0  0  0  0  0  0  0  0  0
   -8.9438   -2.4149    3.0375 N   0  0  0  0  0  0  0  0  0  0  0  0
   -8.7900    4.2694    8.1985 C   0  0  0  0  0  0  0  0  0  0  0  0
   -8.8263    3.9077    9.6985 C   0  0  0  0  0  0  0  0  0  0  0  0
   -8.8698    5.2502   10.3918 C   0  0  0  0  0  0  0  0  0  0  0  0
   -7.6770    5.8143   10.2529 C   0  0  0  0  0  0  0  0  0  0  0  0
   -6.8064    4.8613    9.4656 C   0  0  0  0  0  0  0  0  0  0  0  0
   -7.3653    3.5219    9.9629 C   0  0  0  0  0  0  0  0  0  0  0  0
   -7.3818    4.9268    8.0356 C   0  0  0  0  0  0  0  0  0  0  0  0
   -4.8791   -1.0874    2.8898 C   0  0  0  0  0  0  0  0  0  0  0  0
   -4.2112   -0.0797    2.1645 C   0  0  0  0  0  0  0  0  0  0  0  0
   -4.6624    1.1813    1.9221 N   0  0  0  0  0  0  0  0  0  0  0  0
   -6.0074    1.5584    2.0526 C   0  0  0  0  0  0  0  0  0  0  0  0
   -6.3175    2.7924    2.6184 C   0  0  0  0  0  0  0  0  0  0  0  0
   -7.6312    3.1552    2.8451 C   0  0  0  0  0  0  0  0  0  0  0  0
   -8.6603    2.2902    2.4965 C   0  0  0  0  0  0  0  0  0  0  0  0
  -10.3614    2.5927    2.8259 S   0  0  0  0  0  0  0  0  0  0  0  0
  -10.3330    3.9936    3.9792 C   0  0  0  0  0  0  0  0  0  0  0  0
   -8.3547    1.0927    1.8457 C   0  0  0  0  0  0  0  0  0  0  0  0
   -7.0467    0.7280    1.6297 C   0  0  0  0  0  0  0  0  0  0  0  0
   -3.7725    2.1423    1.3898 C   0  0  0  0  0  0  0  0  0  0  0  0
   -2.5990    2.4689    2.0576 C   0  0  0  0  0  0  0  0  0  0  0  0
   -1.7066    3.3635    1.4964 C   0  0  0  0  0  0  0  0  0  0  0  0
   -1.9810    3.9313    0.2592 C   0  0  0  0  0  0  0  0  0  0  0  0
   -0.8925    5.0354   -0.5826 S   0  0  0  0  0  0  0  0  0  0  0  0
    0.6123    5.0294    0.4282 C   0  0  0  0  0  0  0  0  0  0  0  0
   -3.1807    3.6367   -0.3881 C   0  0  0  0  0  0  0  0  0  0  0  0
   -4.0736    2.7537    0.1747 C   0  0  0  0  0  0  0  0  0  0  0  0
   -3.0515   -0.6147    1.5454 C   0  0  0  0  0  0  0  0  0  0  0  0
   -1.7398    0.0583    0.6457 S   0  0  0  0  0  0  0  0  0  0  0  0
   -1.0524   -1.5411    0.3795 C   0  0  0  0  0  0  0  0  0  0  0  0
   -1.8130   -2.5382    0.9492 C   0  0  0  0  0  0  0  0  0  0  0  0
   -1.6185   -3.9059    0.8184 N   0  0  0  0  0  0  0  0  0  0  0  0
   -0.3410   -4.4577    0.9088 C   0  0  0  0  0  0  0  0  0  0  0  0
    0.6019   -3.9071    1.7748 C   0  0  0  0  0  0  0  0  0  0  0  0
    1.8517   -4.4736    1.8964 C   0  0  0  0  0  0  0  0  0  0  0  0
    2.1915   -5.5943    1.1475 C   0  0  0  0  0  0  0  0  0  0  0  0
    3.8141   -6.2773    1.3527 S   0  0  0  0  0  0  0  0  0  0  0  0
    3.5802   -8.0279    0.9193 C   0  0  0  0  0  0  0  0  0  0  0  0
    1.2633   -6.1374    0.2696 C   0  0  0  0  0  0  0  0  0  0  0  0
    0.0062   -5.5812    0.1612 C   0  0  0  0  0  0  0  0  0  0  0  0
   -2.7554   -4.7113    0.6427 C   0  0  0  0  0  0  0  0  0  0  0  0
   -3.8712   -4.2072   -0.0208 C   0  0  0  0  0  0  0  0  0  0  0  0
   -5.0290   -4.9497   -0.1277 C   0  0  0  0  0  0  0  0  0  0  0  0
   -5.0854   -6.2305    0.4010 C   0  0  0  0  0  0  0  0  0  0  0  0
   -6.5214   -7.2551    0.2997 S   0  0  0  0  0  0  0  0  0  0  0  0
   -7.8740   -6.0453    0.1754 C   0  0  0  0  0  0  0  0  0  0  0  0
   -3.9603   -6.7565    1.0295 C   0  0  0  0  0  0  0  0  0  0  0  0
   -2.8152   -6.0034    1.1643 C   0  0  0  0  0  0  0  0  0  0  0  0
   -2.9235   -1.9892    1.6475 C   0  0  0  0  0  0  0  0  0  0  0  0
   -4.1789   -2.6882    2.5981 S   0  0  0  0  0  0  0  0  0  0  0  0
    0.1653   -1.5626   -0.4057 C   0  0  0  0  0  0  0  0  0  0  0  0
    0.2109   -1.4616   -1.7736 C   0  0  0  0  0  0  0  0  0  0  0  0
   -0.9242   -1.4897   -2.5985 N   0  0  0  0  0  0  0  0  0  0  0  0
   -1.6024   -2.6946   -2.7656 C   0  0  0  0  0  0  0  0  0  0  0  0
   -0.8971   -3.8979   -2.6815 C   0  0  0  0  0  0  0  0  0  0  0  0
   -1.5467   -5.0998   -2.8396 C   0  0  0  0  0  0  0  0  0  0  0  0
   -2.9198   -5.1435   -3.0690 C   0  0  0  0  0  0  0  0  0  0  0  0
   -3.6286   -6.7551   -3.2013 S   0  0  0  0  0  0  0  0  0  0  0  0
   -5.3948   -6.4471   -3.4660 C   0  0  0  0  0  0  0  0  0  0  0  0
   -3.6258   -3.9525   -3.1606 C   0  0  0  0  0  0  0  0  0  0  0  0
   -2.9746   -2.7428   -3.0042 C   0  0  0  0  0  0  0  0  0  0  0  0
   -1.2733   -0.2896   -3.2240 C   0  0  0  0  0  0  0  0  0  0  0  0
   -0.9340    0.9246   -2.6277 C   0  0  0  0  0  0  0  0  0  0  0  0
   -1.2616    2.1267   -3.2203 C   0  0  0  0  0  0  0  0  0  0  0  0
   -1.9357    2.1407   -4.4322 C   0  0  0  0  0  0  0  0  0  0  0  0
   -2.4365    3.6272   -5.2472 S   0  0  0  0  0  0  0  0  0  0  0  0
   -1.3577    4.8879   -4.5087 C   0  0  0  0  0  0  0  0  0  0  0  0
   -2.2617    0.9332   -5.0446 C   0  0  0  0  0  0  0  0  0  0  0  0
   -1.9288   -0.2669   -4.4560 C   0  0  0  0  0  0  0  0  0  0  0  0
    1.5253   -1.2268   -2.2421 C   0  0  0  0  0  0  0  0  0  0  0  0
    2.1909   -0.9725   -3.8073 S   0  0  0  0  0  0  0  0  0  0  0  0
    3.7734   -0.7183   -3.1018 C   0  0  0  0  0  0  0  0  0  0  0  0
    3.7692   -0.7785   -1.7155 C   0  0  0  0  0  0  0  0  0  0  0  0
    4.8351   -0.4164   -0.9108 N   0  0  0  0  0  0  0  0  0  0  0  0
    5.0237   -1.0014    0.3466 C   0  0  0  0  0  0  0  0  0  0  0  0
    4.6866   -2.3292    0.5878 C   0  0  0  0  0  0  0  0  0  0  0  0
    4.9611   -2.9144    1.8099 C   0  0  0  0  0  0  0  0  0  0  0  0
    5.5421   -2.1729    2.8277 C   0  0  0  0  0  0  0  0  0  0  0  0
    5.9423   -2.8189    4.4197 S   0  0  0  0  0  0  0  0  0  0  0  0
    5.4715   -4.5686    4.3198 C   0  0  0  0  0  0  0  0  0  0  0  0
    5.8410   -0.8290    2.6048 C   0  0  0  0  0  0  0  0  0  0  0  0
    5.5911   -0.2527    1.3813 C   0  0  0  0  0  0  0  0  0  0  0  0
    5.7826    0.5147   -1.3680 C   0  0  0  0  0  0  0  0  0  0  0  0
    7.1466    0.2845   -1.1854 C   0  0  0  0  0  0  0  0  0  0  0  0
    8.0782    1.1695   -1.6842 C   0  0  0  0  0  0  0  0  0  0  0  0
    7.6673    2.3082   -2.3696 C   0  0  0  0  0  0  0  0  0  0  0  0
    8.9166    3.3851   -3.0159 S   0  0  0  0  0  0  0  0  0  0  0  0
    8.1123    5.0100   -2.8795 C   0  0  0  0  0  0  0  0  0  0  0  0
    6.3121    2.5591   -2.5342 C   0  0  0  0  0  0  0  0  0  0  0  0
    5.3810    1.6739   -2.0299 C   0  0  0  0  0  0  0  0  0  0  0  0
    2.4711   -1.1056   -1.2368 C   0  0  0  0  0  0  0  0  0  0  0  0
    1.7527   -1.3418    0.3242 S   0  0  0  0  0  0  0  0  0  0  0  0
    4.8926   -0.3812   -3.9542 C   0  0  0  0  0  0  0  0  0  0  0  0
    4.8037    0.6027   -4.9283 C   0  0  0  0  0  0  0  0  0  0  0  0
    3.6094    1.1820   -5.1604 F   0  0  0  0  0  0  0  0  0  0  0  0
    5.8957    1.1053   -5.6227 C   0  0  0  0  0  0  0  0  0  0  0  0
    7.1603    0.6003   -5.3833 C   0  0  0  0  0  0  0  0  0  0  0  0
    7.2795   -0.5210   -4.5128 C   0  0  0  0  0  0  0  0  0  0  0  0
    8.4958   -1.0880   -4.3452 N   0  0  0  0  0  0  0  0  0  0  0  0
    8.5916   -2.1172   -3.5666 C   0  0  0  0  0  0  0  0  0  0  0  0
    7.4531   -2.6503   -2.8911 C   0  0  0  0  0  0  0  0  0  0  0  0
    7.6464   -3.7466   -2.1720 O   0  0  0  0  0  0  0  0  0  0  0  0
    6.5252   -4.3050   -1.4897 C   0  0  0  0  0  0  0  0  0  0  0  0
    6.8606   -5.7323   -1.0986 C   0  0  0  0  0  0  0  0  0  0  0  0
    6.2719   -2.0868   -2.9895 N   0  0  0  0  0  0  0  0  0  0  0  0
    6.1597   -1.0096   -3.7991 C   0  0  0  0  0  0  0  0  0  0  0  0
    8.3811    1.0954   -5.9580 C   0  0  0  0  0  0  0  0  0  0  0  0
    8.7320    2.3681   -6.2549 C   0  0  0  0  0  0  0  0  0  0  0  0
    7.9879    3.6261   -5.9390 C   0  0  0  0  0  0  0  0  0  0  0  0
    6.8427    3.7579   -5.5629 O   0  0  0  0  0  0  0  0  0  0  0  0
    8.9565    4.7068   -6.1839 C   0  0  0  0  0  0  0  0  0  0  0  0
    8.9889    6.1054   -6.0734 C   0  0  0  0  0  0  0  0  0  0  0  0
   10.2073    6.5922   -6.4616 C   0  0  0  0  0  0  0  0  0  0  0  0
   10.6779    8.2288   -6.4837 Cl  0  0  0  0  0  0  0  0  0  0  0  0
   11.3311    5.3582   -6.9755 S   0  0  0  0  0  0  0  0  0  0  0  0
   10.1412    4.1630   -6.6564 C   0  0  0  0  0  0  0  0  0  0  0  0
   10.0571    2.7378   -6.7607 C   0  0  0  0  0  0  0  0  0  0  0  0
   11.0369    1.9285   -7.2722 C   0  0  0  0  0  0  0  0  0  0  0  0
   12.2574    2.4815   -7.7168 C   0  0  0  0  0  0  0  0  0  0  0  0
   13.2506    2.9262   -8.0803 N   0  0  0  0  0  0  0  0  0  0  0  0
   10.9592    0.5334   -7.4510 C   0  0  0  0  0  0  0  0  0  0  0  0
   10.9737   -0.5972   -7.6495 N   0  0  0  0  0  0  0  0  0  0  0  0
   -6.4942   -1.9825    3.8942 H   0  0  0  0  0  0  0  0  0  0  0  0
   -5.0622    3.6359    6.2154 H   0  0  0  0  0  0  0  0  0  0  0  0
   -9.6568    1.5776    6.7650 H   0  0  0  0  0  0  0  0  0  0  0  0
   -9.6676    4.8275    7.8757 H   0  0  0  0  0  0  0  0  0  0  0  0
   -9.5924    3.1884    9.9743 H   0  0  0  0  0  0  0  0  0  0  0  0
   -9.7511    5.6612   10.8483 H   0  0  0  0  0  0  0  0  0  0  0  0
   -7.3628    6.7911   10.5707 H   0  0  0  0  0  0  0  0  0  0  0  0
   -5.7323    5.0121    9.5324 H   0  0  0  0  0  0  0  0  0  0  0  0
   -7.1678    3.3607   11.0213 H   0  0  0  0  0  0  0  0  0  0  0  0
   -7.0230    2.6598    9.3935 H   0  0  0  0  0  0  0  0  0  0  0  0
   -7.3205    5.9211    7.5961 H   0  0  0  0  0  0  0  0  0  0  0  0
   -5.5177    3.4579    2.9064 H   0  0  0  0  0  0  0  0  0  0  0  0
   -7.8371    4.1058    3.3097 H   0  0  0  0  0  0  0  0  0  0  0  0
   -9.6690    3.7690    4.8094 H   0  0  0  0  0  0  0  0  0  0  0  0
  -11.3530    4.0925    4.3375 H   0  0  0  0  0  0  0  0  0  0  0  0
  -10.0340    4.9023    3.4645 H   0  0  0  0  0  0  0  0  0  0  0  0
   -9.1592    0.4449    1.5331 H   0  0  0  0  0  0  0  0  0  0  0  0
   -6.8259   -0.2102    1.1439 H   0  0  0  0  0  0  0  0  0  0  0  0
   -2.4037    2.0242    3.0213 H   0  0  0  0  0  0  0  0  0  0  0  0
   -0.8027    3.6023    2.0325 H   0  0  0  0  0  0  0  0  0  0  0  0
    1.3324    5.6339   -0.1147 H   0  0  0  0  0  0  0  0  0  0  0  0
    0.4145    5.4780    1.3976 H   0  0  0  0  0  0  0  0  0  0  0  0
    0.9824    4.0134    0.5294 H   0  0  0  0  0  0  0  0  0  0  0  0
   -3.3966    4.0957   -1.3404 H   0  0  0  0  0  0  0  0  0  0  0  0
   -4.9970    2.5144   -0.3313 H   0  0  0  0  0  0  0  0  0  0  0  0
    0.3434   -3.0470    2.3741 H   0  0  0  0  0  0  0  0  0  0  0  0
    2.5621   -4.0444    2.5837 H   0  0  0  0  0  0  0  0  0  0  0  0
    2.6597   -8.3889    1.3642 H   0  0  0  0  0  0  0  0  0  0  0  0
    4.4309   -8.5571    1.3368 H   0  0  0  0  0  0  0  0  0  0  0  0
    3.5705   -8.1483   -0.1585 H   0  0  0  0  0  0  0  0  0  0  0  0
    1.5104   -6.9952   -0.3364 H   0  0  0  0  0  0  0  0  0  0  0  0
   -0.7176   -6.0159   -0.5090 H   0  0  0  0  0  0  0  0  0  0  0  0
   -3.8358   -3.2212   -0.4585 H   0  0  0  0  0  0  0  0  0  0  0  0
   -5.8826   -4.5131   -0.6225 H   0  0  0  0  0  0  0  0  0  0  0  0
   -7.9319   -5.6343   -0.8290 H   0  0  0  0  0  0  0  0  0  0  0  0
   -8.7832   -6.5966    0.3932 H   0  0  0  0  0  0  0  0  0  0  0  0
   -7.7305   -5.2620    0.9135 H   0  0  0  0  0  0  0  0  0  0  0  0
   -4.0044   -7.7558    1.4338 H   0  0  0  0  0  0  0  0  0  0  0  0
   -1.9670   -6.4089    1.6945 H   0  0  0  0  0  0  0  0  0  0  0  0
    0.1677   -3.8824   -2.5003 H   0  0  0  0  0  0  0  0  0  0  0  0
   -0.9955   -6.0274   -2.8050 H   0  0  0  0  0  0  0  0  0  0  0  0
   -5.7974   -5.8971   -2.6223 H   0  0  0  0  0  0  0  0  0  0  0  0
   -5.8572   -7.4280   -3.5190 H   0  0  0  0  0  0  0  0  0  0  0  0
   -5.5459   -5.9136   -4.4000 H   0  0  0  0  0  0  0  0  0  0  0  0
   -4.6885   -3.9493   -3.3438 H   0  0  0  0  0  0  0  0  0  0  0  0
   -3.5405   -1.8242   -3.0570 H   0  0  0  0  0  0  0  0  0  0  0  0
   -0.4179    0.9350   -1.6794 H   0  0  0  0  0  0  0  0  0  0  0  0
   -0.9945    3.0435   -2.7206 H   0  0  0  0  0  0  0  0  0  0  0  0
   -0.3271    4.5488   -4.5513 H   0  0  0  0  0  0  0  0  0  0  0  0
   -1.4825    5.7766   -5.1200 H   0  0  0  0  0  0  0  0  0  0  0  0
   -1.6567    5.1016   -3.4859 H   0  0  0  0  0  0  0  0  0  0  0  0
   -2.7699    0.9477   -5.9966 H   0  0  0  0  0  0  0  0  0  0  0  0
   -2.1598   -1.1936   -4.9585 H   0  0  0  0  0  0  0  0  0  0  0  0
    4.2276   -2.9197   -0.1901 H   0  0  0  0  0  0  0  0  0  0  0  0
    4.7384   -3.9597    1.9391 H   0  0  0  0  0  0  0  0  0  0  0  0
    6.0117   -5.0571    3.5153 H   0  0  0  0  0  0  0  0  0  0  0  0
    4.3988   -4.6634    4.1817 H   0  0  0  0  0  0  0  0  0  0  0  0
    5.7580   -5.0002    5.2739 H   0  0  0  0  0  0  0  0  0  0  0  0
    6.2786   -0.2480    3.4023 H   0  0  0  0  0  0  0  0  0  0  0  0
    5.8384    0.7850    1.2141 H   0  0  0  0  0  0  0  0  0  0  0  0
    7.4716   -0.6003   -0.6583 H   0  0  0  0  0  0  0  0  0  0  0  0
    9.1327    0.9800   -1.5574 H   0  0  0  0  0  0  0  0  0  0  0  0
    8.8938    5.7458   -3.0407 H   0  0  0  0  0  0  0  0  0  0  0  0
    7.6956    5.1157   -1.8828 H   0  0  0  0  0  0  0  0  0  0  0  0
    7.3426    5.1073   -3.6395 H   0  0  0  0  0  0  0  0  0  0  0  0
    5.9744    3.4287   -3.0736 H   0  0  0  0  0  0  0  0  0  0  0  0
    4.3283    1.8772   -2.1603 H   0  0  0  0  0  0  0  0  0  0  0  0
    5.7341    1.9110   -6.3184 H   0  0  0  0  0  0  0  0  0  0  0  0
    9.5618   -2.5761   -3.4463 H   0  0  0  0  0  0  0  0  0  0  0  0
    5.6494   -4.2605   -2.1456 H   0  0  0  0  0  0  0  0  0  0  0  0
    6.3263   -3.6988   -0.6000 H   0  0  0  0  0  0  0  0  0  0  0  0
    7.7640   -5.7484   -0.4951 H   0  0  0  0  0  0  0  0  0  0  0  0
    6.0410   -6.1463   -0.5186 H   0  0  0  0  0  0  0  0  0  0  0  0
    7.0227   -6.3425   -1.9831 H   0  0  0  0  0  0  0  0  0  0  0  0
    9.1412    0.3293   -6.0542 H   0  0  0  0  0  0  0  0  0  0  0  0
    8.1754    6.7218   -5.7397 H   0  0  0  0  0  0  0  0  0  0  0  0
  1  2  2  0  0  0  0
  2  3  1  0  0  0  0
  3  4  2  0  0  0  0
  3  5  1  0  0  0  0
  5  6  2  0  0  0  0
  6  7  1  0  0  0  0
  7  8  2  0  0  0  0
  8  9  1  0  0  0  0
  9 10  2  0  0  0  0
 10 11  1  0  0  0  0
 11 12  2  0  0  0  0
 12 13  1  0  0  0  0
 13 14  3  0  0  0  0
 12 15  1  0  0  0  0
 15 16  3  0  0  0  0
  8 17  1  0  0  0  0
 17 18  1  0  0  0  0
 18 19  1  0  0  0  0
 19 20  2  0  0  0  0
 20 21  1  0  0  0  0
 21 22  1  0  0  0  0
 21 23  1  0  0  0  0
  1 24  1  0  0  0  0
 24 25  2  0  0  0  0
 25 26  1  0  0  0  0
 26 27  1  0  0  0  0
 27 28  2  0  0  0  0
 28 29  1  0  0  0  0
 29 30  2  0  0  0  0
 30 31  1  0  0  0  0
 31 32  1  0  0  0  0
 30 33  1  0  0  0  0
 33 34  2  0  0  0  0
 26 35  1  0  0  0  0
 35 36  2  0  0  0  0
 36 37  1  0  0  0  0
 37 38  2  0  0  0  0
 38 39  1  0  0  0  0
 39 40  1  0  0  0  0
 38 41  1  0  0  0  0
 41 42  2  0  0  0  0
 25 43  1  0  0  0  0
 43 44  1  0  0  0  0
 44 45  1  0  0  0  0
 45 46  2  0  0  0  0
 46 47  1  0  0  0  0
 47 48  1  0  0  0  0
 48 49  2  0  0  0  0
 49 50  1  0  0  0  0
 50 51  2  0  0  0  0
 51 52  1  0  0  0  0
 52 53  1  0  0  0  0
 51 54  1  0  0  0  0
 54 55  2  0  0  0  0
 47 56  1  0  0  0  0
 56 57  2  0  0  0  0
 57 58  1  0  0  0  0
 58 59  2  0  0  0  0
 59 60  1  0  0  0  0
 60 61  1  0  0  0  0
 59 62  1  0  0  0  0
 62 63  2  0  0  0  0
 46 64  1  0  0  0  0
 64 65  1  0  0  0  0
 45 66  1  0  0  0  0
 66 67  2  0  0  0  0
 67 68  1  0  0  0  0
 68 69  1  0  0  0  0
 69 70  2  0  0  0  0
 70 71  1  0  0  0  0
 71 72  2  0  0  0  0
 72 73  1  0  0  0  0
 73 74  1  0  0  0  0
 72 75  1  0  0  0  0
 75 76  2  0  0  0  0
 68 77  1  0  0  0  0
 77 78  2  0  0  0  0
 78 79  1  0  0  0  0
 79 80  2  0  0  0  0
 80 81  1  0  0  0  0
 81 82  1  0  0  0  0
 80 83  1  0  0  0  0
 83 84  2  0  0  0  0
 67 85  1  0  0  0  0
 85 86  1  0  0  0  0
 86 87  1  0  0  0  0
 87 88  2  0  0  0  0
 88 89  1  0  0  0  0
 89 90  1  0  0  0  0
 90 91  2  0  0  0  0
 91 92  1  0  0  0  0
 92 93  2  0  0  0  0
 93 94  1  0  0  0  0
 94 95  1  0  0  0  0
 93 96  1  0  0  0  0
 96 97  2  0  0  0  0
 89 98  1  0  0  0  0
 98 99  2  0  0  0  0
 99100  1  0  0  0  0
100101  2  0  0  0  0
101102  1  0  0  0  0
102103  1  0  0  0  0
101104  1  0  0  0  0
104105  2  0  0  0  0
 88106  1  0  0  0  0
106107  1  0  0  0  0
 87108  1  0  0  0  0
108109  2  0  0  0  0
109110  1  0  0  0  0
109111  1  0  0  0  0
111112  2  0  0  0  0
112113  1  0  0  0  0
113114  2  0  0  0  0
114115  1  0  0  0  0
115116  2  0  0  0  0
116117  1  0  0  0  0
117118  1  0  0  0  0
118119  1  0  0  0  0
116120  1  0  0  0  0
120121  2  0  0  0  0
112122  1  0  0  0  0
122123  2  0  0  0  0
123124  1  0  0  0  0
124125  2  0  0  0  0
124126  1  0  0  0  0
126127  1  0  0  0  0
127128  2  0  0  0  0
128129  1  0  0  0  0
128130  1  0  0  0  0
130131  1  0  0  0  0
131132  1  0  0  0  0
132133  2  0  0  0  0
133134  1  0  0  0  0
134135  3  0  0  0  0
133136  1  0  0  0  0
136137  3  0  0  0  0
 11  2  1  0  0  0  0
 23 17  1  0  0  0  0
 65 24  1  0  0  0  0
107 66  1  0  0  0  0
121108  1  0  0  0  0
132123  1  0  0  0  0
 10  5  1  0  0  0  0
 22 18  1  0  0  0  0
 34 27  1  0  0  0  0
 42 35  1  0  0  0  0
 64 43  2  0  0  0  0
 76 69  1  0  0  0  0
 84 77  1  0  0  0  0
106 85  2  0  0  0  0
121113  1  0  0  0  0
131126  2  0  0  0  0
 23  7  1  0  0  0  0
 55 48  1  0  0  0  0
 63 56  1  0  0  0  0
 97 90  1  0  0  0  0
105 98  1  0  0  0  0
  1138  1  0  0  0  0
  6139  1  0  0  0  0
  9140  1  0  0  0  0
 17141  1  0  0  0  0
 18142  1  0  0  0  0
 19143  1  0  0  0  0
 20144  1  0  0  0  0
 21145  1  0  0  0  0
 22146  1  0  0  0  0
 22147  1  0  0  0  0
 23148  1  0  0  0  0
 28149  1  0  0  0  0
 29150  1  0  0  0  0
 32151  1  0  0  0  0
 32152  1  0  0  0  0
 32153  1  0  0  0  0
 33154  1  0  0  0  0
 34155  1  0  0  0  0
 36156  1  0  0  0  0
 37157  1  0  0  0  0
 40158  1  0  0  0  0
 40159  1  0  0  0  0
 40160  1  0  0  0  0
 41161  1  0  0  0  0
 42162  1  0  0  0  0
 49163  1  0  0  0  0
 50164  1  0  0  0  0
 53165  1  0  0  0  0
 53166  1  0  0  0  0
 53167  1  0  0  0  0
 54168  1  0  0  0  0
 55169  1  0  0  0  0
 57170  1  0  0  0  0
 58171  1  0  0  0  0
 61172  1  0  0  0  0
 61173  1  0  0  0  0
 61174  1  0  0  0  0
 62175  1  0  0  0  0
 63176  1  0  0  0  0
 70177  1  0  0  0  0
 71178  1  0  0  0  0
 74179  1  0  0  0  0
 74180  1  0  0  0  0
 74181  1  0  0  0  0
 75182  1  0  0  0  0
 76183  1  0  0  0  0
 78184  1  0  0  0  0
 79185  1  0  0  0  0
 82186  1  0  0  0  0
 82187  1  0  0  0  0
 82188  1  0  0  0  0
 83189  1  0  0  0  0
 84190  1  0  0  0  0
 91191  1  0  0  0  0
 92192  1  0  0  0  0
 95193  1  0  0  0  0
 95194  1  0  0  0  0
 95195  1  0  0  0  0
 96196  1  0  0  0  0
 97197  1  0  0  0  0
 99198  1  0  0  0  0
100199  1  0  0  0  0
103200  1  0  0  0  0
103201  1  0  0  0  0
103202  1  0  0  0  0
104203  1  0  0  0  0
105204  1  0  0  0  0
111205  1  0  0  0  0
115206  1  0  0  0  0
118207  1  0  0  0  0
118208  1  0  0  0  0
119209  1  0  0  0  0
119210  1  0  0  0  0
119211  1  0  0  0  0
122212  1  0  0  0  0
127213  1  0  0  0  0
M  END
