
  xtb     02122206023D
 energy: -362.108121126334 gnorm: 0.000448893448 xtb: 6.4.1 (unknown)
207229  0     0  0            999 V2000
    1.5456    3.4042    9.4249 C   0  0  0  0  0  0  0  0  0  0  0  0
    0.4947    4.2261    9.6992 C   0  0  0  0  0  0  0  0  0  0  0  0
   -0.5236    4.6770    8.7143 C   0  0  0  0  0  0  0  0  0  0  0  0
   -0.7241    4.2566    7.5920 O   0  0  0  0  0  0  0  0  0  0  0  0
   -1.1943    5.8289    9.3347 C   0  0  0  0  0  0  0  0  0  0  0  0
   -2.1902    6.6155    8.7585 C   0  0  0  0  0  0  0  0  0  0  0  0
   -2.6425    7.6266    9.5704 C   0  0  0  0  0  0  0  0  0  0  0  0
   -2.1336    7.8495   10.8581 C   0  0  0  0  0  0  0  0  0  0  0  0
   -1.1482    7.0850   11.4361 C   0  0  0  0  0  0  0  0  0  0  0  0
   -0.6813    6.0420   10.6309 C   0  0  0  0  0  0  0  0  0  0  0  0
    0.3313    5.0280   10.9004 C   0  0  0  0  0  0  0  0  0  0  0  0
    0.9536    4.8064   12.0993 C   0  0  0  0  0  0  0  0  0  0  0  0
    1.8473    3.7428   12.3509 C   0  0  0  0  0  0  0  0  0  0  0  0
    2.5601    2.8883   12.6332 N   0  0  0  0  0  0  0  0  0  0  0  0
    0.7506    5.5839   13.2587 C   0  0  0  0  0  0  0  0  0  0  0  0
    0.6329    6.1782   14.2336 N   0  0  0  0  0  0  0  0  0  0  0  0
   -3.0490    9.0226   11.1020 C   0  0  0  0  0  0  0  0  0  0  0  0
   -4.2847    8.7933   12.0073 C   0  0  0  0  0  0  0  0  0  0  0  0
   -4.6288    7.3282   11.9000 C   0  0  0  0  0  0  0  0  0  0  0  0
   -5.1117    7.1137   10.6834 C   0  0  0  0  0  0  0  0  0  0  0  0
   -5.1034    8.4301    9.9461 C   0  0  0  0  0  0  0  0  0  0  0  0
   -5.3788    9.3947   11.1106 C   0  0  0  0  0  0  0  0  0  0  0  0
   -3.6179    8.7716    9.6698 C   0  0  0  0  0  0  0  0  0  0  0  0
    1.6531    2.5733    8.2780 C   0  0  0  0  0  0  0  0  0  0  0  0
    0.6561    1.9379    7.5887 C   0  0  0  0  0  0  0  0  0  0  0  0
    1.1062    1.2640    6.4335 C   0  0  0  0  0  0  0  0  0  0  0  0
    0.3297    0.5717    5.4844 C   0  0  0  0  0  0  0  0  0  0  0  0
   -1.1300    0.4605    5.6092 C   0  0  0  0  0  0  0  0  0  0  0  0
   -1.9196    1.5731    5.8918 C   0  0  0  0  0  0  0  0  0  0  0  0
   -3.2898    1.4257    5.9818 C   0  0  0  0  0  0  0  0  0  0  0  0
   -4.0308    2.5200    6.2513 F   0  0  0  0  0  0  0  0  0  0  0  0
   -3.9438    0.2103    5.8125 C   0  0  0  0  0  0  0  0  0  0  0  0
   -5.4365    0.0810    5.8785 C   0  0  0  0  0  0  0  0  0  0  0  0
   -6.0488    0.2362    4.4844 C   0  0  0  0  0  0  0  0  0  0  0  0
   -3.1191   -0.8731    5.5323 C   0  0  0  0  0  0  0  0  0  0  0  0
   -3.6880   -2.0853    5.3628 F   0  0  0  0  0  0  0  0  0  0  0  0
   -1.7473   -0.7745    5.4261 C   0  0  0  0  0  0  0  0  0  0  0  0
    1.0087    0.0429    4.3992 C   0  0  0  0  0  0  0  0  0  0  0  0
    2.4135    0.1535    4.2284 C   0  0  0  0  0  0  0  0  0  0  0  0
    3.1932    0.8058    5.1986 C   0  0  0  0  0  0  0  0  0  0  0  0
    4.6502    0.9071    5.0579 C   0  0  0  0  0  0  0  0  0  0  0  0
    5.3010    2.1235    5.2395 C   0  0  0  0  0  0  0  0  0  0  0  0
    6.6708    2.1911    5.0823 C   0  0  0  0  0  0  0  0  0  0  0  0
    7.4588    1.0943    4.7512 C   0  0  0  0  0  0  0  0  0  0  0  0
    8.9496    1.1866    4.6191 C   0  0  0  0  0  0  0  0  0  0  0  0
    9.6245    0.9011    5.9628 C   0  0  0  0  0  0  0  0  0  0  0  0
    6.7726   -0.1054    4.5986 C   0  0  0  0  0  0  0  0  0  0  0  0
    5.4044   -0.2190    4.7394 C   0  0  0  0  0  0  0  0  0  0  0  0
    7.4743   -1.2145    4.2869 F   0  0  0  0  0  0  0  0  0  0  0  0
    7.2705    3.3882    5.2409 F   0  0  0  0  0  0  0  0  0  0  0  0
    2.5133    1.3684    6.2698 C   0  0  0  0  0  0  0  0  0  0  0  0
    3.2318    2.2705    7.5725 S   0  0  0  0  0  0  0  0  0  0  0  0
    2.8317   -0.3466    2.9693 C   0  0  0  0  0  0  0  0  0  0  0  0
    1.8089   -0.7928    2.1872 C   0  0  0  0  0  0  0  0  0  0  0  0
    0.2632   -0.7125    3.0160 S   0  0  0  0  0  0  0  0  0  0  0  0
    1.8325   -1.1750    0.8103 C   0  0  0  0  0  0  0  0  0  0  0  0
    2.5450   -0.5871   -0.2269 C   0  0  0  0  0  0  0  0  0  0  0  0
    3.4054    0.4908   -0.1208 N   0  0  0  0  0  0  0  0  0  0  0  0
    4.5185    0.5464   -0.9750 C   0  0  0  0  0  0  0  0  0  0  0  0
    5.2318   -0.6150   -1.2741 C   0  0  0  0  0  0  0  0  0  0  0  0
    6.3081   -0.5667   -2.1304 C   0  0  0  0  0  0  0  0  0  0  0  0
    6.7054    0.6420   -2.6994 C   0  0  0  0  0  0  0  0  0  0  0  0
    8.1052    0.5817   -3.7690 S   0  0  0  0  0  0  0  0  0  0  0  0
    8.1687    2.2423   -4.5000 C   0  0  0  0  0  0  0  0  0  0  0  0
    6.0075    1.8027   -2.3902 C   0  0  0  0  0  0  0  0  0  0  0  0
    4.9204    1.7523   -1.5402 C   0  0  0  0  0  0  0  0  0  0  0  0
    3.1493    1.5202    0.7920 C   0  0  0  0  0  0  0  0  0  0  0  0
    1.8412    1.9044    1.0773 C   0  0  0  0  0  0  0  0  0  0  0  0
    1.5717    2.8016    2.0903 C   0  0  0  0  0  0  0  0  0  0  0  0
    2.6131    3.3513    2.8264 C   0  0  0  0  0  0  0  0  0  0  0  0
    2.3760    4.3897    4.2344 S   0  0  0  0  0  0  0  0  0  0  0  0
    0.6021    4.2330    4.5719 C   0  0  0  0  0  0  0  0  0  0  0  0
    3.9270    3.0604    2.4654 C   0  0  0  0  0  0  0  0  0  0  0  0
    4.1949    2.1476    1.4704 C   0  0  0  0  0  0  0  0  0  0  0  0
    2.1970   -1.1782   -1.4682 C   0  0  0  0  0  0  0  0  0  0  0  0
    2.6861   -0.8921   -3.0991 S   0  0  0  0  0  0  0  0  0  0  0  0
    1.4829   -2.0362   -3.6719 C   0  0  0  0  0  0  0  0  0  0  0  0
    0.8174   -2.6832   -2.6356 C   0  0  0  0  0  0  0  0  0  0  0  0
   -0.0156   -3.7652   -2.7867 N   0  0  0  0  0  0  0  0  0  0  0  0
   -1.0509   -3.9594   -1.8657 C   0  0  0  0  0  0  0  0  0  0  0  0
   -1.3704   -5.2394   -1.4117 C   0  0  0  0  0  0  0  0  0  0  0  0
   -2.3341   -5.4070   -0.4431 C   0  0  0  0  0  0  0  0  0  0  0  0
   -2.9945   -4.3044    0.0963 C   0  0  0  0  0  0  0  0  0  0  0  0
   -4.1669   -4.6115    1.3792 S   0  0  0  0  0  0  0  0  0  0  0  0
   -4.2395   -3.0170    2.2469 C   0  0  0  0  0  0  0  0  0  0  0  0
   -2.7191   -3.0347   -0.3940 C   0  0  0  0  0  0  0  0  0  0  0  0
   -1.7569   -2.8658   -1.3692 C   0  0  0  0  0  0  0  0  0  0  0  0
    0.1601   -4.6573   -3.8564 C   0  0  0  0  0  0  0  0  0  0  0  0
   -0.9392   -5.1967   -4.5158 C   0  0  0  0  0  0  0  0  0  0  0  0
   -0.7710   -6.0708   -5.5719 C   0  0  0  0  0  0  0  0  0  0  0  0
    0.5059   -6.4132   -5.9946 C   0  0  0  0  0  0  0  0  0  0  0  0
    0.8500   -7.5184   -7.3203 S   0  0  0  0  0  0  0  0  0  0  0  0
   -0.7715   -7.7822   -8.0885 C   0  0  0  0  0  0  0  0  0  0  0  0
    1.6107   -5.8864   -5.3259 C   0  0  0  0  0  0  0  0  0  0  0  0
    1.4421   -5.0244   -4.2678 C   0  0  0  0  0  0  0  0  0  0  0  0
    1.2199   -2.1569   -1.3823 C   0  0  0  0  0  0  0  0  0  0  0  0
    0.7113   -2.4063    0.2495 S   0  0  0  0  0  0  0  0  0  0  0  0
    1.2012   -2.1374   -5.0761 C   0  0  0  0  0  0  0  0  0  0  0  0
   -0.1481   -2.1744   -5.5367 C   0  0  0  0  0  0  0  0  0  0  0  0
   -1.1418   -2.0363   -4.6328 N   0  0  0  0  0  0  0  0  0  0  0  0
   -2.3678   -2.0041   -5.0535 C   0  0  0  0  0  0  0  0  0  0  0  0
   -2.6750   -2.0635   -6.4423 C   0  0  0  0  0  0  0  0  0  0  0  0
   -3.9545   -1.9759   -6.7948 O   0  0  0  0  0  0  0  0  0  0  0  0
   -4.2739   -2.0609   -8.1806 C   0  0  0  0  0  0  0  0  0  0  0  0
   -3.8852   -0.8123   -8.9595 C   0  0  0  0  0  0  0  0  0  0  0  0
   -1.7257   -2.1724   -7.3386 N   0  0  0  0  0  0  0  0  0  0  0  0
   -0.4505   -2.2586   -6.9168 C   0  0  0  0  0  0  0  0  0  0  0  0
    0.5991   -2.3194   -7.8800 C   0  0  0  0  0  0  0  0  0  0  0  0
    1.9011   -2.2116   -7.4008 C   0  0  0  0  0  0  0  0  0  0  0  0
    2.1967   -2.1229   -6.0441 C   0  0  0  0  0  0  0  0  0  0  0  0
    3.4865   -2.0641   -5.6709 F   0  0  0  0  0  0  0  0  0  0  0  0
    2.9162   -2.2372   -8.2755 F   0  0  0  0  0  0  0  0  0  0  0  0
    0.3342   -2.3086   -9.2876 C   0  0  0  0  0  0  0  0  0  0  0  0
   -0.7255   -2.9117   -9.8876 C   0  0  0  0  0  0  0  0  0  0  0  0
   -1.4977   -4.0363   -9.3072 C   0  0  0  0  0  0  0  0  0  0  0  0
   -1.2858   -4.6399   -8.2746 O   0  0  0  0  0  0  0  0  0  0  0  0
   -2.5194   -4.3827  -10.3143 C   0  0  0  0  0  0  0  0  0  0  0  0
   -3.5169   -5.3502  -10.1949 C   0  0  0  0  0  0  0  0  0  0  0  0
   -4.3512   -5.4336  -11.2826 C   0  0  0  0  0  0  0  0  0  0  0  0
   -4.1926   -4.6291  -12.4193 C   0  0  0  0  0  0  0  0  0  0  0  0
   -3.2023   -3.6871  -12.5601 C   0  0  0  0  0  0  0  0  0  0  0  0
   -2.3518   -3.5724  -11.4552 C   0  0  0  0  0  0  0  0  0  0  0  0
   -1.2345   -2.6616  -11.2234 C   0  0  0  0  0  0  0  0  0  0  0  0
   -0.8204   -1.6731  -12.0768 C   0  0  0  0  0  0  0  0  0  0  0  0
   -1.3702   -1.4362  -13.3541 C   0  0  0  0  0  0  0  0  0  0  0  0
   -1.7711   -1.1892  -14.4013 N   0  0  0  0  0  0  0  0  0  0  0  0
    0.1887   -0.7263  -11.7978 C   0  0  0  0  0  0  0  0  0  0  0  0
    0.9721    0.0983  -11.6422 N   0  0  0  0  0  0  0  0  0  0  0  0
   -5.3941   -5.2264  -13.1077 C   0  0  0  0  0  0  0  0  0  0  0  0
   -6.6778   -4.3689  -13.1033 C   0  0  0  0  0  0  0  0  0  0  0  0
   -7.7781   -5.3633  -13.3955 C   0  0  0  0  0  0  0  0  0  0  0  0
   -7.9296   -6.1252  -12.3198 C   0  0  0  0  0  0  0  0  0  0  0  0
   -6.9343   -5.6581  -11.2821 C   0  0  0  0  0  0  0  0  0  0  0  0
   -6.9064   -4.1575  -11.6007 C   0  0  0  0  0  0  0  0  0  0  0  0
   -5.5717   -6.1224  -11.8399 C   0  0  0  0  0  0  0  0  0  0  0  0
    2.4065    3.4150   10.0821 H   0  0  0  0  0  0  0  0  0  0  0  0
   -2.5522    6.4100    7.7632 H   0  0  0  0  0  0  0  0  0  0  0  0
   -0.7610    7.2737   12.4235 H   0  0  0  0  0  0  0  0  0  0  0  0
   -2.5614    9.9753   11.2980 H   0  0  0  0  0  0  0  0  0  0  0  0
   -4.1863    9.1908   13.0137 H   0  0  0  0  0  0  0  0  0  0  0  0
   -4.4383    6.6105   12.6763 H   0  0  0  0  0  0  0  0  0  0  0  0
   -5.4047    6.1806   10.2390 H   0  0  0  0  0  0  0  0  0  0  0  0
   -5.7510    8.4971    9.0760 H   0  0  0  0  0  0  0  0  0  0  0  0
   -6.3773    9.2760   11.5282 H   0  0  0  0  0  0  0  0  0  0  0  0
   -5.2073   10.4402   10.8582 H   0  0  0  0  0  0  0  0  0  0  0  0
   -3.5044    9.5611    8.9295 H   0  0  0  0  0  0  0  0  0  0  0  0
   -0.3621    1.9199    7.9264 H   0  0  0  0  0  0  0  0  0  0  0  0
   -1.4912    2.5528    6.0348 H   0  0  0  0  0  0  0  0  0  0  0  0
   -5.6969   -0.8996    6.2806 H   0  0  0  0  0  0  0  0  0  0  0  0
   -5.8387    0.8498    6.5397 H   0  0  0  0  0  0  0  0  0  0  0  0
   -7.1297    0.1378    4.5391 H   0  0  0  0  0  0  0  0  0  0  0  0
   -5.8092    1.2140    4.0722 H   0  0  0  0  0  0  0  0  0  0  0  0
   -5.6629   -0.5288    3.8142 H   0  0  0  0  0  0  0  0  0  0  0  0
   -1.1694   -1.6623    5.2253 H   0  0  0  0  0  0  0  0  0  0  0  0
    4.7522    3.0216    5.4729 H   0  0  0  0  0  0  0  0  0  0  0  0
    9.2217    2.1883    4.2825 H   0  0  0  0  0  0  0  0  0  0  0  0
    9.2932    0.4611    3.8798 H   0  0  0  0  0  0  0  0  0  0  0  0
    9.3737   -0.0993    6.3082 H   0  0  0  0  0  0  0  0  0  0  0  0
    9.2988    1.6201    6.7111 H   0  0  0  0  0  0  0  0  0  0  0  0
   10.7040    0.9720    5.8592 H   0  0  0  0  0  0  0  0  0  0  0  0
    4.9403   -1.1858    4.6254 H   0  0  0  0  0  0  0  0  0  0  0  0
    3.8542   -0.3407    2.6416 H   0  0  0  0  0  0  0  0  0  0  0  0
    4.9374   -1.5535   -0.8281 H   0  0  0  0  0  0  0  0  0  0  0  0
    6.8582   -1.4640   -2.3670 H   0  0  0  0  0  0  0  0  0  0  0  0
    8.9617    2.2043   -5.2404 H   0  0  0  0  0  0  0  0  0  0  0  0
    7.2226    2.4662   -4.9836 H   0  0  0  0  0  0  0  0  0  0  0  0
    8.4114    2.9799   -3.7404 H   0  0  0  0  0  0  0  0  0  0  0  0
    6.2938    2.7532   -2.8100 H   0  0  0  0  0  0  0  0  0  0  0  0
    4.3737    2.6556   -1.3132 H   0  0  0  0  0  0  0  0  0  0  0  0
    1.0240    1.4772    0.5149 H   0  0  0  0  0  0  0  0  0  0  0  0
    0.5454    3.0609    2.2942 H   0  0  0  0  0  0  0  0  0  0  0  0
    0.4429    4.6111    5.5774 H   0  0  0  0  0  0  0  0  0  0  0  0
    0.0312    4.8227    3.8600 H   0  0  0  0  0  0  0  0  0  0  0  0
    0.3238    3.1847    4.5297 H   0  0  0  0  0  0  0  0  0  0  0  0
    4.7367    3.5375    2.9935 H   0  0  0  0  0  0  0  0  0  0  0  0
    5.2168    1.8929    1.2324 H   0  0  0  0  0  0  0  0  0  0  0  0
   -0.8408   -6.0932   -1.8067 H   0  0  0  0  0  0  0  0  0  0  0  0
   -2.5711   -6.3926   -0.0732 H   0  0  0  0  0  0  0  0  0  0  0  0
   -3.2318   -2.6358    2.3822 H   0  0  0  0  0  0  0  0  0  0  0  0
   -4.6882   -3.2256    3.2129 H   0  0  0  0  0  0  0  0  0  0  0  0
   -4.8567   -2.3130    1.6952 H   0  0  0  0  0  0  0  0  0  0  0  0
   -3.2501   -2.1718   -0.0248 H   0  0  0  0  0  0  0  0  0  0  0  0
   -1.5507   -1.8830   -1.7651 H   0  0  0  0  0  0  0  0  0  0  0  0
   -1.9350   -4.9245   -4.1974 H   0  0  0  0  0  0  0  0  0  0  0  0
   -1.6441   -6.4662   -6.0622 H   0  0  0  0  0  0  0  0  0  0  0  0
   -1.2108   -6.8128   -8.3032 H   0  0  0  0  0  0  0  0  0  0  0  0
   -1.4040   -8.3757   -7.4342 H   0  0  0  0  0  0  0  0  0  0  0  0
   -0.5807   -8.3239   -9.0098 H   0  0  0  0  0  0  0  0  0  0  0  0
    2.6019   -6.1710   -5.6441 H   0  0  0  0  0  0  0  0  0  0  0  0
    2.3057   -4.6343   -3.7501 H   0  0  0  0  0  0  0  0  0  0  0  0
   -3.1528   -1.8964   -4.3192 H   0  0  0  0  0  0  0  0  0  0  0  0
   -3.7794   -2.9396   -8.6058 H   0  0  0  0  0  0  0  0  0  0  0  0
   -5.3568   -2.2063   -8.1974 H   0  0  0  0  0  0  0  0  0  0  0  0
   -4.3481    0.0666   -8.5177 H   0  0  0  0  0  0  0  0  0  0  0  0
   -4.2221   -0.9098   -9.9881 H   0  0  0  0  0  0  0  0  0  0  0  0
   -2.8056   -0.6865   -8.9506 H   0  0  0  0  0  0  0  0  0  0  0  0
    1.0322   -1.7363   -9.8858 H   0  0  0  0  0  0  0  0  0  0  0  0
   -3.6055   -5.9526   -9.3036 H   0  0  0  0  0  0  0  0  0  0  0  0
   -3.0884   -3.0855  -13.4459 H   0  0  0  0  0  0  0  0  0  0  0  0
   -5.2062   -5.7073  -14.0653 H   0  0  0  0  0  0  0  0  0  0  0  0
   -6.6361   -3.4849  -13.7334 H   0  0  0  0  0  0  0  0  0  0  0  0
   -8.2780   -5.4433  -14.3427 H   0  0  0  0  0  0  0  0  0  0  0  0
   -8.5812   -6.9689  -12.1887 H   0  0  0  0  0  0  0  0  0  0  0  0
   -7.1283   -5.9487  -10.2530 H   0  0  0  0  0  0  0  0  0  0  0  0
   -6.1074   -3.6116  -11.1013 H   0  0  0  0  0  0  0  0  0  0  0  0
   -7.8606   -3.6756  -11.3943 H   0  0  0  0  0  0  0  0  0  0  0  0
   -5.5020   -7.2027  -11.9506 H   0  0  0  0  0  0  0  0  0  0  0  0
  1  2  2  0  0  0  0
  2  3  1  0  0  0  0
  3  4  2  0  0  0  0
  3  5  1  0  0  0  0
  5  6  2  0  0  0  0
  6  7  1  0  0  0  0
  7  8  2  0  0  0  0
  8  9  1  0  0  0  0
  9 10  2  0  0  0  0
 10 11  1  0  0  0  0
 11 12  2  0  0  0  0
 12 13  1  0  0  0  0
 13 14  3  0  0  0  0
 12 15  1  0  0  0  0
 15 16  3  0  0  0  0
  8 17  1  0  0  0  0
 17 18  1  0  0  0  0
 18 19  1  0  0  0  0
 19 20  2  0  0  0  0
 20 21  1  0  0  0  0
 21 22  1  0  0  0  0
 21 23  1  0  0  0  0
  1 24  1  0  0  0  0
 24 25  2  0  0  0  0
 25 26  1  0  0  0  0
 26 27  2  0  0  0  0
 27 28  1  0  0  0  0
 28 29  2  0  0  0  0
 29 30  1  0  0  0  0
 30 31  1  0  0  0  0
 30 32  2  0  0  0  0
 32 33  1  0  0  0  0
 33 34  1  0  0  0  0
 32 35  1  0  0  0  0
 35 36  1  0  0  0  0
 35 37  2  0  0  0  0
 27 38  1  0  0  0  0
 38 39  2  0  0  0  0
 39 40  1  0  0  0  0
 40 41  1  0  0  0  0
 41 42  2  0  0  0  0
 42 43  1  0  0  0  0
 43 44  2  0  0  0  0
 44 45  1  0  0  0  0
 45 46  1  0  0  0  0
 44 47  1  0  0  0  0
 47 48  2  0  0  0  0
 47 49  1  0  0  0  0
 43 50  1  0  0  0  0
 40 51  2  0  0  0  0
 51 52  1  0  0  0  0
 39 53  1  0  0  0  0
 53 54  2  0  0  0  0
 54 55  1  0  0  0  0
 54 56  1  0  0  0  0
 56 57  2  0  0  0  0
 57 58  1  0  0  0  0
 58 59  1  0  0  0  0
 59 60  2  0  0  0  0
 60 61  1  0  0  0  0
 61 62  2  0  0  0  0
 62 63  1  0  0  0  0
 63 64  1  0  0  0  0
 62 65  1  0  0  0  0
 65 66  2  0  0  0  0
 58 67  1  0  0  0  0
 67 68  2  0  0  0  0
 68 69  1  0  0  0  0
 69 70  2  0  0  0  0
 70 71  1  0  0  0  0
 71 72  1  0  0  0  0
 70 73  1  0  0  0  0
 73 74  2  0  0  0  0
 57 75  1  0  0  0  0
 75 76  1  0  0  0  0
 76 77  1  0  0  0  0
 77 78  2  0  0  0  0
 78 79  1  0  0  0  0
 79 80  1  0  0  0  0
 80 81  2  0  0  0  0
 81 82  1  0  0  0  0
 82 83  2  0  0  0  0
 83 84  1  0  0  0  0
 84 85  1  0  0  0  0
 83 86  1  0  0  0  0
 86 87  2  0  0  0  0
 79 88  1  0  0  0  0
 88 89  2  0  0  0  0
 89 90  1  0  0  0  0
 90 91  2  0  0  0  0
 91 92  1  0  0  0  0
 92 93  1  0  0  0  0
 91 94  1  0  0  0  0
 94 95  2  0  0  0  0
 78 96  1  0  0  0  0
 96 97  1  0  0  0  0
 77 98  1  0  0  0  0
 98 99  1  0  0  0  0
 99100  2  0  0  0  0
100101  1  0  0  0  0
101102  2  0  0  0  0
102103  1  0  0  0  0
103104  1  0  0  0  0
104105  1  0  0  0  0
102106  1  0  0  0  0
106107  2  0  0  0  0
107108  1  0  0  0  0
108109  2  0  0  0  0
109110  1  0  0  0  0
110111  1  0  0  0  0
109112  1  0  0  0  0
108113  1  0  0  0  0
113114  2  0  0  0  0
114115  1  0  0  0  0
115116  2  0  0  0  0
115117  1  0  0  0  0
117118  2  0  0  0  0
118119  1  0  0  0  0
119120  2  0  0  0  0
120121  1  0  0  0  0
121122  2  0  0  0  0
122123  1  0  0  0  0
123124  2  0  0  0  0
124125  1  0  0  0  0
125126  3  0  0  0  0
124127  1  0  0  0  0
127128  3  0  0  0  0
120129  1  0  0  0  0
129130  1  0  0  0  0
130131  1  0  0  0  0
131132  2  0  0  0  0
132133  1  0  0  0  0
133134  1  0  0  0  0
133135  1  0  0  0  0
 11  2  1  0  0  0  0
 23 17  1  0  0  0  0
 52 24  1  0  0  0  0
 97 56  1  0  0  0  0
110 98  2  0  0  0  0
123114  1  0  0  0  0
135129  1  0  0  0  0
 10  5  1  0  0  0  0
 22 18  1  0  0  0  0
 51 26  1  0  0  0  0
 66 59  1  0  0  0  0
 74 67  1  0  0  0  0
 96 75  2  0  0  0  0
107 99  1  0  0  0  0
122117  1  0  0  0  0
134130  1  0  0  0  0
 23  7  1  0  0  0  0
 37 28  1  0  0  0  0
 55 38  1  0  0  0  0
 87 80  1  0  0  0  0
 95 88  1  0  0  0  0
135119  1  0  0  0  0
 48 41  1  0  0  0  0
  1136  1  0  0  0  0
  6137  1  0  0  0  0
  9138  1  0  0  0  0
 17139  1  0  0  0  0
 18140  1  0  0  0  0
 19141  1  0  0  0  0
 20142  1  0  0  0  0
 21143  1  0  0  0  0
 22144  1  0  0  0  0
 22145  1  0  0  0  0
 23146  1  0  0  0  0
 25147  1  0  0  0  0
 29148  1  0  0  0  0
 33149  1  0  0  0  0
 33150  1  0  0  0  0
 34151  1  0  0  0  0
 34152  1  0  0  0  0
 34153  1  0  0  0  0
 37154  1  0  0  0  0
 42155  1  0  0  0  0
 45156  1  0  0  0  0
 45157  1  0  0  0  0
 46158  1  0  0  0  0
 46159  1  0  0  0  0
 46160  1  0  0  0  0
 48161  1  0  0  0  0
 53162  1  0  0  0  0
 60163  1  0  0  0  0
 61164  1  0  0  0  0
 64165  1  0  0  0  0
 64166  1  0  0  0  0
 64167  1  0  0  0  0
 65168  1  0  0  0  0
 66169  1  0  0  0  0
 68170  1  0  0  0  0
 69171  1  0  0  0  0
 72172  1  0  0  0  0
 72173  1  0  0  0  0
 72174  1  0  0  0  0
 73175  1  0  0  0  0
 74176  1  0  0  0  0
 81177  1  0  0  0  0
 82178  1  0  0  0  0
 85179  1  0  0  0  0
 85180  1  0  0  0  0
 85181  1  0  0  0  0
 86182  1  0  0  0  0
 87183  1  0  0  0  0
 89184  1  0  0  0  0
 90185  1  0  0  0  0
 93186  1  0  0  0  0
 93187  1  0  0  0  0
 93188  1  0  0  0  0
 94189  1  0  0  0  0
 95190  1  0  0  0  0
101191  1  0  0  0  0
104192  1  0  0  0  0
104193  1  0  0  0  0
105194  1  0  0  0  0
105195  1  0  0  0  0
105196  1  0  0  0  0
113197  1  0  0  0  0
118198  1  0  0  0  0
121199  1  0  0  0  0
129200  1  0  0  0  0
130201  1  0  0  0  0
131202  1  0  0  0  0
132203  1  0  0  0  0
133204  1  0  0  0  0
134205  1  0  0  0  0
134206  1  0  0  0  0
135207  1  0  0  0  0
M  END
