
  xtb     02062215553D
 energy: -290.992277737393 gnorm: 0.000607708720 xtb: 6.4.1 (unknown)
178197  0     0  0            999 V2000
    1.4799   -5.2640    4.9901 C   0  0  0  0  0  0  0  0  0  0  0  0
    1.1164   -5.0679    6.2848 C   0  0  0  0  0  0  0  0  0  0  0  0
    0.7308   -3.7643    6.8847 C   0  0  0  0  0  0  0  0  0  0  0  0
    0.6517   -2.6851    6.3370 O   0  0  0  0  0  0  0  0  0  0  0  0
    0.5506   -4.0268    8.3249 C   0  0  0  0  0  0  0  0  0  0  0  0
    0.1856   -3.0981    9.2975 C   0  0  0  0  0  0  0  0  0  0  0  0
    0.0993   -3.6202   10.5652 C   0  0  0  0  0  0  0  0  0  0  0  0
    0.3660   -4.9669   10.8481 C   0  0  0  0  0  0  0  0  0  0  0  0
    0.7366   -5.8906    9.9007 C   0  0  0  0  0  0  0  0  0  0  0  0
    0.8249   -5.3814    8.6001 C   0  0  0  0  0  0  0  0  0  0  0  0
    1.1994   -6.0460    7.3553 C   0  0  0  0  0  0  0  0  0  0  0  0
    1.5463   -7.3663    7.2290 C   0  0  0  0  0  0  0  0  0  0  0  0
    1.9345   -8.0075    6.0359 C   0  0  0  0  0  0  0  0  0  0  0  0
    2.2727   -8.6225    5.1254 N   0  0  0  0  0  0  0  0  0  0  0  0
    1.5803   -8.2907    8.2946 C   0  0  0  0  0  0  0  0  0  0  0  0
    1.6270   -9.0996    9.1081 N   0  0  0  0  0  0  0  0  0  0  0  0
    0.0874   -4.7953   12.3209 C   0  0  0  0  0  0  0  0  0  0  0  0
   -1.2733   -5.3143   12.8318 C   0  0  0  0  0  0  0  0  0  0  0  0
   -1.4627   -4.5961   14.1485 C   0  0  0  0  0  0  0  0  0  0  0  0
   -1.7164   -3.3217   13.8803 C   0  0  0  0  0  0  0  0  0  0  0  0
   -1.7026   -3.1568   12.3777 C   0  0  0  0  0  0  0  0  0  0  0  0
   -2.2557   -4.5246   11.9571 C   0  0  0  0  0  0  0  0  0  0  0  0
   -0.2111   -3.2944   12.0049 C   0  0  0  0  0  0  0  0  0  0  0  0
    1.3332   -4.3572    3.8934 C   0  0  0  0  0  0  0  0  0  0  0  0
    0.2106   -3.5351    3.6697 C   0  0  0  0  0  0  0  0  0  0  0  0
   -1.0279   -3.5288    4.3657 C   0  0  0  0  0  0  0  0  0  0  0  0
   -1.9459   -2.6795    3.8499 C   0  0  0  0  0  0  0  0  0  0  0  0
   -3.3330   -2.4349    4.3323 C   0  0  0  0  0  0  0  0  0  0  0  0
   -4.3695   -2.6944    3.2395 C   0  0  0  0  0  0  0  0  0  0  0  0
   -1.3421   -1.8359    2.4463 S   0  0  0  0  0  0  0  0  0  0  0  0
    0.1740   -2.6857    2.5429 C   0  0  0  0  0  0  0  0  0  0  0  0
    1.1597   -2.6729    1.5625 C   0  0  0  0  0  0  0  0  0  0  0  0
    2.2821   -3.4893    1.7814 C   0  0  0  0  0  0  0  0  0  0  0  0
    2.3329   -4.3200    2.9148 C   0  0  0  0  0  0  0  0  0  0  0  0
    3.7851   -5.2695    2.9298 S   0  0  0  0  0  0  0  0  0  0  0  0
    4.3179   -4.5535    1.4257 C   0  0  0  0  0  0  0  0  0  0  0  0
    5.6197   -4.9649    0.8325 C   0  0  0  0  0  0  0  0  0  0  0  0
    6.7963   -4.5125    1.6986 C   0  0  0  0  0  0  0  0  0  0  0  0
    3.4377   -3.6401    0.9616 C   0  0  0  0  0  0  0  0  0  0  0  0
    0.9841   -1.9903    0.2955 C   0  0  0  0  0  0  0  0  0  0  0  0
    1.0311   -2.5856   -0.9521 C   0  0  0  0  0  0  0  0  0  0  0  0
    1.2241   -3.9411   -1.1822 N   0  0  0  0  0  0  0  0  0  0  0  0
    0.6956   -4.8686   -0.2705 C   0  0  0  0  0  0  0  0  0  0  0  0
    1.4287   -5.9835    0.1270 C   0  0  0  0  0  0  0  0  0  0  0  0
    0.9634   -6.8090    1.1323 C   0  0  0  0  0  0  0  0  0  0  0  0
   -0.2548   -6.5416    1.7433 C   0  0  0  0  0  0  0  0  0  0  0  0
   -0.8874   -7.4571    3.1146 S   0  0  0  0  0  0  0  0  0  0  0  0
   -0.0458   -9.0600    2.9734 C   0  0  0  0  0  0  0  0  0  0  0  0
   -1.0256   -5.4726    1.2953 C   0  0  0  0  0  0  0  0  0  0  0  0
   -0.5587   -4.6474    0.2979 C   0  0  0  0  0  0  0  0  0  0  0  0
    1.9205   -4.3523   -2.3208 C   0  0  0  0  0  0  0  0  0  0  0  0
    1.5792   -5.5387   -2.9725 C   0  0  0  0  0  0  0  0  0  0  0  0
    2.2303   -5.9097   -4.1266 C   0  0  0  0  0  0  0  0  0  0  0  0
    3.2326   -5.1056   -4.6660 C   0  0  0  0  0  0  0  0  0  0  0  0
    3.9832   -5.6562   -6.1677 S   0  0  0  0  0  0  0  0  0  0  0  0
    4.7318   -4.1402   -6.8334 C   0  0  0  0  0  0  0  0  0  0  0  0
    3.5999   -3.9426   -4.0056 C   0  0  0  0  0  0  0  0  0  0  0  0
    2.9518   -3.5742   -2.8430 C   0  0  0  0  0  0  0  0  0  0  0  0
    0.7624   -1.6359   -1.9694 C   0  0  0  0  0  0  0  0  0  0  0  0
    0.7127   -1.7031   -3.6917 S   0  0  0  0  0  0  0  0  0  0  0  0
    0.3014    0.0110   -3.7773 C   0  0  0  0  0  0  0  0  0  0  0  0
    0.2243    0.5948   -2.5161 C   0  0  0  0  0  0  0  0  0  0  0  0
   -0.0277    1.9205   -2.2073 N   0  0  0  0  0  0  0  0  0  0  0  0
   -0.7242    2.1770   -1.0114 C   0  0  0  0  0  0  0  0  0  0  0  0
   -0.3155    3.2010   -0.1583 C   0  0  0  0  0  0  0  0  0  0  0  0
   -0.9659    3.4034    1.0383 C   0  0  0  0  0  0  0  0  0  0  0  0
   -2.0293    2.5841    1.4115 C   0  0  0  0  0  0  0  0  0  0  0  0
   -2.7723    2.8949    2.9808 S   0  0  0  0  0  0  0  0  0  0  0  0
   -3.5899    1.3162    3.3538 C   0  0  0  0  0  0  0  0  0  0  0  0
   -2.4627    1.5872    0.5481 C   0  0  0  0  0  0  0  0  0  0  0  0
   -1.8159    1.3903   -0.6551 C   0  0  0  0  0  0  0  0  0  0  0  0
    0.3469    2.9862   -3.0254 C   0  0  0  0  0  0  0  0  0  0  0  0
   -0.4615    4.1210   -3.0979 C   0  0  0  0  0  0  0  0  0  0  0  0
   -0.1691    5.1417   -3.9772 C   0  0  0  0  0  0  0  0  0  0  0  0
    0.9325    5.0423   -4.8157 C   0  0  0  0  0  0  0  0  0  0  0  0
    1.2908    6.2232   -6.0816 S   0  0  0  0  0  0  0  0  0  0  0  0
    0.4732    7.7333   -5.4861 C   0  0  0  0  0  0  0  0  0  0  0  0
    1.7785    3.9408   -4.7073 C   0  0  0  0  0  0  0  0  0  0  0  0
    1.5016    2.9334   -3.8097 C   0  0  0  0  0  0  0  0  0  0  0  0
    0.4885   -0.3637   -1.5007 C   0  0  0  0  0  0  0  0  0  0  0  0
    0.5535   -0.2962    0.2279 S   0  0  0  0  0  0  0  0  0  0  0  0
    0.1218    0.6183   -5.0534 C   0  0  0  0  0  0  0  0  0  0  0  0
    0.8597    0.3977   -6.2251 C   0  0  0  0  0  0  0  0  0  0  0  0
    1.9576   -0.5973   -6.4288 C   0  0  0  0  0  0  0  0  0  0  0  0
    3.2201   -0.2023   -5.6618 C   0  0  0  0  0  0  0  0  0  0  0  0
    0.5864    1.2414   -7.2060 N   0  0  0  0  0  0  0  0  0  0  0  0
   -0.3418    2.1250   -6.9150 C   0  0  0  0  0  0  0  0  0  0  0  0
   -1.0351    1.8798   -5.3146 S   0  0  0  0  0  0  0  0  0  0  0  0
   -0.5671    3.2050   -7.7822 C   0  0  0  0  0  0  0  0  0  0  0  0
   -1.3225    4.3276   -7.5806 C   0  0  0  0  0  0  0  0  0  0  0  0
   -2.1951    4.5684   -6.4267 C   0  0  0  0  0  0  0  0  0  0  0  0
   -2.5131    3.7742   -5.5566 O   0  0  0  0  0  0  0  0  0  0  0  0
   -2.6365    5.9683   -6.5250 C   0  0  0  0  0  0  0  0  0  0  0  0
   -3.4271    6.6644   -5.6125 C   0  0  0  0  0  0  0  0  0  0  0  0
   -3.6522    7.9762   -5.9539 C   0  0  0  0  0  0  0  0  0  0  0  0
   -3.1281    8.5530   -7.1189 C   0  0  0  0  0  0  0  0  0  0  0  0
   -2.3496    7.8762   -8.0282 C   0  0  0  0  0  0  0  0  0  0  0  0
   -2.1093    6.5383   -7.7019 C   0  0  0  0  0  0  0  0  0  0  0  0
   -1.3267    5.5212   -8.4043 C   0  0  0  0  0  0  0  0  0  0  0  0
   -0.7180    5.6899   -9.6197 C   0  0  0  0  0  0  0  0  0  0  0  0
   -0.7406    6.8892  -10.3616 C   0  0  0  0  0  0  0  0  0  0  0  0
   -0.7181    7.8308  -11.0187 N   0  0  0  0  0  0  0  0  0  0  0  0
   -0.0042    4.7005  -10.3293 C   0  0  0  0  0  0  0  0  0  0  0  0
    0.5752    3.9628  -10.9918 N   0  0  0  0  0  0  0  0  0  0  0  0
   -3.7554    9.8943   -6.8320 C   0  0  0  0  0  0  0  0  0  0  0  0
   -5.0257   10.2796   -7.6292 C   0  0  0  0  0  0  0  0  0  0  0  0
   -5.6940    8.9851   -8.0218 C   0  0  0  0  0  0  0  0  0  0  0  0
   -6.1922    8.4369   -6.9217 C   0  0  0  0  0  0  0  0  0  0  0  0
   -5.8700    9.3508   -5.7651 C   0  0  0  0  0  0  0  0  0  0  0  0
   -5.9377   10.7145   -6.4708 C   0  0  0  0  0  0  0  0  0  0  0  0
   -4.3416    9.2507   -5.5356 C   0  0  0  0  0  0  0  0  0  0  0  0
    2.0081   -6.1766    4.7386 H   0  0  0  0  0  0  0  0  0  0  0  0
   -0.0022   -2.0688    9.0347 H   0  0  0  0  0  0  0  0  0  0  0  0
    0.9491   -6.9195   10.1377 H   0  0  0  0  0  0  0  0  0  0  0  0
    0.9121   -5.0330   12.9900 H   0  0  0  0  0  0  0  0  0  0  0  0
   -1.3717   -6.3962   12.8454 H   0  0  0  0  0  0  0  0  0  0  0  0
   -1.3411   -5.0619   15.1087 H   0  0  0  0  0  0  0  0  0  0  0  0
   -1.8488   -2.5101   14.5715 H   0  0  0  0  0  0  0  0  0  0  0  0
   -2.1925   -2.2730   11.9778 H   0  0  0  0  0  0  0  0  0  0  0  0
   -3.2891   -4.6645   12.2699 H   0  0  0  0  0  0  0  0  0  0  0  0
   -2.1664   -4.7312   10.8921 H   0  0  0  0  0  0  0  0  0  0  0  0
    0.4144   -2.5309   12.4637 H   0  0  0  0  0  0  0  0  0  0  0  0
   -1.2373   -4.1685    5.2031 H   0  0  0  0  0  0  0  0  0  0  0  0
   -3.5211   -3.0877    5.1870 H   0  0  0  0  0  0  0  0  0  0  0  0
   -3.4224   -1.3996    4.6738 H   0  0  0  0  0  0  0  0  0  0  0  0
   -4.3170   -3.7287    2.9074 H   0  0  0  0  0  0  0  0  0  0  0  0
   -5.3707   -2.5023    3.6165 H   0  0  0  0  0  0  0  0  0  0  0  0
   -4.1882   -2.0478    2.3839 H   0  0  0  0  0  0  0  0  0  0  0  0
    5.7023   -4.5308   -0.1664 H   0  0  0  0  0  0  0  0  0  0  0  0
    5.6466   -6.0535    0.7358 H   0  0  0  0  0  0  0  0  0  0  0  0
    6.7943   -3.4301    1.8050 H   0  0  0  0  0  0  0  0  0  0  0  0
    7.7358   -4.8166    1.2447 H   0  0  0  0  0  0  0  0  0  0  0  0
    6.7275   -4.9577    2.6885 H   0  0  0  0  0  0  0  0  0  0  0  0
    3.5980   -3.0744    0.0621 H   0  0  0  0  0  0  0  0  0  0  0  0
    2.3876   -6.1808   -0.3293 H   0  0  0  0  0  0  0  0  0  0  0  0
    1.5720   -7.6388    1.4550 H   0  0  0  0  0  0  0  0  0  0  0  0
   -0.0627   -9.3815    1.9369 H   0  0  0  0  0  0  0  0  0  0  0  0
   -0.6194   -9.7489    3.5861 H   0  0  0  0  0  0  0  0  0  0  0  0
    0.9678   -8.9902    3.3600 H   0  0  0  0  0  0  0  0  0  0  0  0
   -1.9875   -5.2916    1.7498 H   0  0  0  0  0  0  0  0  0  0  0  0
   -1.1573   -3.8131   -0.0371 H   0  0  0  0  0  0  0  0  0  0  0  0
    0.7858   -6.1541   -2.5762 H   0  0  0  0  0  0  0  0  0  0  0  0
    1.9570   -6.8200   -4.6376 H   0  0  0  0  0  0  0  0  0  0  0  0
    3.9957   -3.3419   -6.8252 H   0  0  0  0  0  0  0  0  0  0  0  0
    5.0141   -4.3749   -7.8548 H   0  0  0  0  0  0  0  0  0  0  0  0
    5.6164   -3.8702   -6.2634 H   0  0  0  0  0  0  0  0  0  0  0  0
    4.3925   -3.3158   -4.3810 H   0  0  0  0  0  0  0  0  0  0  0  0
    3.2533   -2.6683   -2.3374 H   0  0  0  0  0  0  0  0  0  0  0  0
    0.5244    3.8213   -0.4336 H   0  0  0  0  0  0  0  0  0  0  0  0
   -0.6446    4.1852    1.7090 H   0  0  0  0  0  0  0  0  0  0  0  0
   -2.9000    0.5045    3.1420 H   0  0  0  0  0  0  0  0  0  0  0  0
   -4.5069    1.2163    2.7798 H   0  0  0  0  0  0  0  0  0  0  0  0
   -3.8241    1.3487    4.4134 H   0  0  0  0  0  0  0  0  0  0  0  0
   -3.3036    0.9613    0.7980 H   0  0  0  0  0  0  0  0  0  0  0  0
   -2.1582    0.6176   -1.3277 H   0  0  0  0  0  0  0  0  0  0  0  0
   -1.3519    4.1804   -2.4919 H   0  0  0  0  0  0  0  0  0  0  0  0
   -0.8299    5.9921   -4.0284 H   0  0  0  0  0  0  0  0  0  0  0  0
   -0.6047    7.6558   -5.5960 H   0  0  0  0  0  0  0  0  0  0  0  0
    0.8467    8.5361   -6.1140 H   0  0  0  0  0  0  0  0  0  0  0  0
    0.7516    7.9079   -4.4514 H   0  0  0  0  0  0  0  0  0  0  0  0
    2.6496    3.8825   -5.3415 H   0  0  0  0  0  0  0  0  0  0  0  0
    2.1662    2.0867   -3.7308 H   0  0  0  0  0  0  0  0  0  0  0  0
    2.1735   -0.6176   -7.4976 H   0  0  0  0  0  0  0  0  0  0  0  0
    1.6291   -1.5913   -6.1188 H   0  0  0  0  0  0  0  0  0  0  0  0
    3.0482   -0.2374   -4.5884 H   0  0  0  0  0  0  0  0  0  0  0  0
    3.5235    0.8054   -5.9356 H   0  0  0  0  0  0  0  0  0  0  0  0
    4.0331   -0.8835   -5.9011 H   0  0  0  0  0  0  0  0  0  0  0  0
    0.0366    3.1397   -8.6786 H   0  0  0  0  0  0  0  0  0  0  0  0
   -3.8063    6.1792   -4.7262 H   0  0  0  0  0  0  0  0  0  0  0  0
   -1.9531    8.3384   -8.9162 H   0  0  0  0  0  0  0  0  0  0  0  0
   -3.0662   10.7291   -6.7203 H   0  0  0  0  0  0  0  0  0  0  0  0
   -4.8561   10.9943   -8.4298 H   0  0  0  0  0  0  0  0  0  0  0  0
   -5.6858    8.5860   -9.0191 H   0  0  0  0  0  0  0  0  0  0  0  0
   -6.6835    7.4874   -6.8159 H   0  0  0  0  0  0  0  0  0  0  0  0
   -6.4704    9.2206   -4.8684 H   0  0  0  0  0  0  0  0  0  0  0  0
   -5.5270   11.5309   -5.8781 H   0  0  0  0  0  0  0  0  0  0  0  0
   -6.9440   10.9688   -6.7998 H   0  0  0  0  0  0  0  0  0  0  0  0
   -4.0383    9.6678   -4.5768 H   0  0  0  0  0  0  0  0  0  0  0  0
  1  2  2  0  0  0  0
  2  3  1  0  0  0  0
  3  4  2  0  0  0  0
  3  5  1  0  0  0  0
  5  6  2  0  0  0  0
  6  7  1  0  0  0  0
  7  8  2  0  0  0  0
  8  9  1  0  0  0  0
  9 10  2  0  0  0  0
 10 11  1  0  0  0  0
 11 12  2  0  0  0  0
 12 13  1  0  0  0  0
 13 14  3  0  0  0  0
 12 15  1  0  0  0  0
 15 16  3  0  0  0  0
  8 17  1  0  0  0  0
 17 18  1  0  0  0  0
 18 19  1  0  0  0  0
 19 20  2  0  0  0  0
 20 21  1  0  0  0  0
 21 22  1  0  0  0  0
 21 23  1  0  0  0  0
  1 24  1  0  0  0  0
 24 25  2  0  0  0  0
 25 26  1  0  0  0  0
 26 27  2  0  0  0  0
 27 28  1  0  0  0  0
 28 29  1  0  0  0  0
 27 30  1  0  0  0  0
 30 31  1  0  0  0  0
 31 32  2  0  0  0  0
 32 33  1  0  0  0  0
 33 34  2  0  0  0  0
 34 35  1  0  0  0  0
 35 36  1  0  0  0  0
 36 37  1  0  0  0  0
 37 38  1  0  0  0  0
 36 39  2  0  0  0  0
 32 40  1  0  0  0  0
 40 41  2  0  0  0  0
 41 42  1  0  0  0  0
 42 43  1  0  0  0  0
 43 44  2  0  0  0  0
 44 45  1  0  0  0  0
 45 46  2  0  0  0  0
 46 47  1  0  0  0  0
 47 48  1  0  0  0  0
 46 49  1  0  0  0  0
 49 50  2  0  0  0  0
 42 51  1  0  0  0  0
 51 52  2  0  0  0  0
 52 53  1  0  0  0  0
 53 54  2  0  0  0  0
 54 55  1  0  0  0  0
 55 56  1  0  0  0  0
 54 57  1  0  0  0  0
 57 58  2  0  0  0  0
 41 59  1  0  0  0  0
 59 60  1  0  0  0  0
 60 61  1  0  0  0  0
 61 62  2  0  0  0  0
 62 63  1  0  0  0  0
 63 64  1  0  0  0  0
 64 65  2  0  0  0  0
 65 66  1  0  0  0  0
 66 67  2  0  0  0  0
 67 68  1  0  0  0  0
 68 69  1  0  0  0  0
 67 70  1  0  0  0  0
 70 71  2  0  0  0  0
 63 72  1  0  0  0  0
 72 73  2  0  0  0  0
 73 74  1  0  0  0  0
 74 75  2  0  0  0  0
 75 76  1  0  0  0  0
 76 77  1  0  0  0  0
 75 78  1  0  0  0  0
 78 79  2  0  0  0  0
 62 80  1  0  0  0  0
 80 81  1  0  0  0  0
 61 82  1  0  0  0  0
 82 83  2  0  0  0  0
 83 84  1  0  0  0  0
 84 85  1  0  0  0  0
 83 86  1  0  0  0  0
 86 87  2  0  0  0  0
 87 88  1  0  0  0  0
 87 89  1  0  0  0  0
 89 90  2  0  0  0  0
 90 91  1  0  0  0  0
 91 92  2  0  0  0  0
 91 93  1  0  0  0  0
 93 94  2  0  0  0  0
 94 95  1  0  0  0  0
 95 96  2  0  0  0  0
 96 97  1  0  0  0  0
 97 98  2  0  0  0  0
 98 99  1  0  0  0  0
 99100  2  0  0  0  0
100101  1  0  0  0  0
101102  3  0  0  0  0
100103  1  0  0  0  0
103104  3  0  0  0  0
 96105  1  0  0  0  0
105106  1  0  0  0  0
106107  1  0  0  0  0
107108  2  0  0  0  0
108109  1  0  0  0  0
109110  1  0  0  0  0
109111  1  0  0  0  0
 11  2  1  0  0  0  0
 23 17  1  0  0  0  0
 34 24  1  0  0  0  0
 81 40  1  0  0  0  0
 88 82  1  0  0  0  0
 99 90  1  0  0  0  0
111105  1  0  0  0  0
 10  5  1  0  0  0  0
 22 18  1  0  0  0  0
 31 25  1  0  0  0  0
 39 33  1  0  0  0  0
 50 43  1  0  0  0  0
 58 51  1  0  0  0  0
 80 59  2  0  0  0  0
 98 93  1  0  0  0  0
110106  1  0  0  0  0
 23  7  1  0  0  0  0
 71 64  1  0  0  0  0
 79 72  1  0  0  0  0
111 95  1  0  0  0  0
  1112  1  0  0  0  0
  6113  1  0  0  0  0
  9114  1  0  0  0  0
 17115  1  0  0  0  0
 18116  1  0  0  0  0
 19117  1  0  0  0  0
 20118  1  0  0  0  0
 21119  1  0  0  0  0
 22120  1  0  0  0  0
 22121  1  0  0  0  0
 23122  1  0  0  0  0
 26123  1  0  0  0  0
 28124  1  0  0  0  0
 28125  1  0  0  0  0
 29126  1  0  0  0  0
 29127  1  0  0  0  0
 29128  1  0  0  0  0
 37129  1  0  0  0  0
 37130  1  0  0  0  0
 38131  1  0  0  0  0
 38132  1  0  0  0  0
 38133  1  0  0  0  0
 39134  1  0  0  0  0
 44135  1  0  0  0  0
 45136  1  0  0  0  0
 48137  1  0  0  0  0
 48138  1  0  0  0  0
 48139  1  0  0  0  0
 49140  1  0  0  0  0
 50141  1  0  0  0  0
 52142  1  0  0  0  0
 53143  1  0  0  0  0
 56144  1  0  0  0  0
 56145  1  0  0  0  0
 56146  1  0  0  0  0
 57147  1  0  0  0  0
 58148  1  0  0  0  0
 65149  1  0  0  0  0
 66150  1  0  0  0  0
 69151  1  0  0  0  0
 69152  1  0  0  0  0
 69153  1  0  0  0  0
 70154  1  0  0  0  0
 71155  1  0  0  0  0
 73156  1  0  0  0  0
 74157  1  0  0  0  0
 77158  1  0  0  0  0
 77159  1  0  0  0  0
 77160  1  0  0  0  0
 78161  1  0  0  0  0
 79162  1  0  0  0  0
 84163  1  0  0  0  0
 84164  1  0  0  0  0
 85165  1  0  0  0  0
 85166  1  0  0  0  0
 85167  1  0  0  0  0
 89168  1  0  0  0  0
 94169  1  0  0  0  0
 97170  1  0  0  0  0
105171  1  0  0  0  0
106172  1  0  0  0  0
107173  1  0  0  0  0
108174  1  0  0  0  0
109175  1  0  0  0  0
110176  1  0  0  0  0
110177  1  0  0  0  0
111178  1  0  0  0  0
M  END
