
  xtb     02072211543D
 energy: -307.203596714358 gnorm: 0.000709541742 xtb: 6.4.1 (unknown)
177193  0     0  0            999 V2000
   -3.8640   -3.8862   -4.9443 C   0  0  0  0  0  0  0  0  0  0  0  0
   -5.0529   -3.5388   -5.4961 C   0  0  0  0  0  0  0  0  0  0  0  0
   -5.5614   -4.2628   -6.6968 C   0  0  0  0  0  0  0  0  0  0  0  0
   -5.1629   -5.3195   -7.1287 O   0  0  0  0  0  0  0  0  0  0  0  0
   -6.6063   -3.3865   -7.2623 C   0  0  0  0  0  0  0  0  0  0  0  0
   -7.2876   -3.5540   -8.4657 C   0  0  0  0  0  0  0  0  0  0  0  0
   -8.1926   -2.5570   -8.7412 C   0  0  0  0  0  0  0  0  0  0  0  0
   -8.4011   -1.4627   -7.8901 C   0  0  0  0  0  0  0  0  0  0  0  0
   -7.7399   -1.2849   -6.6985 C   0  0  0  0  0  0  0  0  0  0  0  0
   -6.8233   -2.2943   -6.3949 C   0  0  0  0  0  0  0  0  0  0  0  0
   -5.9770   -2.4605   -5.2196 C   0  0  0  0  0  0  0  0  0  0  0  0
   -6.1679   -1.8707   -3.9965 C   0  0  0  0  0  0  0  0  0  0  0  0
   -7.1011   -0.8519   -3.7396 C   0  0  0  0  0  0  0  0  0  0  0  0
   -7.8291   -0.0035   -3.4731 N   0  0  0  0  0  0  0  0  0  0  0  0
   -5.4802   -2.2837   -2.8387 C   0  0  0  0  0  0  0  0  0  0  0  0
   -4.9647   -2.6224   -1.8700 N   0  0  0  0  0  0  0  0  0  0  0  0
   -9.4435   -0.8559   -8.7953 C   0  0  0  0  0  0  0  0  0  0  0  0
  -10.9289   -1.0092   -8.3848 C   0  0  0  0  0  0  0  0  0  0  0  0
  -11.0136   -2.2594   -7.5444 C   0  0  0  0  0  0  0  0  0  0  0  0
  -10.8211   -3.2990   -8.3452 C   0  0  0  0  0  0  0  0  0  0  0  0
  -10.6024   -2.7706   -9.7414 C   0  0  0  0  0  0  0  0  0  0  0  0
  -11.5116   -1.5318   -9.7075 C   0  0  0  0  0  0  0  0  0  0  0  0
   -9.2166   -2.0783   -9.7396 C   0  0  0  0  0  0  0  0  0  0  0  0
   -3.0197   -3.1423   -4.0598 C   0  0  0  0  0  0  0  0  0  0  0  0
   -2.9174   -1.7548   -4.0380 C   0  0  0  0  0  0  0  0  0  0  0  0
   -3.6153   -1.0152   -4.9225 F   0  0  0  0  0  0  0  0  0  0  0  0
   -2.0577   -1.0676   -3.1886 C   0  0  0  0  0  0  0  0  0  0  0  0
   -1.9532    0.2646   -3.3668 F   0  0  0  0  0  0  0  0  0  0  0  0
   -1.2581   -1.7187   -2.2526 C   0  0  0  0  0  0  0  0  0  0  0  0
   -1.2841   -3.1452   -2.3052 C   0  0  0  0  0  0  0  0  0  0  0  0
   -0.4576   -3.8182   -1.4983 N   0  0  0  0  0  0  0  0  0  0  0  0
   -0.4545   -5.1300   -1.5078 C   0  0  0  0  0  0  0  0  0  0  0  0
    0.5423   -5.7952   -0.6113 C   0  0  0  0  0  0  0  0  0  0  0  0
    1.8429   -6.0479   -1.3762 C   0  0  0  0  0  0  0  0  0  0  0  0
   -1.3271   -5.8331   -2.3822 C   0  0  0  0  0  0  0  0  0  0  0  0
   -2.1289   -5.1867   -3.1952 N   0  0  0  0  0  0  0  0  0  0  0  0
   -2.1358   -3.8453   -3.1886 C   0  0  0  0  0  0  0  0  0  0  0  0
   -1.4328   -7.3272   -2.4088 C   0  0  0  0  0  0  0  0  0  0  0  0
   -2.4518   -7.7957   -1.3662 C   0  0  0  0  0  0  0  0  0  0  0  0
   -0.3613   -1.0711   -1.3604 C   0  0  0  0  0  0  0  0  0  0  0  0
   -0.3834    0.2476   -0.8908 C   0  0  0  0  0  0  0  0  0  0  0  0
   -1.4695    1.0878   -0.9042 N   0  0  0  0  0  0  0  0  0  0  0  0
   -1.2398    2.4722   -0.8517 C   0  0  0  0  0  0  0  0  0  0  0  0
   -1.9171    3.2703    0.0653 C   0  0  0  0  0  0  0  0  0  0  0  0
   -1.6521    4.6223    0.1509 C   0  0  0  0  0  0  0  0  0  0  0  0
   -0.7015    5.1989   -0.6822 C   0  0  0  0  0  0  0  0  0  0  0  0
   -0.2398    6.9006   -0.6264 S   0  0  0  0  0  0  0  0  0  0  0  0
   -1.3932    7.6304    0.5724 C   0  0  0  0  0  0  0  0  0  0  0  0
   -0.0395    4.4068   -1.6188 C   0  0  0  0  0  0  0  0  0  0  0  0
   -0.3056    3.0591   -1.7057 C   0  0  0  0  0  0  0  0  0  0  0  0
   -2.7803    0.6176   -0.7126 C   0  0  0  0  0  0  0  0  0  0  0  0
   -3.0486   -0.4886    0.0938 C   0  0  0  0  0  0  0  0  0  0  0  0
   -4.3488   -0.8632    0.3427 C   0  0  0  0  0  0  0  0  0  0  0  0
   -5.4130   -0.1478   -0.2058 C   0  0  0  0  0  0  0  0  0  0  0  0
   -7.0314   -0.6809    0.2331 S   0  0  0  0  0  0  0  0  0  0  0  0
   -8.1048    0.6711   -0.3329 C   0  0  0  0  0  0  0  0  0  0  0  0
   -5.1492    0.9246   -1.0487 C   0  0  0  0  0  0  0  0  0  0  0  0
   -3.8443    1.3017   -1.2956 C   0  0  0  0  0  0  0  0  0  0  0  0
    0.8438    0.5766   -0.2681 C   0  0  0  0  0  0  0  0  0  0  0  0
    1.4354    2.0079    0.5196 S   0  0  0  0  0  0  0  0  0  0  0  0
    2.9436    1.1895    0.8523 C   0  0  0  0  0  0  0  0  0  0  0  0
    2.9062   -0.1741    0.5383 C   0  0  0  0  0  0  0  0  0  0  0  0
    3.8187   -1.0904    1.0140 N   0  0  0  0  0  0  0  0  0  0  0  0
    4.1609   -2.2100    0.2545 C   0  0  0  0  0  0  0  0  0  0  0  0
    4.4810   -3.4155    0.8740 C   0  0  0  0  0  0  0  0  0  0  0  0
    4.8491   -4.5152    0.1254 C   0  0  0  0  0  0  0  0  0  0  0  0
    4.8982   -4.4294   -1.2600 C   0  0  0  0  0  0  0  0  0  0  0  0
    5.3468   -5.7677   -2.3195 S   0  0  0  0  0  0  0  0  0  0  0  0
    6.0089   -7.0191   -1.1824 C   0  0  0  0  0  0  0  0  0  0  0  0
    4.5630   -3.2287   -1.8838 C   0  0  0  0  0  0  0  0  0  0  0  0
    4.2020   -2.1304   -1.1384 C   0  0  0  0  0  0  0  0  0  0  0  0
    4.4072   -0.8557    2.2707 C   0  0  0  0  0  0  0  0  0  0  0  0
    3.6467   -0.2957    3.2974 C   0  0  0  0  0  0  0  0  0  0  0  0
    4.2422    0.1169    4.4699 C   0  0  0  0  0  0  0  0  0  0  0  0
    5.6102   -0.0526    4.6514 C   0  0  0  0  0  0  0  0  0  0  0  0
    6.4624    0.5486    6.0763 S   0  0  0  0  0  0  0  0  0  0  0  0
    5.4407    1.9695    6.5762 C   0  0  0  0  0  0  0  0  0  0  0  0
    6.3497   -0.7236    3.6830 C   0  0  0  0  0  0  0  0  0  0  0  0
    5.7591   -1.1085    2.4974 C   0  0  0  0  0  0  0  0  0  0  0  0
    1.7217   -0.4930   -0.1633 C   0  0  0  0  0  0  0  0  0  0  0  0
    1.0502   -1.9614   -0.8090 S   0  0  0  0  0  0  0  0  0  0  0  0
    4.0168    1.9202    1.4301 C   0  0  0  0  0  0  0  0  0  0  0  0
    5.3669    1.6481    1.2206 C   0  0  0  0  0  0  0  0  0  0  0  0
    5.7191    0.7709    0.2602 F   0  0  0  0  0  0  0  0  0  0  0  0
    6.3841    2.3057    1.9097 C   0  0  0  0  0  0  0  0  0  0  0  0
    7.6369    2.0889    1.5014 F   0  0  0  0  0  0  0  0  0  0  0  0
    6.1144    3.2278    2.9214 C   0  0  0  0  0  0  0  0  0  0  0  0
    4.7452    3.6362    3.0416 C   0  0  0  0  0  0  0  0  0  0  0  0
    4.4119    4.5861    3.9254 N   0  0  0  0  0  0  0  0  0  0  0  0
    3.1763    5.0289    3.9835 C   0  0  0  0  0  0  0  0  0  0  0  0
    2.9094    6.0310    5.0630 C   0  0  0  0  0  0  0  0  0  0  0  0
    2.8432    5.3295    6.4224 C   0  0  0  0  0  0  0  0  0  0  0  0
    2.1951    4.5367    3.0790 C   0  0  0  0  0  0  0  0  0  0  0  0
    2.4910    3.5358    2.2823 N   0  0  0  0  0  0  0  0  0  0  0  0
    3.7321    3.0446    2.2584 C   0  0  0  0  0  0  0  0  0  0  0  0
    0.8043    5.0772    2.9495 C   0  0  0  0  0  0  0  0  0  0  0  0
   -0.1459    4.4192    3.9512 C   0  0  0  0  0  0  0  0  0  0  0  0
    7.0385    3.8815    3.7891 C   0  0  0  0  0  0  0  0  0  0  0  0
    8.2676    3.5176    4.2437 C   0  0  0  0  0  0  0  0  0  0  0  0
    8.9975    2.2399    4.0280 C   0  0  0  0  0  0  0  0  0  0  0  0
    8.5652    1.1967    3.5983 O   0  0  0  0  0  0  0  0  0  0  0  0
   10.3583    2.4760    4.5544 C   0  0  0  0  0  0  0  0  0  0  0  0
   11.4612    1.6455    4.5014 C   0  0  0  0  0  0  0  0  0  0  0  0
   12.6514    2.0872    5.0562 C   0  0  0  0  0  0  0  0  0  0  0  0
   12.7113    3.3410    5.6549 C   0  0  0  0  0  0  0  0  0  0  0  0
   14.2031    3.8759    6.3318 Cl  0  0  0  0  0  0  0  0  0  0  0  0
   11.6058    4.1816    5.7264 C   0  0  0  0  0  0  0  0  0  0  0  0
   10.4172    3.7376    5.1697 C   0  0  0  0  0  0  0  0  0  0  0  0
    9.1002    4.3659    5.0837 C   0  0  0  0  0  0  0  0  0  0  0  0
    8.7276    5.5116    5.7350 C   0  0  0  0  0  0  0  0  0  0  0  0
    7.4386    6.0889    5.7523 C   0  0  0  0  0  0  0  0  0  0  0  0
    6.4316    6.6316    5.8599 N   0  0  0  0  0  0  0  0  0  0  0  0
    9.5946    6.2700    6.5520 C   0  0  0  0  0  0  0  0  0  0  0  0
   10.2385    6.9344    7.2316 N   0  0  0  0  0  0  0  0  0  0  0  0
   -3.4669   -4.8514   -5.2398 H   0  0  0  0  0  0  0  0  0  0  0  0
   -7.0946   -4.4059   -9.0987 H   0  0  0  0  0  0  0  0  0  0  0  0
   -7.8961   -0.4352   -6.0540 H   0  0  0  0  0  0  0  0  0  0  0  0
   -9.2194    0.1359   -9.1831 H   0  0  0  0  0  0  0  0  0  0  0  0
  -11.3745   -0.1139   -7.9595 H   0  0  0  0  0  0  0  0  0  0  0  0
  -11.1425   -2.2561   -6.4779 H   0  0  0  0  0  0  0  0  0  0  0  0
  -10.7573   -4.3384   -8.0815 H   0  0  0  0  0  0  0  0  0  0  0  0
  -10.7517   -3.4791  -10.5519 H   0  0  0  0  0  0  0  0  0  0  0  0
  -12.5676   -1.7864   -9.6311 H   0  0  0  0  0  0  0  0  0  0  0  0
  -11.3559   -0.8560  -10.5475 H   0  0  0  0  0  0  0  0  0  0  0  0
   -8.8488   -1.8850  -10.7455 H   0  0  0  0  0  0  0  0  0  0  0  0
    0.1473   -6.7331   -0.2217 H   0  0  0  0  0  0  0  0  0  0  0  0
    0.7504   -5.1208    0.2200 H   0  0  0  0  0  0  0  0  0  0  0  0
    2.2491   -5.1050   -1.7326 H   0  0  0  0  0  0  0  0  0  0  0  0
    1.6788   -6.6989   -2.2318 H   0  0  0  0  0  0  0  0  0  0  0  0
    2.5728   -6.5142   -0.7200 H   0  0  0  0  0  0  0  0  0  0  0  0
   -1.7794   -7.6232   -3.3992 H   0  0  0  0  0  0  0  0  0  0  0  0
   -0.4643   -7.7888   -2.2183 H   0  0  0  0  0  0  0  0  0  0  0  0
   -2.1475   -7.5035   -0.3633 H   0  0  0  0  0  0  0  0  0  0  0  0
   -3.4224   -7.3520   -1.5723 H   0  0  0  0  0  0  0  0  0  0  0  0
   -2.5483   -8.8779   -1.3989 H   0  0  0  0  0  0  0  0  0  0  0  0
   -2.6442    2.8241    0.7273 H   0  0  0  0  0  0  0  0  0  0  0  0
   -2.1850    5.2106    0.8802 H   0  0  0  0  0  0  0  0  0  0  0  0
   -1.1651    8.6917    0.5856 H   0  0  0  0  0  0  0  0  0  0  0  0
   -1.2280    7.2066    1.5586 H   0  0  0  0  0  0  0  0  0  0  0  0
   -2.4162    7.4778    0.2418 H   0  0  0  0  0  0  0  0  0  0  0  0
    0.6855    4.8644   -2.2739 H   0  0  0  0  0  0  0  0  0  0  0  0
    0.2017    2.4486   -2.4366 H   0  0  0  0  0  0  0  0  0  0  0  0
   -2.2372   -1.0385    0.5459 H   0  0  0  0  0  0  0  0  0  0  0  0
   -4.5599   -1.7087    0.9776 H   0  0  0  0  0  0  0  0  0  0  0  0
   -7.7459    1.6132    0.0704 H   0  0  0  0  0  0  0  0  0  0  0  0
   -8.1440    0.6875   -1.4190 H   0  0  0  0  0  0  0  0  0  0  0  0
   -9.0887    0.4464    0.0669 H   0  0  0  0  0  0  0  0  0  0  0  0
   -5.9499    1.4664   -1.5257 H   0  0  0  0  0  0  0  0  0  0  0  0
   -3.6411    2.1357   -1.9507 H   0  0  0  0  0  0  0  0  0  0  0  0
    4.4395   -3.4906    1.9504 H   0  0  0  0  0  0  0  0  0  0  0  0
    5.0897   -5.4340    0.6355 H   0  0  0  0  0  0  0  0  0  0  0  0
    6.4208   -7.7997   -1.8143 H   0  0  0  0  0  0  0  0  0  0  0  0
    6.7952   -6.5824   -0.5742 H   0  0  0  0  0  0  0  0  0  0  0  0
    5.2143   -7.4295   -0.5658 H   0  0  0  0  0  0  0  0  0  0  0  0
    4.6063   -3.1673   -2.9603 H   0  0  0  0  0  0  0  0  0  0  0  0
    3.9800   -1.1945   -1.6265 H   0  0  0  0  0  0  0  0  0  0  0  0
    2.5842   -0.1555    3.1625 H   0  0  0  0  0  0  0  0  0  0  0  0
    3.6343    0.5681    5.2383 H   0  0  0  0  0  0  0  0  0  0  0  0
    4.5431    1.6352    7.0885 H   0  0  0  0  0  0  0  0  0  0  0  0
    6.0533    2.5489    7.2602 H   0  0  0  0  0  0  0  0  0  0  0  0
    5.1968    2.5661    5.7020 H   0  0  0  0  0  0  0  0  0  0  0  0
    7.4030   -0.8833    3.8407 H   0  0  0  0  0  0  0  0  0  0  0  0
    6.3555   -1.5621    1.7208 H   0  0  0  0  0  0  0  0  0  0  0  0
    3.7437    6.7331    5.0869 H   0  0  0  0  0  0  0  0  0  0  0  0
    1.9837    6.5730    4.8760 H   0  0  0  0  0  0  0  0  0  0  0  0
    2.6404    6.0553    7.2051 H   0  0  0  0  0  0  0  0  0  0  0  0
    3.7953    4.8496    6.6324 H   0  0  0  0  0  0  0  0  0  0  0  0
    2.0604    4.5729    6.4363 H   0  0  0  0  0  0  0  0  0  0  0  0
    0.8092    6.1594    3.0902 H   0  0  0  0  0  0  0  0  0  0  0  0
    0.4639    4.8484    1.9381 H   0  0  0  0  0  0  0  0  0  0  0  0
   -1.1585    4.7875    3.8048 H   0  0  0  0  0  0  0  0  0  0  0  0
    0.1539    4.6339    4.9739 H   0  0  0  0  0  0  0  0  0  0  0  0
   -0.1469    3.3420    3.8046 H   0  0  0  0  0  0  0  0  0  0  0  0
    6.6265    4.8076    4.1730 H   0  0  0  0  0  0  0  0  0  0  0  0
   11.3878    0.6787    4.0285 H   0  0  0  0  0  0  0  0  0  0  0  0
   13.5352    1.4697    5.0268 H   0  0  0  0  0  0  0  0  0  0  0  0
   11.6958    5.1458    6.1986 H   0  0  0  0  0  0  0  0  0  0  0  0
  1  2  2  0  0  0  0
  2  3  1  0  0  0  0
  3  4  2  0  0  0  0
  3  5  1  0  0  0  0
  5  6  2  0  0  0  0
  6  7  1  0  0  0  0
  7  8  2  0  0  0  0
  8  9  1  0  0  0  0
  9 10  2  0  0  0  0
 10 11  1  0  0  0  0
 11 12  2  0  0  0  0
 12 13  1  0  0  0  0
 13 14  3  0  0  0  0
 12 15  1  0  0  0  0
 15 16  3  0  0  0  0
  8 17  1  0  0  0  0
 17 18  1  0  0  0  0
 18 19  1  0  0  0  0
 19 20  2  0  0  0  0
 20 21  1  0  0  0  0
 21 22  1  0  0  0  0
 21 23  1  0  0  0  0
  1 24  1  0  0  0  0
 24 25  2  0  0  0  0
 25 26  1  0  0  0  0
 25 27  1  0  0  0  0
 27 28  1  0  0  0  0
 27 29  2  0  0  0  0
 29 30  1  0  0  0  0
 30 31  2  0  0  0  0
 31 32  1  0  0  0  0
 32 33  1  0  0  0  0
 33 34  1  0  0  0  0
 32 35  2  0  0  0  0
 35 36  1  0  0  0  0
 36 37  2  0  0  0  0
 35 38  1  0  0  0  0
 38 39  1  0  0  0  0
 29 40  1  0  0  0  0
 40 41  2  0  0  0  0
 41 42  1  0  0  0  0
 42 43  1  0  0  0  0
 43 44  2  0  0  0  0
 44 45  1  0  0  0  0
 45 46  2  0  0  0  0
 46 47  1  0  0  0  0
 47 48  1  0  0  0  0
 46 49  1  0  0  0  0
 49 50  2  0  0  0  0
 42 51  1  0  0  0  0
 51 52  2  0  0  0  0
 52 53  1  0  0  0  0
 53 54  2  0  0  0  0
 54 55  1  0  0  0  0
 55 56  1  0  0  0  0
 54 57  1  0  0  0  0
 57 58  2  0  0  0  0
 41 59  1  0  0  0  0
 59 60  1  0  0  0  0
 60 61  1  0  0  0  0
 61 62  2  0  0  0  0
 62 63  1  0  0  0  0
 63 64  1  0  0  0  0
 64 65  2  0  0  0  0
 65 66  1  0  0  0  0
 66 67  2  0  0  0  0
 67 68  1  0  0  0  0
 68 69  1  0  0  0  0
 67 70  1  0  0  0  0
 70 71  2  0  0  0  0
 63 72  1  0  0  0  0
 72 73  2  0  0  0  0
 73 74  1  0  0  0  0
 74 75  2  0  0  0  0
 75 76  1  0  0  0  0
 76 77  1  0  0  0  0
 75 78  1  0  0  0  0
 78 79  2  0  0  0  0
 62 80  1  0  0  0  0
 80 81  1  0  0  0  0
 61 82  1  0  0  0  0
 82 83  2  0  0  0  0
 83 84  1  0  0  0  0
 83 85  1  0  0  0  0
 85 86  1  0  0  0  0
 85 87  2  0  0  0  0
 87 88  1  0  0  0  0
 88 89  2  0  0  0  0
 89 90  1  0  0  0  0
 90 91  1  0  0  0  0
 91 92  1  0  0  0  0
 90 93  2  0  0  0  0
 93 94  1  0  0  0  0
 94 95  2  0  0  0  0
 93 96  1  0  0  0  0
 96 97  1  0  0  0  0
 87 98  1  0  0  0  0
 98 99  2  0  0  0  0
 99100  1  0  0  0  0
100101  2  0  0  0  0
100102  1  0  0  0  0
102103  2  0  0  0  0
103104  1  0  0  0  0
104105  2  0  0  0  0
105106  1  0  0  0  0
105107  1  0  0  0  0
107108  2  0  0  0  0
108109  1  0  0  0  0
109110  2  0  0  0  0
110111  1  0  0  0  0
111112  3  0  0  0  0
110113  1  0  0  0  0
113114  3  0  0  0  0
 11  2  1  0  0  0  0
 23 17  1  0  0  0  0
 37 24  1  0  0  0  0
 81 40  1  0  0  0  0
 95 82  1  0  0  0  0
109 99  1  0  0  0  0
 10  5  1  0  0  0  0
 22 18  1  0  0  0  0
 37 30  1  0  0  0  0
 50 43  1  0  0  0  0
 58 51  1  0  0  0  0
 80 59  2  0  0  0  0
 95 88  1  0  0  0  0
108102  1  0  0  0  0
 23  7  1  0  0  0  0
 71 64  1  0  0  0  0
 79 72  1  0  0  0  0
  1115  1  0  0  0  0
  6116  1  0  0  0  0
  9117  1  0  0  0  0
 17118  1  0  0  0  0
 18119  1  0  0  0  0
 19120  1  0  0  0  0
 20121  1  0  0  0  0
 21122  1  0  0  0  0
 22123  1  0  0  0  0
 22124  1  0  0  0  0
 23125  1  0  0  0  0
 33126  1  0  0  0  0
 33127  1  0  0  0  0
 34128  1  0  0  0  0
 34129  1  0  0  0  0
 34130  1  0  0  0  0
 38131  1  0  0  0  0
 38132  1  0  0  0  0
 39133  1  0  0  0  0
 39134  1  0  0  0  0
 39135  1  0  0  0  0
 44136  1  0  0  0  0
 45137  1  0  0  0  0
 48138  1  0  0  0  0
 48139  1  0  0  0  0
 48140  1  0  0  0  0
 49141  1  0  0  0  0
 50142  1  0  0  0  0
 52143  1  0  0  0  0
 53144  1  0  0  0  0
 56145  1  0  0  0  0
 56146  1  0  0  0  0
 56147  1  0  0  0  0
 57148  1  0  0  0  0
 58149  1  0  0  0  0
 65150  1  0  0  0  0
 66151  1  0  0  0  0
 69152  1  0  0  0  0
 69153  1  0  0  0  0
 69154  1  0  0  0  0
 70155  1  0  0  0  0
 71156  1  0  0  0  0
 73157  1  0  0  0  0
 74158  1  0  0  0  0
 77159  1  0  0  0  0
 77160  1  0  0  0  0
 77161  1  0  0  0  0
 78162  1  0  0  0  0
 79163  1  0  0  0  0
 91164  1  0  0  0  0
 91165  1  0  0  0  0
 92166  1  0  0  0  0
 92167  1  0  0  0  0
 92168  1  0  0  0  0
 96169  1  0  0  0  0
 96170  1  0  0  0  0
 97171  1  0  0  0  0
 97172  1  0  0  0  0
 97173  1  0  0  0  0
 98174  1  0  0  0  0
103175  1  0  0  0  0
104176  1  0  0  0  0
107177  1  0  0  0  0
M  END
