234

C         -4.31980        6.17840       -0.92330
C         -5.05130        6.66460        0.12010
C         -5.82340        7.92740       -0.01830
O         -5.75190        8.71710       -0.93460
C         -6.70200        7.98410        1.16760
C         -7.70990        8.90510        1.44280
C         -8.37840        8.66760        2.62090
C         -8.09410        7.57560        3.45210
C         -7.10020        6.66070        3.19810
C         -6.38600        6.91060        2.02580
C         -5.24820        6.18770        1.46690
C         -4.36490        5.45700        2.22260
C         -3.16860        4.88350        1.75740
N         -2.15680        4.41500        1.47710
C         -4.44790        5.35750        3.62390
N         -4.39940        5.29550        4.77040
C         -9.16650        7.94790        4.44400
C         -8.71410        8.60720        5.76980
C         -7.40060        9.28970        5.47830
C         -7.65230       10.33380        4.69990
C         -9.13980       10.37590        4.45140
C         -9.65330        9.82350        5.79070
C         -9.47070        9.17570        3.52860
C         -3.85700        4.85350       -1.06570
C         -2.68190        4.38780       -1.66530
N         -1.70920        5.14650       -2.26330
C         -2.00980        6.25740       -3.05670
C         -1.15470        7.35590       -3.07340
C         -1.43380        8.45330       -3.86330
C         -2.57880        8.47340       -4.65080
S         -3.03530        9.80980       -5.70350
C         -1.85680       11.12320       -5.27820
C         -3.43280        7.37110       -4.64320
C         -3.15280        6.27510       -3.85930
C         -0.37100        4.71660       -2.12990
C          0.10250        4.31770       -0.88250
C          1.36110        3.76480       -0.75710
C          2.16610        3.61040       -1.87830
S          3.74600        2.82350       -1.83300
C          3.66960        1.83590       -0.31090
C          1.72450        4.08650       -3.11170
C          0.46630        4.63360       -3.24050
C         -2.53790        2.99470       -1.44750
S         -1.30070        1.85170       -1.81550
C         -2.20250        0.57250       -1.01180
C         -3.42920        1.00350       -0.55070
N         -4.37430        0.23390        0.12170
C         -5.01490       -0.83310       -0.51870
C         -5.05190       -0.93400       -1.90490
C         -5.75910       -1.94750       -2.52220
C         -6.45240       -2.87300       -1.75820
S         -7.45490       -4.15930       -2.43460
C         -7.17300       -4.04440       -4.22440
C         -6.39570       -2.79650       -0.36890
C         -5.67840       -1.79530        0.24430
C         -5.01770        0.87130        1.20450
C         -4.24980        1.43610        2.21880
C         -4.85310        2.07700        3.28410
C         -6.23770        2.16640        3.34510
S         -7.11020        2.96910        4.65430
C         -5.95040        2.87870        6.04930
C         -7.00740        1.62040        2.32070
C         -6.40640        0.97890        1.26160
C         -3.59560        2.39390       -0.79080
S         -4.81130        3.54010       -0.36500
C         -1.42740       -0.60190       -0.68940
C         -1.47980       -1.92030       -1.05460
N         -2.39510       -2.49880       -1.96000
C         -3.10570       -3.61750       -1.52540
C         -3.24910       -3.87520       -0.16080
C         -4.00200       -4.94070        0.27730
C         -4.63630       -5.78280       -0.62990
S         -5.56450       -7.12710        0.04300
C         -6.57450       -7.69090       -1.35630
C         -4.50850       -5.52940       -1.98730
C         -3.76590       -4.45100       -2.42610
C         -1.91460       -2.42130       -3.29730
C         -1.30790       -3.50980       -3.91440
C         -0.82160       -3.40850       -5.20410
C         -0.91110       -2.20380       -5.88800
S         -0.32420       -1.95180       -7.53420
C          0.42690       -3.54380       -7.98080
C         -1.49110       -1.10300       -5.26110
C         -1.98840       -1.21170       -3.98040
C         -0.38800       -2.65180       -0.51210
S          0.17820       -4.27160       -0.69320
C          1.56350       -3.91740        0.29460
C          1.59920       -2.60790        0.73500
N          2.63560       -2.03950        1.50260
C          2.47250       -2.07700        2.90620
C          1.25710       -1.70050        3.47310
C          1.07450       -1.76550        4.83750
C          2.09990       -2.20860        5.66730
S          1.75780       -2.23980        7.39970
C          3.17950       -3.12130        8.10510
C          3.31090       -2.59080        5.10620
C          3.49130       -2.53310        3.73910
C          3.86140       -1.75850        0.91870
C          4.82320       -1.01490        1.61300
C          6.09010       -0.85620        1.10340
C          6.43220       -1.42130       -0.12050
S          8.12560       -1.33750       -0.63610
C          8.29500       -2.86390       -1.60760
C          5.44290       -2.01340       -0.88830
C          4.16660       -2.16320       -0.38270
C          0.48070       -1.89360        0.25540
S         -0.02340       -0.24590        0.32310
C          2.69950       -4.81860        0.36860
C          3.29980       -5.17340        1.55900
F          2.64320       -4.99590        2.71450
C          4.59880       -5.69840        1.59930
F          5.11710       -6.01470        2.79080
C          5.32790       -5.91440        0.44480
C          4.65750       -5.74530       -0.79710
N          5.29930       -6.03380       -1.94150
C          4.69380       -5.82810       -3.08650
C          5.48810       -6.15500       -4.31460
C          6.30510       -4.93590       -4.75140
C          3.38370       -5.27250       -3.12570
N          2.75690       -4.96480       -2.01710
C          3.35310       -5.19720       -0.83660
C          2.61880       -5.04550       -4.39430
C          1.84620       -6.31440       -4.76520
C          6.73970       -6.22630        0.42850
C          7.66080       -5.53130        1.13120
C          7.38660       -4.25410        1.85720
O          6.30830       -3.75570        2.09920
C          8.70540       -3.67680        2.14960
C          8.95620       -2.45020        2.76150
C         10.29000       -2.15470        2.89860
C         11.30620       -3.01910        2.46440
C         11.07470       -4.23200        1.86240
C          9.72140       -4.55130        1.70760
C          9.10410       -5.73270        1.12200
C          9.75000       -6.85840        0.69010
C         11.14980       -7.03610        0.71490
N         12.27870       -7.24310        0.69970
C          9.10790       -8.00920        0.18260
N          8.66180       -8.98230       -0.23180
C         12.40160       -2.08950        2.92200
C         13.13610       -1.25350        1.84520
C         12.16710       -1.08510        0.70090
C         11.20220       -0.26820        1.10150
C         11.50300        0.13260        2.52510
C         13.03960        0.13960        2.48720
C         11.27020       -1.12500        3.39920
H         -4.13350        6.87580       -1.73370
H         -7.91710        9.72160        0.76880
H         -6.90190        5.80920        3.82920
H         -9.95540        7.21310        4.59060
H         -8.73040        7.94530        6.63140
H         -6.44760        8.91860        5.80720
H         -6.95060       11.01140        4.24940
H         -9.54320       11.32760        4.11490
H        -10.70920        9.55670        5.77390
H         -9.45620       10.49390        6.62600
H        -10.46340        9.25370        3.08910
H         -0.26740        7.34740       -2.45800
H         -0.75190        9.28790       -3.85130
H         -1.91320       11.33540       -4.21470
H         -0.85140       10.83790       -5.57420
H         -2.17290       11.99310       -5.84560
H         -4.31620        7.38760       -5.26240
H         -3.81300        5.42030       -3.86800
H         -0.52940        4.41940       -0.01280
H          1.69720        3.45070        0.21740
H          2.73160        1.28950       -0.27990
H          3.78180        2.47300        0.56150
H          4.50160        1.14010       -0.36370
H          2.36870        3.99220       -3.97210
H          0.11330        4.96840       -4.20470
H         -4.55190       -0.19490       -2.51210
H         -5.77580       -1.98270       -3.59960
H         -7.55730       -3.10180       -4.60300
H         -7.72670       -4.86830       -4.66400
H         -6.11340       -4.15240       -4.43600
H         -6.92220       -3.53010        0.22170
H         -5.64240       -1.73800        1.32140
H         -3.17220        1.37910        2.16820
H         -4.23630        2.50690        4.05740
H         -5.54130        1.87490        6.10750
H         -6.53860        3.09590        6.93540
H         -5.17030        3.62610        5.93030
H         -8.08170        1.70990        2.36630
H         -7.00930        0.55980        0.47010
H         -2.78400       -3.22440        0.56360
H         -4.10940       -5.12990        1.33420
H         -5.95080       -8.18380       -2.09680
H         -7.10520       -6.84350       -1.78020
H         -7.28030       -8.40290       -0.94030
H         -4.98960       -6.16170       -2.71630
H         -3.69860       -4.25410       -3.48600
H         -1.21130       -4.44310       -3.37890
H         -0.36980       -4.27540       -5.65730
H          0.81810       -3.40880       -8.98440
H          1.23810       -3.77540       -7.29670
H         -0.32700       -4.32580       -7.98340
H         -1.54730       -0.16500       -5.79180
H         -2.43060       -0.35490       -3.49870
H          0.45010       -1.35400        2.84720
H          0.13230       -1.47300        5.27490
H          4.08070       -2.52310        8.00460
H          3.28940       -4.08630        7.61930
H          2.94630       -3.25970        9.15630
H          4.12130       -2.95290        5.71760
H          4.42660       -2.86680        3.31580
H          4.57380       -0.57950        2.56780
H          6.83530       -0.30360        1.65460
H          9.35090       -3.11700       -1.59790
H          7.96670       -2.69550       -2.62980
H          7.71330       -3.65330       -1.13910
H          5.65760       -2.37520       -1.88270
H          3.40910       -2.60380       -1.01060
H          4.83480       -6.47570       -5.12520
H          6.17180       -6.96810       -4.06840
H          6.99910       -4.65590       -3.96230
H          6.87460       -5.16870       -5.64750
H          5.65850       -4.08590       -4.96160
H          1.91060       -4.23330       -4.22050
H          3.29190       -4.76510       -5.20500
H          2.51920       -7.16170       -4.87870
H          1.12720       -6.55020       -3.98460
H          1.31280       -6.17450       -5.70270
H          7.04090       -6.97470       -0.29210
H          8.14320       -1.82170        3.08770
H         11.86540       -4.88470        1.53140
H         13.07990       -2.49030        3.67260
H         14.12660       -1.61950        1.58840
H         12.24980       -1.60510       -0.23530
H         10.31670        0.02270        0.56870
H         11.00710        1.02990        2.88550
H         13.44050        0.92520        1.84870
H         13.49890        0.19630        3.47330
H         11.21470       -0.88850        4.46010
