
  xtb     02072209393D
 energy: -318.914392138265 gnorm: 0.000433084839 xtb: 6.4.1 (unknown)
185204  0     0  0            999 V2000
    4.9024    5.5255    0.0940 C   0  0  0  0  0  0  0  0  0  0  0  0
    4.5634    6.8601    0.0723 C   0  0  0  0  0  0  0  0  0  0  0  0
    3.5272    7.4382   -0.7999 C   0  0  0  0  0  0  0  0  0  0  0  0
    2.8764    6.8547   -1.6477 O   0  0  0  0  0  0  0  0  0  0  0  0
    3.5380    8.8892   -0.5270 C   0  0  0  0  0  0  0  0  0  0  0  0
    2.6886    9.8518   -1.0633 C   0  0  0  0  0  0  0  0  0  0  0  0
    2.8824   11.1150   -0.5573 C   0  0  0  0  0  0  0  0  0  0  0  0
    3.8645   11.4059    0.3974 C   0  0  0  0  0  0  0  0  0  0  0  0
    4.7266   10.4700    0.9160 C   0  0  0  0  0  0  0  0  0  0  0  0
    4.5336    9.1758    0.4277 C   0  0  0  0  0  0  0  0  0  0  0  0
    5.1993    7.9281    0.7940 C   0  0  0  0  0  0  0  0  0  0  0  0
    6.1360    7.7769    1.7889 C   0  0  0  0  0  0  0  0  0  0  0  0
    6.6476    6.5376    2.2212 C   0  0  0  0  0  0  0  0  0  0  0  0
    7.0804    5.5658    2.6561 N   0  0  0  0  0  0  0  0  0  0  0  0
    6.6457    8.8267    2.5734 C   0  0  0  0  0  0  0  0  0  0  0  0
    7.0776    9.6268    3.2771 N   0  0  0  0  0  0  0  0  0  0  0  0
    3.4853   12.8638    0.4628 C   0  0  0  0  0  0  0  0  0  0  0  0
    4.3906   13.8832   -0.2707 C   0  0  0  0  0  0  0  0  0  0  0  0
    5.0565   13.1311   -1.3962 C   0  0  0  0  0  0  0  0  0  0  0  0
    4.1290   12.8548   -2.3030 C   0  0  0  0  0  0  0  0  0  0  0  0
    2.8191   13.4160   -1.8076 C   0  0  0  0  0  0  0  0  0  0  0  0
    3.3233   14.6597   -1.0583 C   0  0  0  0  0  0  0  0  0  0  0  0
    2.3917   12.5407   -0.6037 C   0  0  0  0  0  0  0  0  0  0  0  0
    4.0509    4.4520   -0.1861 C   0  0  0  0  0  0  0  0  0  0  0  0
    2.6490    4.3216   -0.1561 C   0  0  0  0  0  0  0  0  0  0  0  0
    1.6925    5.2567    0.1497 N   0  0  0  0  0  0  0  0  0  0  0  0
    1.8420    6.3244    1.0247 C   0  0  0  0  0  0  0  0  0  0  0  0
    1.0600    7.4725    0.8475 C   0  0  0  0  0  0  0  0  0  0  0  0
    1.2259    8.5633    1.6652 C   0  0  0  0  0  0  0  0  0  0  0  0
    2.1767    8.5491    2.6875 C   0  0  0  0  0  0  0  0  0  0  0  0
    2.3540   10.0394    3.6060 S   0  0  0  0  0  0  0  0  0  0  0  0
    3.6712    9.6827    4.8014 C   0  0  0  0  0  0  0  0  0  0  0  0
    2.9118    7.3927    2.9095 C   0  0  0  0  0  0  0  0  0  0  0  0
    2.7466    6.2942    2.0861 C   0  0  0  0  0  0  0  0  0  0  0  0
    0.4396    5.0561   -0.4863 C   0  0  0  0  0  0  0  0  0  0  0  0
    0.3920    4.9695   -1.8762 C   0  0  0  0  0  0  0  0  0  0  0  0
   -0.7819    4.6167   -2.5026 C   0  0  0  0  0  0  0  0  0  0  0  0
   -1.9203    4.3425   -1.7489 C   0  0  0  0  0  0  0  0  0  0  0  0
   -3.3511    3.7834   -2.6195 S   0  0  0  0  0  0  0  0  0  0  0  0
   -4.2003    2.7743   -1.3697 C   0  0  0  0  0  0  0  0  0  0  0  0
   -1.8951    4.5141   -0.3707 C   0  0  0  0  0  0  0  0  0  0  0  0
   -0.7180    4.8705    0.2597 C   0  0  0  0  0  0  0  0  0  0  0  0
    2.2735    2.9858   -0.4517 C   0  0  0  0  0  0  0  0  0  0  0  0
    0.7415    2.1800   -0.5354 S   0  0  0  0  0  0  0  0  0  0  0  0
    1.5412    0.6695   -0.8478 C   0  0  0  0  0  0  0  0  0  0  0  0
    2.9159    0.7894   -0.9734 C   0  0  0  0  0  0  0  0  0  0  0  0
    3.7050   -0.2268   -1.4814 N   0  0  0  0  0  0  0  0  0  0  0  0
    5.0103   -0.4236   -1.0374 C   0  0  0  0  0  0  0  0  0  0  0  0
    5.3717   -0.0737    0.2611 C   0  0  0  0  0  0  0  0  0  0  0  0
    6.6747   -0.2193    0.6936 C   0  0  0  0  0  0  0  0  0  0  0  0
    7.6384   -0.7299   -0.1645 C   0  0  0  0  0  0  0  0  0  0  0  0
    9.3331   -0.9530    0.2778 S   0  0  0  0  0  0  0  0  0  0  0  0
    9.4913   -0.0411    1.8398 C   0  0  0  0  0  0  0  0  0  0  0  0
    7.2729   -1.1140   -1.4538 C   0  0  0  0  0  0  0  0  0  0  0  0
    5.9767   -0.9602   -1.8896 C   0  0  0  0  0  0  0  0  0  0  0  0
    3.1167   -1.0217   -2.4839 C   0  0  0  0  0  0  0  0  0  0  0  0
    2.3848   -0.4016   -3.4995 C   0  0  0  0  0  0  0  0  0  0  0  0
    1.6470   -1.1513   -4.3838 C   0  0  0  0  0  0  0  0  0  0  0  0
    1.6303   -2.5414   -4.2818 C   0  0  0  0  0  0  0  0  0  0  0  0
    0.5500   -3.3897   -5.3881 S   0  0  0  0  0  0  0  0  0  0  0  0
    0.6448   -5.1159   -4.8412 C   0  0  0  0  0  0  0  0  0  0  0  0
    2.4295   -3.1639   -3.3339 C   0  0  0  0  0  0  0  0  0  0  0  0
    3.1676   -2.4098   -2.4393 C   0  0  0  0  0  0  0  0  0  0  0  0
    3.3275    2.1159   -0.6942 C   0  0  0  0  0  0  0  0  0  0  0  0
    4.8495    2.9077   -0.5400 S   0  0  0  0  0  0  0  0  0  0  0  0
    0.7598   -0.5396   -0.9824 C   0  0  0  0  0  0  0  0  0  0  0  0
   -0.3856   -0.5754   -1.8162 C   0  0  0  0  0  0  0  0  0  0  0  0
   -0.7488    0.5474   -2.4751 N   0  0  0  0  0  0  0  0  0  0  0  0
   -1.7392    0.4797   -3.3080 C   0  0  0  0  0  0  0  0  0  0  0  0
   -2.4070   -0.7565   -3.5633 C   0  0  0  0  0  0  0  0  0  0  0  0
   -3.3497   -0.7770   -4.4916 O   0  0  0  0  0  0  0  0  0  0  0  0
   -3.9830   -2.0342   -4.7281 C   0  0  0  0  0  0  0  0  0  0  0  0
   -4.9825   -1.8529   -5.8549 C   0  0  0  0  0  0  0  0  0  0  0  0
   -2.1013   -1.8466   -2.9016 N   0  0  0  0  0  0  0  0  0  0  0  0
   -1.1143   -1.7771   -1.9873 C   0  0  0  0  0  0  0  0  0  0  0  0
   -0.8011   -2.9266   -1.2140 C   0  0  0  0  0  0  0  0  0  0  0  0
    0.3105   -2.8593   -0.3973 C   0  0  0  0  0  0  0  0  0  0  0  0
    1.0947   -1.7028   -0.3157 C   0  0  0  0  0  0  0  0  0  0  0  0
    2.1678   -1.7211    0.4967 F   0  0  0  0  0  0  0  0  0  0  0  0
    0.6385   -3.8808    0.4068 F   0  0  0  0  0  0  0  0  0  0  0  0
   -1.6704   -4.1035   -1.2535 C   0  0  0  0  0  0  0  0  0  0  0  0
   -3.0418   -3.9757   -1.1500 C   0  0  0  0  0  0  0  0  0  0  0  0
   -3.6116   -2.7721   -0.9895 F   0  0  0  0  0  0  0  0  0  0  0  0
   -3.8990   -5.0861   -1.1398 C   0  0  0  0  0  0  0  0  0  0  0  0
   -5.2192   -4.8519   -1.1305 F   0  0  0  0  0  0  0  0  0  0  0  0
   -3.4189   -6.3785   -1.1828 C   0  0  0  0  0  0  0  0  0  0  0  0
   -2.0130   -6.5426   -1.3077 C   0  0  0  0  0  0  0  0  0  0  0  0
   -1.5109   -7.7868   -1.3489 N   0  0  0  0  0  0  0  0  0  0  0  0
   -0.2138   -7.9589   -1.4200 C   0  0  0  0  0  0  0  0  0  0  0  0
    0.2445   -9.3855   -1.3934 C   0  0  0  0  0  0  0  0  0  0  0  0
   -0.0363  -10.0034   -0.0216 C   0  0  0  0  0  0  0  0  0  0  0  0
    0.6551   -6.8340   -1.5275 C   0  0  0  0  0  0  0  0  0  0  0  0
    0.1733   -5.6143   -1.5250 N   0  0  0  0  0  0  0  0  0  0  0  0
   -1.1480   -5.4209   -1.3594 C   0  0  0  0  0  0  0  0  0  0  0  0
    2.1447   -6.9464   -1.6347 C   0  0  0  0  0  0  0  0  0  0  0  0
    2.7621   -7.1782   -0.2535 C   0  0  0  0  0  0  0  0  0  0  0  0
   -4.2594   -7.5567   -1.1302 C   0  0  0  0  0  0  0  0  0  0  0  0
   -5.2779   -7.7371   -0.2651 C   0  0  0  0  0  0  0  0  0  0  0  0
   -5.5727   -6.8492    0.9022 C   0  0  0  0  0  0  0  0  0  0  0  0
   -4.9001   -5.9305    1.3102 O   0  0  0  0  0  0  0  0  0  0  0  0
   -6.7954   -7.3925    1.5138 C   0  0  0  0  0  0  0  0  0  0  0  0
   -7.4912   -6.8568    2.5958 C   0  0  0  0  0  0  0  0  0  0  0  0
   -8.6086   -7.5712    2.9523 C   0  0  0  0  0  0  0  0  0  0  0  0
   -9.0070   -8.7375    2.2820 C   0  0  0  0  0  0  0  0  0  0  0  0
   -8.3287   -9.2796    1.2180 C   0  0  0  0  0  0  0  0  0  0  0  0
   -7.1831   -8.5699    0.8394 C   0  0  0  0  0  0  0  0  0  0  0  0
   -6.2283   -8.8435   -0.2275 C   0  0  0  0  0  0  0  0  0  0  0  0
   -6.2284   -9.9415   -1.0431 C   0  0  0  0  0  0  0  0  0  0  0  0
   -7.1612  -10.9987   -0.9617 C   0  0  0  0  0  0  0  0  0  0  0  0
   -7.8767  -11.8961   -0.9524 N   0  0  0  0  0  0  0  0  0  0  0  0
   -5.2926  -10.2023   -2.0680 C   0  0  0  0  0  0  0  0  0  0  0  0
   -4.5798  -10.4962   -2.9188 N   0  0  0  0  0  0  0  0  0  0  0  0
  -10.2077   -8.9336    3.1724 C   0  0  0  0  0  0  0  0  0  0  0  0
  -10.1142  -10.0133    4.2790 C   0  0  0  0  0  0  0  0  0  0  0  0
   -8.6512  -10.1532    4.6201 C   0  0  0  0  0  0  0  0  0  0  0  0
   -8.2757   -9.0503    5.2539 C   0  0  0  0  0  0  0  0  0  0  0  0
   -9.4782   -8.1441    5.3525 C   0  0  0  0  0  0  0  0  0  0  0  0
  -10.5960   -9.1907    5.4848 C   0  0  0  0  0  0  0  0  0  0  0  0
   -9.7648   -7.6352    3.9178 C   0  0  0  0  0  0  0  0  0  0  0  0
    5.9159    5.2516    0.3609 H   0  0  0  0  0  0  0  0  0  0  0  0
    1.9400    9.5857   -1.7932 H   0  0  0  0  0  0  0  0  0  0  0  0
    5.4842   10.7114    1.6430 H   0  0  0  0  0  0  0  0  0  0  0  0
    3.1555   13.2210    1.4362 H   0  0  0  0  0  0  0  0  0  0  0  0
    5.0475   14.4545    0.3798 H   0  0  0  0  0  0  0  0  0  0  0  0
    6.0893   12.8353   -1.3904 H   0  0  0  0  0  0  0  0  0  0  0  0
    4.2319   12.2814   -3.2057 H   0  0  0  0  0  0  0  0  0  0  0  0
    2.0456   13.5626   -2.5572 H   0  0  0  0  0  0  0  0  0  0  0  0
    2.5668   15.1205   -0.4245 H   0  0  0  0  0  0  0  0  0  0  0  0
    3.7515   15.4079   -1.7239 H   0  0  0  0  0  0  0  0  0  0  0  0
    1.3506   12.6954   -0.3266 H   0  0  0  0  0  0  0  0  0  0  0  0
    0.3459    7.5058    0.0394 H   0  0  0  0  0  0  0  0  0  0  0  0
    0.6394    9.4556    1.5108 H   0  0  0  0  0  0  0  0  0  0  0  0
    4.6032    9.4734    4.2848 H   0  0  0  0  0  0  0  0  0  0  0  0
    3.7785   10.5871    5.3920 H   0  0  0  0  0  0  0  0  0  0  0  0
    3.3769    8.8581    5.4438 H   0  0  0  0  0  0  0  0  0  0  0  0
    3.6296    7.3334    3.7124 H   0  0  0  0  0  0  0  0  0  0  0  0
    3.3197    5.4001    2.2808 H   0  0  0  0  0  0  0  0  0  0  0  0
    1.2881    5.1718   -2.4413 H   0  0  0  0  0  0  0  0  0  0  0  0
   -0.8253    4.5255   -3.5765 H   0  0  0  0  0  0  0  0  0  0  0  0
   -4.9083    2.1574   -1.9141 H   0  0  0  0  0  0  0  0  0  0  0  0
   -3.4707    2.1481   -0.8652 H   0  0  0  0  0  0  0  0  0  0  0  0
   -4.7328    3.4064   -0.6650 H   0  0  0  0  0  0  0  0  0  0  0  0
   -2.7814    4.3531    0.2220 H   0  0  0  0  0  0  0  0  0  0  0  0
   -0.6872    4.9764    1.3341 H   0  0  0  0  0  0  0  0  0  0  0  0
    4.6217    0.2952    0.9436 H   0  0  0  0  0  0  0  0  0  0  0  0
    6.9199    0.0613    1.7047 H   0  0  0  0  0  0  0  0  0  0  0  0
   10.5533   -0.0265    2.0645 H   0  0  0  0  0  0  0  0  0  0  0  0
    9.1254    0.9730    1.7099 H   0  0  0  0  0  0  0  0  0  0  0  0
    8.9563   -0.5567    2.6323 H   0  0  0  0  0  0  0  0  0  0  0  0
    8.0246   -1.5212   -2.1124 H   0  0  0  0  0  0  0  0  0  0  0  0
    5.7055   -1.2402   -2.8965 H   0  0  0  0  0  0  0  0  0  0  0  0
    2.3721    0.6756   -3.5679 H   0  0  0  0  0  0  0  0  0  0  0  0
    1.0625   -0.6711   -5.1537 H   0  0  0  0  0  0  0  0  0  0  0  0
    1.6276   -5.5237   -5.0608 H   0  0  0  0  0  0  0  0  0  0  0  0
    0.4207   -5.1699   -3.7797 H   0  0  0  0  0  0  0  0  0  0  0  0
   -0.1093   -5.6498   -5.4113 H   0  0  0  0  0  0  0  0  0  0  0  0
    2.4653   -4.2378   -3.2637 H   0  0  0  0  0  0  0  0  0  0  0  0
    3.7606   -2.8984   -1.6805 H   0  0  0  0  0  0  0  0  0  0  0  0
   -2.0411    1.3849   -3.8141 H   0  0  0  0  0  0  0  0  0  0  0  0
   -4.4752   -2.3595   -3.8049 H   0  0  0  0  0  0  0  0  0  0  0  0
   -3.2158   -2.7730   -4.9863 H   0  0  0  0  0  0  0  0  0  0  0  0
   -5.7224   -1.1054   -5.5822 H   0  0  0  0  0  0  0  0  0  0  0  0
   -5.4851   -2.7950   -6.0530 H   0  0  0  0  0  0  0  0  0  0  0  0
   -4.4731   -1.5243   -6.7566 H   0  0  0  0  0  0  0  0  0  0  0  0
    1.3038   -9.4660   -1.6300 H   0  0  0  0  0  0  0  0  0  0  0  0
   -0.3276   -9.9364   -2.1427 H   0  0  0  0  0  0  0  0  0  0  0  0
    0.2652  -11.0476   -0.0130 H   0  0  0  0  0  0  0  0  0  0  0  0
   -1.0987   -9.9412    0.1982 H   0  0  0  0  0  0  0  0  0  0  0  0
    0.5083   -9.4772    0.7597 H   0  0  0  0  0  0  0  0  0  0  0  0
    2.5253   -6.0041   -2.0284 H   0  0  0  0  0  0  0  0  0  0  0  0
    2.4246   -7.7521   -2.3156 H   0  0  0  0  0  0  0  0  0  0  0  0
    2.4236   -8.1176    0.1755 H   0  0  0  0  0  0  0  0  0  0  0  0
    2.4800   -6.3687    0.4152 H   0  0  0  0  0  0  0  0  0  0  0  0
    3.8462   -7.2043   -0.3318 H   0  0  0  0  0  0  0  0  0  0  0  0
   -3.9826   -8.3345   -1.8287 H   0  0  0  0  0  0  0  0  0  0  0  0
   -7.1509   -5.9539    3.0781 H   0  0  0  0  0  0  0  0  0  0  0  0
   -8.6507  -10.1748    0.7129 H   0  0  0  0  0  0  0  0  0  0  0  0
  -11.1753   -8.9321    2.6749 H   0  0  0  0  0  0  0  0  0  0  0  0
  -10.6452  -10.9346    4.0559 H   0  0  0  0  0  0  0  0  0  0  0  0
   -8.0452  -10.9895    4.3245 H   0  0  0  0  0  0  0  0  0  0  0  0
   -7.2930   -8.7805    5.5939 H   0  0  0  0  0  0  0  0  0  0  0  0
   -9.4309   -7.3636    6.1072 H   0  0  0  0  0  0  0  0  0  0  0  0
  -10.5443   -9.7455    6.4203 H   0  0  0  0  0  0  0  0  0  0  0  0
  -11.5954   -8.7772    5.3569 H   0  0  0  0  0  0  0  0  0  0  0  0
  -10.4425   -6.7838    3.9067 H   0  0  0  0  0  0  0  0  0  0  0  0
  1  2  2  0  0  0  0
  2  3  1  0  0  0  0
  3  4  2  0  0  0  0
  3  5  1  0  0  0  0
  5  6  2  0  0  0  0
  6  7  1  0  0  0  0
  7  8  2  0  0  0  0
  8  9  1  0  0  0  0
  9 10  2  0  0  0  0
 10 11  1  0  0  0  0
 11 12  2  0  0  0  0
 12 13  1  0  0  0  0
 13 14  3  0  0  0  0
 12 15  1  0  0  0  0
 15 16  3  0  0  0  0
  8 17  1  0  0  0  0
 17 18  1  0  0  0  0
 18 19  1  0  0  0  0
 19 20  2  0  0  0  0
 20 21  1  0  0  0  0
 21 22  1  0  0  0  0
 21 23  1  0  0  0  0
  1 24  1  0  0  0  0
 24 25  2  0  0  0  0
 25 26  1  0  0  0  0
 26 27  1  0  0  0  0
 27 28  2  0  0  0  0
 28 29  1  0  0  0  0
 29 30  2  0  0  0  0
 30 31  1  0  0  0  0
 31 32  1  0  0  0  0
 30 33  1  0  0  0  0
 33 34  2  0  0  0  0
 26 35  1  0  0  0  0
 35 36  2  0  0  0  0
 36 37  1  0  0  0  0
 37 38  2  0  0  0  0
 38 39  1  0  0  0  0
 39 40  1  0  0  0  0
 38 41  1  0  0  0  0
 41 42  2  0  0  0  0
 25 43  1  0  0  0  0
 43 44  1  0  0  0  0
 44 45  1  0  0  0  0
 45 46  2  0  0  0  0
 46 47  1  0  0  0  0
 47 48  1  0  0  0  0
 48 49  2  0  0  0  0
 49 50  1  0  0  0  0
 50 51  2  0  0  0  0
 51 52  1  0  0  0  0
 52 53  1  0  0  0  0
 51 54  1  0  0  0  0
 54 55  2  0  0  0  0
 47 56  1  0  0  0  0
 56 57  2  0  0  0  0
 57 58  1  0  0  0  0
 58 59  2  0  0  0  0
 59 60  1  0  0  0  0
 60 61  1  0  0  0  0
 59 62  1  0  0  0  0
 62 63  2  0  0  0  0
 46 64  1  0  0  0  0
 64 65  1  0  0  0  0
 45 66  1  0  0  0  0
 66 67  1  0  0  0  0
 67 68  2  0  0  0  0
 68 69  1  0  0  0  0
 69 70  2  0  0  0  0
 70 71  1  0  0  0  0
 71 72  1  0  0  0  0
 72 73  1  0  0  0  0
 70 74  1  0  0  0  0
 74 75  2  0  0  0  0
 75 76  1  0  0  0  0
 76 77  2  0  0  0  0
 77 78  1  0  0  0  0
 78 79  1  0  0  0  0
 77 80  1  0  0  0  0
 76 81  1  0  0  0  0
 81 82  2  0  0  0  0
 82 83  1  0  0  0  0
 82 84  1  0  0  0  0
 84 85  1  0  0  0  0
 84 86  2  0  0  0  0
 86 87  1  0  0  0  0
 87 88  2  0  0  0  0
 88 89  1  0  0  0  0
 89 90  1  0  0  0  0
 90 91  1  0  0  0  0
 89 92  2  0  0  0  0
 92 93  1  0  0  0  0
 93 94  2  0  0  0  0
 92 95  1  0  0  0  0
 95 96  1  0  0  0  0
 86 97  1  0  0  0  0
 97 98  2  0  0  0  0
 98 99  1  0  0  0  0
 99100  2  0  0  0  0
 99101  1  0  0  0  0
101102  2  0  0  0  0
102103  1  0  0  0  0
103104  2  0  0  0  0
104105  1  0  0  0  0
105106  2  0  0  0  0
106107  1  0  0  0  0
107108  2  0  0  0  0
108109  1  0  0  0  0
109110  3  0  0  0  0
108111  1  0  0  0  0
111112  3  0  0  0  0
104113  1  0  0  0  0
113114  1  0  0  0  0
114115  1  0  0  0  0
115116  2  0  0  0  0
116117  1  0  0  0  0
117118  1  0  0  0  0
117119  1  0  0  0  0
 11  2  1  0  0  0  0
 23 17  1  0  0  0  0
 65 24  1  0  0  0  0
 78 66  2  0  0  0  0
 94 81  1  0  0  0  0
107 98  1  0  0  0  0
119113  1  0  0  0  0
 10  5  1  0  0  0  0
 22 18  1  0  0  0  0
 34 27  1  0  0  0  0
 42 35  1  0  0  0  0
 64 43  2  0  0  0  0
 75 67  1  0  0  0  0
 94 87  1  0  0  0  0
106101  1  0  0  0  0
118114  1  0  0  0  0
 23  7  1  0  0  0  0
 55 48  1  0  0  0  0
 63 56  1  0  0  0  0
119103  1  0  0  0  0
  1120  1  0  0  0  0
  6121  1  0  0  0  0
  9122  1  0  0  0  0
 17123  1  0  0  0  0
 18124  1  0  0  0  0
 19125  1  0  0  0  0
 20126  1  0  0  0  0
 21127  1  0  0  0  0
 22128  1  0  0  0  0
 22129  1  0  0  0  0
 23130  1  0  0  0  0
 28131  1  0  0  0  0
 29132  1  0  0  0  0
 32133  1  0  0  0  0
 32134  1  0  0  0  0
 32135  1  0  0  0  0
 33136  1  0  0  0  0
 34137  1  0  0  0  0
 36138  1  0  0  0  0
 37139  1  0  0  0  0
 40140  1  0  0  0  0
 40141  1  0  0  0  0
 40142  1  0  0  0  0
 41143  1  0  0  0  0
 42144  1  0  0  0  0
 49145  1  0  0  0  0
 50146  1  0  0  0  0
 53147  1  0  0  0  0
 53148  1  0  0  0  0
 53149  1  0  0  0  0
 54150  1  0  0  0  0
 55151  1  0  0  0  0
 57152  1  0  0  0  0
 58153  1  0  0  0  0
 61154  1  0  0  0  0
 61155  1  0  0  0  0
 61156  1  0  0  0  0
 62157  1  0  0  0  0
 63158  1  0  0  0  0
 69159  1  0  0  0  0
 72160  1  0  0  0  0
 72161  1  0  0  0  0
 73162  1  0  0  0  0
 73163  1  0  0  0  0
 73164  1  0  0  0  0
 90165  1  0  0  0  0
 90166  1  0  0  0  0
 91167  1  0  0  0  0
 91168  1  0  0  0  0
 91169  1  0  0  0  0
 95170  1  0  0  0  0
 95171  1  0  0  0  0
 96172  1  0  0  0  0
 96173  1  0  0  0  0
 96174  1  0  0  0  0
 97175  1  0  0  0  0
102176  1  0  0  0  0
105177  1  0  0  0  0
113178  1  0  0  0  0
114179  1  0  0  0  0
115180  1  0  0  0  0
116181  1  0  0  0  0
117182  1  0  0  0  0
118183  1  0  0  0  0
118184  1  0  0  0  0
119185  1  0  0  0  0
M  END
