
  xtb     02062206473D
 energy: -277.004613306363 gnorm: 0.000331091243 xtb: 6.4.1 (unknown)
157176  0     0  0            999 V2000
   -1.6002    1.7664   -7.2047 C   0  0  0  0  0  0  0  0  0  0  0  0
   -1.2008    1.6704   -8.5092 C   0  0  0  0  0  0  0  0  0  0  0  0
    0.1677    1.7367   -9.0686 C   0  0  0  0  0  0  0  0  0  0  0  0
    1.2312    1.7131   -8.4788 O   0  0  0  0  0  0  0  0  0  0  0  0
    0.0039    1.8229  -10.5297 C   0  0  0  0  0  0  0  0  0  0  0  0
    1.0174    1.9908  -11.4708 C   0  0  0  0  0  0  0  0  0  0  0  0
    0.5691    2.0696  -12.7668 C   0  0  0  0  0  0  0  0  0  0  0  0
   -0.7887    1.9820  -13.1034 C   0  0  0  0  0  0  0  0  0  0  0  0
   -1.7966    1.8042  -12.1860 C   0  0  0  0  0  0  0  0  0  0  0  0
   -1.3618    1.7243  -10.8598 C   0  0  0  0  0  0  0  0  0  0  0  0
   -2.1225    1.5411   -9.6272 C   0  0  0  0  0  0  0  0  0  0  0  0
   -3.4510    1.2120   -9.5647 C   0  0  0  0  0  0  0  0  0  0  0  0
   -4.2873    1.0655  -10.6920 C   0  0  0  0  0  0  0  0  0  0  0  0
   -5.0310    0.9380  -11.5575 N   0  0  0  0  0  0  0  0  0  0  0  0
   -4.1816    0.9172   -8.3949 C   0  0  0  0  0  0  0  0  0  0  0  0
   -4.8544    0.6422   -7.5050 N   0  0  0  0  0  0  0  0  0  0  0  0
   -0.5172    2.1652  -14.5754 C   0  0  0  0  0  0  0  0  0  0  0  0
   -0.8084    3.5551  -15.1936 C   0  0  0  0  0  0  0  0  0  0  0  0
   -0.6768    4.5583  -14.0747 C   0  0  0  0  0  0  0  0  0  0  0  0
    0.6078    4.6421  -13.7551 C   0  0  0  0  0  0  0  0  0  0  0  0
    1.3680    3.6970  -14.6524 C   0  0  0  0  0  0  0  0  0  0  0  0
    0.5192    3.7953  -15.9300 C   0  0  0  0  0  0  0  0  0  0  0  0
    0.9952    2.2630  -14.2004 C   0  0  0  0  0  0  0  0  0  0  0  0
   -0.8659    1.8151   -6.0050 C   0  0  0  0  0  0  0  0  0  0  0  0
    0.4872    1.8092   -5.7057 C   0  0  0  0  0  0  0  0  0  0  0  0
    0.7251    1.6771   -4.3469 C   0  0  0  0  0  0  0  0  0  0  0  0
    1.9617    1.5817   -3.8350 F   0  0  0  0  0  0  0  0  0  0  0  0
   -0.4056    1.5311   -3.5499 C   0  0  0  0  0  0  0  0  0  0  0  0
   -1.8151    1.7419   -4.5315 S   0  0  0  0  0  0  0  0  0  0  0  0
   -0.4600    1.1955   -2.1702 C   0  0  0  0  0  0  0  0  0  0  0  0
   -1.3584    0.3439   -1.5211 C   0  0  0  0  0  0  0  0  0  0  0  0
   -2.2965   -0.4639   -2.1245 N   0  0  0  0  0  0  0  0  0  0  0  0
   -2.1246   -0.9470   -3.4297 C   0  0  0  0  0  0  0  0  0  0  0  0
   -0.8642   -1.3047   -3.9039 C   0  0  0  0  0  0  0  0  0  0  0  0
   -0.6715   -1.5950   -5.2399 C   0  0  0  0  0  0  0  0  0  0  0  0
   -1.7442   -1.5531   -6.1229 C   0  0  0  0  0  0  0  0  0  0  0  0
   -1.5892   -1.7677   -7.8676 S   0  0  0  0  0  0  0  0  0  0  0  0
    0.2035   -1.7050   -8.1525 C   0  0  0  0  0  0  0  0  0  0  0  0
   -3.0261   -1.3169   -5.6295 C   0  0  0  0  0  0  0  0  0  0  0  0
   -3.2151   -1.0119   -4.3004 C   0  0  0  0  0  0  0  0  0  0  0  0
   -3.4458   -0.8303   -1.4029 C   0  0  0  0  0  0  0  0  0  0  0  0
   -3.9116   -2.1439   -1.4462 C   0  0  0  0  0  0  0  0  0  0  0  0
   -5.0120   -2.5097   -0.7061 C   0  0  0  0  0  0  0  0  0  0  0  0
   -5.6708   -1.5756    0.0931 C   0  0  0  0  0  0  0  0  0  0  0  0
   -7.0459   -2.1683    1.0225 S   0  0  0  0  0  0  0  0  0  0  0  0
   -7.4357   -0.7929    2.1419 C   0  0  0  0  0  0  0  0  0  0  0  0
   -5.2307   -0.2591    0.1096 C   0  0  0  0  0  0  0  0  0  0  0  0
   -4.1276    0.1089   -0.6358 C   0  0  0  0  0  0  0  0  0  0  0  0
   -1.1138    0.3392   -0.1250 C   0  0  0  0  0  0  0  0  0  0  0  0
   -1.8307   -0.4969    1.2141 S   0  0  0  0  0  0  0  0  0  0  0  0
   -0.7216    0.2972    2.3140 C   0  0  0  0  0  0  0  0  0  0  0  0
    0.2523    1.0540    1.6517 C   0  0  0  0  0  0  0  0  0  0  0  0
    1.4012    1.5539    2.2172 N   0  0  0  0  0  0  0  0  0  0  0  0
    1.9774    0.9585    3.3467 C   0  0  0  0  0  0  0  0  0  0  0  0
    2.5535    1.7498    4.3386 C   0  0  0  0  0  0  0  0  0  0  0  0
    2.9812    1.1899    5.5260 C   0  0  0  0  0  0  0  0  0  0  0  0
    2.8474   -0.1763    5.7402 C   0  0  0  0  0  0  0  0  0  0  0  0
    3.2716   -0.9509    7.2686 S   0  0  0  0  0  0  0  0  0  0  0  0
    3.0020    0.3914    8.4671 C   0  0  0  0  0  0  0  0  0  0  0  0
    2.3730   -0.9870    4.7106 C   0  0  0  0  0  0  0  0  0  0  0  0
    1.9475   -0.4264    3.5273 C   0  0  0  0  0  0  0  0  0  0  0  0
    1.9787    2.7081    1.6655 C   0  0  0  0  0  0  0  0  0  0  0  0
    3.3555    2.7880    1.4818 C   0  0  0  0  0  0  0  0  0  0  0  0
    3.9223    3.9101    0.9112 C   0  0  0  0  0  0  0  0  0  0  0  0
    3.1169    4.9703    0.5130 C   0  0  0  0  0  0  0  0  0  0  0  0
    3.7237    6.4437   -0.2384 S   0  0  0  0  0  0  0  0  0  0  0  0
    5.4660    6.0714   -0.5870 C   0  0  0  0  0  0  0  0  0  0  0  0
    1.7393    4.9015    0.7194 C   0  0  0  0  0  0  0  0  0  0  0  0
    1.1742    3.7845    1.2903 C   0  0  0  0  0  0  0  0  0  0  0  0
   -0.0261    1.1074    0.2656 C   0  0  0  0  0  0  0  0  0  0  0  0
    0.7433    1.8736   -1.0782 S   0  0  0  0  0  0  0  0  0  0  0  0
   -0.8714    0.1059    3.7106 C   0  0  0  0  0  0  0  0  0  0  0  0
   -0.5398    1.0849    4.6732 C   0  0  0  0  0  0  0  0  0  0  0  0
   -0.4388    0.7719    6.0810 C   0  0  0  0  0  0  0  0  0  0  0  0
   -0.0905    1.8408    6.7985 N   0  0  0  0  0  0  0  0  0  0  0  0
    0.0208    3.1149    5.8233 S   0  0  0  0  0  4  0  0  0  0  0  0
   -0.3042    2.3763    4.4353 N   0  0  0  0  0  0  0  0  0  0  0  0
   -0.6308   -0.5358    6.5795 C   0  0  0  0  0  0  0  0  0  0  0  0
   -1.2043   -1.4328    5.6555 C   0  0  0  0  0  0  0  0  0  0  0  0
   -1.7047   -2.6377    5.9251 N   0  0  0  0  0  0  0  0  0  0  0  0
   -2.2364   -3.3051    4.5703 S   0  0  0  0  0  0  0  0  0  0  0  0
   -1.8952   -2.1035    3.5596 N   0  0  0  0  0  0  0  0  0  0  0  0
   -1.3448   -1.1060    4.2520 C   0  0  0  0  0  0  0  0  0  0  0  0
   -0.2680   -0.8483    7.9140 C   0  0  0  0  0  0  0  0  0  0  0  0
    0.2539   -2.0310    8.3493 C   0  0  0  0  0  0  0  0  0  0  0  0
    0.8393   -3.0860    7.4869 C   0  0  0  0  0  0  0  0  0  0  0  0
    0.8292   -3.1653    6.2752 O   0  0  0  0  0  0  0  0  0  0  0  0
    1.5520   -3.9963    8.4047 C   0  0  0  0  0  0  0  0  0  0  0  0
    2.3044   -5.1128    8.0503 C   0  0  0  0  0  0  0  0  0  0  0  0
    2.8813   -5.7616    9.1154 C   0  0  0  0  0  0  0  0  0  0  0  0
    2.7222   -5.3326   10.4397 C   0  0  0  0  0  0  0  0  0  0  0  0
    1.9864   -4.2308   10.8036 C   0  0  0  0  0  0  0  0  0  0  0  0
    1.3946   -3.5543    9.7330 C   0  0  0  0  0  0  0  0  0  0  0  0
    0.5670   -2.3534    9.7268 C   0  0  0  0  0  0  0  0  0  0  0  0
    0.1175   -1.6807   10.8340 C   0  0  0  0  0  0  0  0  0  0  0  0
   -0.7530   -0.5704   10.8124 C   0  0  0  0  0  0  0  0  0  0  0  0
   -1.4706    0.3228   10.8960 N   0  0  0  0  0  0  0  0  0  0  0  0
    0.4451   -2.0187   12.1629 C   0  0  0  0  0  0  0  0  0  0  0  0
    0.6798   -2.2251   13.2682 N   0  0  0  0  0  0  0  0  0  0  0  0
    3.5916   -6.4368   10.9870 C   0  0  0  0  0  0  0  0  0  0  0  0
    5.0355   -6.0703   11.4107 C   0  0  0  0  0  0  0  0  0  0  0  0
    5.4289   -4.8680   10.5888 C   0  0  0  0  0  0  0  0  0  0  0  0
    5.5813   -5.2677    9.3334 C   0  0  0  0  0  0  0  0  0  0  0  0
    5.2962   -6.7486    9.2844 C   0  0  0  0  0  0  0  0  0  0  0  0
    5.8118   -7.1704   10.6696 C   0  0  0  0  0  0  0  0  0  0  0  0
    3.7724   -6.9123    9.5110 C   0  0  0  0  0  0  0  0  0  0  0  0
   -2.6704    1.7699   -7.0350 H   0  0  0  0  0  0  0  0  0  0  0  0
    2.0506    2.0547  -11.1666 H   0  0  0  0  0  0  0  0  0  0  0  0
   -2.8357    1.7423  -12.4623 H   0  0  0  0  0  0  0  0  0  0  0  0
   -0.8308    1.3491  -15.2232 H   0  0  0  0  0  0  0  0  0  0  0  0
   -1.7226    3.6059  -15.7788 H   0  0  0  0  0  0  0  0  0  0  0  0
   -1.5116    5.0463  -13.6066 H   0  0  0  0  0  0  0  0  0  0  0  0
    1.0605    5.2138  -12.9662 H   0  0  0  0  0  0  0  0  0  0  0  0
    2.4357    3.8779  -14.7455 H   0  0  0  0  0  0  0  0  0  0  0  0
    0.5708    4.7786  -16.3951 H   0  0  0  0  0  0  0  0  0  0  0  0
    0.7523    3.0272  -16.6663 H   0  0  0  0  0  0  0  0  0  0  0  0
    1.6707    1.5118  -14.6051 H   0  0  0  0  0  0  0  0  0  0  0  0
    1.2615    1.8607   -6.4491 H   0  0  0  0  0  0  0  0  0  0  0  0
   -0.0222   -1.3273   -3.2278 H   0  0  0  0  0  0  0  0  0  0  0  0
    0.3210   -1.8413   -5.5805 H   0  0  0  0  0  0  0  0  0  0  0  0
    0.6805   -2.5901   -7.7418 H   0  0  0  0  0  0  0  0  0  0  0  0
    0.6157   -0.7966   -7.7236 H   0  0  0  0  0  0  0  0  0  0  0  0
    0.3270   -1.6921   -9.2314 H   0  0  0  0  0  0  0  0  0  0  0  0
   -3.8644   -1.3201   -6.3079 H   0  0  0  0  0  0  0  0  0  0  0  0
   -4.2028   -0.7734   -3.9385 H   0  0  0  0  0  0  0  0  0  0  0  0
   -3.3954   -2.8729   -2.0522 H   0  0  0  0  0  0  0  0  0  0  0  0
   -5.3690   -3.5277   -0.7247 H   0  0  0  0  0  0  0  0  0  0  0  0
   -8.1910   -1.1741    2.8221 H   0  0  0  0  0  0  0  0  0  0  0  0
   -7.8378    0.0465    1.5821 H   0  0  0  0  0  0  0  0  0  0  0  0
   -6.5460   -0.5106    2.6967 H   0  0  0  0  0  0  0  0  0  0  0  0
   -5.7383    0.4920    0.6925 H   0  0  0  0  0  0  0  0  0  0  0  0
   -3.7930    1.1357   -0.6272 H   0  0  0  0  0  0  0  0  0  0  0  0
    2.6252    2.8176    4.1915 H   0  0  0  0  0  0  0  0  0  0  0  0
    3.3969    1.8297    6.2881 H   0  0  0  0  0  0  0  0  0  0  0  0
    2.0732    0.9022    8.2288 H   0  0  0  0  0  0  0  0  0  0  0  0
    2.9285   -0.0867    9.4391 H   0  0  0  0  0  0  0  0  0  0  0  0
    3.8428    1.0789    8.4640 H   0  0  0  0  0  0  0  0  0  0  0  0
    2.3053   -2.0520    4.8651 H   0  0  0  0  0  0  0  0  0  0  0  0
    1.5634   -1.0616    2.7435 H   0  0  0  0  0  0  0  0  0  0  0  0
    3.9817    1.9603    1.7804 H   0  0  0  0  0  0  0  0  0  0  0  0
    4.9911    3.9411    0.7762 H   0  0  0  0  0  0  0  0  0  0  0  0
    5.5341    5.1676   -1.1849 H   0  0  0  0  0  0  0  0  0  0  0  0
    6.0246    5.9784    0.3398 H   0  0  0  0  0  0  0  0  0  0  0  0
    5.8372    6.9190   -1.1547 H   0  0  0  0  0  0  0  0  0  0  0  0
    1.1232    5.7373    0.4259 H   0  0  0  0  0  0  0  0  0  0  0  0
    0.1101    3.7357    1.4642 H   0  0  0  0  0  0  0  0  0  0  0  0
   -0.3328   -0.0153    8.6042 H   0  0  0  0  0  0  0  0  0  0  0  0
    2.4020   -5.4100    7.0179 H   0  0  0  0  0  0  0  0  0  0  0  0
    1.8801   -3.9073   11.8257 H   0  0  0  0  0  0  0  0  0  0  0  0
    3.1133   -7.1188   11.6873 H   0  0  0  0  0  0  0  0  0  0  0  0
    5.1840   -5.9884   12.4841 H   0  0  0  0  0  0  0  0  0  0  0  0
    5.4949   -3.8699   10.9807 H   0  0  0  0  0  0  0  0  0  0  0  0
    5.7968   -4.6689    8.4680 H   0  0  0  0  0  0  0  0  0  0  0  0
    5.6844   -7.2840    8.4217 H   0  0  0  0  0  0  0  0  0  0  0  0
    6.8911   -7.0636   10.7680 H   0  0  0  0  0  0  0  0  0  0  0  0
    5.5143   -8.1785   10.9550 H   0  0  0  0  0  0  0  0  0  0  0  0
    3.4183   -7.9075    9.2485 H   0  0  0  0  0  0  0  0  0  0  0  0
  1  2  2  0  0  0  0
  2  3  1  0  0  0  0
  3  4  2  0  0  0  0
  3  5  1  0  0  0  0
  5  6  2  0  0  0  0
  6  7  1  0  0  0  0
  7  8  2  0  0  0  0
  8  9  1  0  0  0  0
  9 10  2  0  0  0  0
 10 11  1  0  0  0  0
 11 12  2  0  0  0  0
 12 13  1  0  0  0  0
 13 14  3  0  0  0  0
 12 15  1  0  0  0  0
 15 16  3  0  0  0  0
  8 17  1  0  0  0  0
 17 18  1  0  0  0  0
 18 19  1  0  0  0  0
 19 20  2  0  0  0  0
 20 21  1  0  0  0  0
 21 22  1  0  0  0  0
 21 23  1  0  0  0  0
  1 24  1  0  0  0  0
 24 25  2  0  0  0  0
 25 26  1  0  0  0  0
 26 27  1  0  0  0  0
 26 28  2  0  0  0  0
 28 29  1  0  0  0  0
 28 30  1  0  0  0  0
 30 31  2  0  0  0  0
 31 32  1  0  0  0  0
 32 33  1  0  0  0  0
 33 34  2  0  0  0  0
 34 35  1  0  0  0  0
 35 36  2  0  0  0  0
 36 37  1  0  0  0  0
 37 38  1  0  0  0  0
 36 39  1  0  0  0  0
 39 40  2  0  0  0  0
 32 41  1  0  0  0  0
 41 42  2  0  0  0  0
 42 43  1  0  0  0  0
 43 44  2  0  0  0  0
 44 45  1  0  0  0  0
 45 46  1  0  0  0  0
 44 47  1  0  0  0  0
 47 48  2  0  0  0  0
 31 49  1  0  0  0  0
 49 50  1  0  0  0  0
 50 51  1  0  0  0  0
 51 52  2  0  0  0  0
 52 53  1  0  0  0  0
 53 54  1  0  0  0  0
 54 55  2  0  0  0  0
 55 56  1  0  0  0  0
 56 57  2  0  0  0  0
 57 58  1  0  0  0  0
 58 59  1  0  0  0  0
 57 60  1  0  0  0  0
 60 61  2  0  0  0  0
 53 62  1  0  0  0  0
 62 63  2  0  0  0  0
 63 64  1  0  0  0  0
 64 65  2  0  0  0  0
 65 66  1  0  0  0  0
 66 67  1  0  0  0  0
 65 68  1  0  0  0  0
 68 69  2  0  0  0  0
 52 70  1  0  0  0  0
 70 71  1  0  0  0  0
 51 72  1  0  0  0  0
 72 73  2  0  0  0  0
 73 74  1  0  0  0  0
 74 75  1  0  0  0  0
 75 76  2  0  0  0  0
 76 77  2  0  0  0  0
 74 78  2  0  0  0  0
 78 79  1  0  0  0  0
 79 80  2  0  0  0  0
 80 81  1  0  0  0  0
 81 82  1  0  0  0  0
 82 83  2  0  0  0  0
 78 84  1  0  0  0  0
 84 85  2  0  0  0  0
 85 86  1  0  0  0  0
 86 87  2  0  0  0  0
 86 88  1  0  0  0  0
 88 89  2  0  0  0  0
 89 90  1  0  0  0  0
 90 91  2  0  0  0  0
 91 92  1  0  0  0  0
 92 93  2  0  0  0  0
 93 94  1  0  0  0  0
 94 95  2  0  0  0  0
 95 96  1  0  0  0  0
 96 97  3  0  0  0  0
 95 98  1  0  0  0  0
 98 99  3  0  0  0  0
 91100  1  0  0  0  0
100101  1  0  0  0  0
101102  1  0  0  0  0
102103  2  0  0  0  0
103104  1  0  0  0  0
104105  1  0  0  0  0
104106  1  0  0  0  0
 11  2  1  0  0  0  0
 23 17  1  0  0  0  0
 29 24  1  0  0  0  0
 71 30  1  0  0  0  0
 83 72  1  0  0  0  0
 94 85  1  0  0  0  0
106100  1  0  0  0  0
 10  5  1  0  0  0  0
 22 18  1  0  0  0  0
 40 33  1  0  0  0  0
 48 41  1  0  0  0  0
 70 49  2  0  0  0  0
 77 73  1  0  0  0  0
 83 79  1  0  0  0  0
 93 88  1  0  0  0  0
105101  1  0  0  0  0
 23  7  1  0  0  0  0
 61 54  1  0  0  0  0
 69 62  1  0  0  0  0
106 90  1  0  0  0  0
  1107  1  0  0  0  0
  6108  1  0  0  0  0
  9109  1  0  0  0  0
 17110  1  0  0  0  0
 18111  1  0  0  0  0
 19112  1  0  0  0  0
 20113  1  0  0  0  0
 21114  1  0  0  0  0
 22115  1  0  0  0  0
 22116  1  0  0  0  0
 23117  1  0  0  0  0
 25118  1  0  0  0  0
 34119  1  0  0  0  0
 35120  1  0  0  0  0
 38121  1  0  0  0  0
 38122  1  0  0  0  0
 38123  1  0  0  0  0
 39124  1  0  0  0  0
 40125  1  0  0  0  0
 42126  1  0  0  0  0
 43127  1  0  0  0  0
 46128  1  0  0  0  0
 46129  1  0  0  0  0
 46130  1  0  0  0  0
 47131  1  0  0  0  0
 48132  1  0  0  0  0
 55133  1  0  0  0  0
 56134  1  0  0  0  0
 59135  1  0  0  0  0
 59136  1  0  0  0  0
 59137  1  0  0  0  0
 60138  1  0  0  0  0
 61139  1  0  0  0  0
 63140  1  0  0  0  0
 64141  1  0  0  0  0
 67142  1  0  0  0  0
 67143  1  0  0  0  0
 67144  1  0  0  0  0
 68145  1  0  0  0  0
 69146  1  0  0  0  0
 84147  1  0  0  0  0
 89148  1  0  0  0  0
 92149  1  0  0  0  0
100150  1  0  0  0  0
101151  1  0  0  0  0
102152  1  0  0  0  0
103153  1  0  0  0  0
104154  1  0  0  0  0
105155  1  0  0  0  0
105156  1  0  0  0  0
106157  1  0  0  0  0
M  END
