187

C          4.91760        7.85100       -1.26780
C          6.00250        7.78660       -0.46620
C          6.46580        6.54630        0.22660
O          5.95600        5.44680        0.20440
C          7.75310        6.89720        0.84630
C          8.57030        6.05260        1.59620
C          9.73070        6.63950        2.03710
C         10.06680        7.96810        1.73800
C          9.27680        8.80940        0.99320
C          8.08070        8.23620        0.54720
C          7.00540        8.81960       -0.24500
C          6.91700       10.12450       -0.64400
C          7.89330       11.11020       -0.38190
N          8.64710       11.95870       -0.21080
C          5.83160       10.68450       -1.35330
N          4.98440       11.22180       -1.91090
C         11.36780        7.89300        2.49610
C         11.42570        8.56220        3.89150
C         10.01480        8.56020        4.42580
C          9.69290        7.30620        4.71380
C         10.88020        6.43740        4.37950
C         12.02640        7.40710        4.70840
C         10.99100        6.41610        2.83420
C          3.90440        6.82020       -1.29430
C          3.39100        6.27950       -0.08410
N          3.73530        6.83780        1.09770
C          3.29910        6.29230        2.18890
C          2.47170        5.12930        2.16000
O          2.10940        4.57420        3.30850
C          1.30710        3.39480        3.21610
C          0.98430        2.92770        4.62270
N          2.05130        4.63060        1.02500
C          2.49490        5.18690       -0.11960
C          2.05210        4.64610       -1.35640
C          2.48440        5.26210       -2.50970
C          3.39280        6.32860       -2.47920
F          3.83870        6.81830       -3.64840
F          2.10030        4.80210       -3.71180
C          1.19410        3.46130       -1.32980
C          1.60520        2.33240       -0.60670
C          2.88110        2.08180       -0.02220
C          2.98560        0.86700        0.55700
C          4.18980        0.25700        1.18560
C          4.87290       -0.70600        0.21130
S          1.50530       -0.05980        0.41850
C          0.74370        1.22400       -0.47700
C         -0.49970        1.16000       -1.09210
C         -0.90350        2.28420       -1.82680
C         -0.05050        3.40540       -1.94090
S         -0.78980        4.64960       -2.90700
C         -2.21910        3.67740       -3.14260
C         -3.32660        4.16400       -4.01240
C         -3.22410        3.54970       -5.41160
C         -2.13210        2.48280       -2.51570
C         -1.30450       -0.04780       -1.07650
C         -1.73930       -0.74850       -2.18570
N         -1.41120       -0.40830       -3.49290
C         -0.11680        0.08640       -3.73000
C          0.10370        1.18850       -4.55040
C          1.36700        1.73420       -4.67190
C          2.43380        1.18030       -3.97730
S          4.06520        1.85620       -3.97540
C          4.11540        2.84850       -5.49610
C          2.22830        0.04500       -3.19820
C          0.96990       -0.49870       -3.07980
C         -2.36690       -0.49500       -4.50380
C         -3.72580       -0.38990       -4.21310
C         -4.67650       -0.48530       -5.21090
C         -4.28560       -0.68260       -6.52670
S         -5.40930       -0.80160       -7.88430
C         -7.02500       -1.01660       -7.08380
C         -2.92770       -0.78170       -6.82590
C         -1.98130       -0.69610       -5.83110
C         -2.46050       -1.90510       -1.79990
S         -3.29710       -3.14100       -2.66040
C         -3.68120       -3.97430       -1.14380
C         -3.23880       -3.25080       -0.01890
N         -3.50650       -3.51180        1.29730
C         -4.63410       -4.21350        1.73210
C         -5.86870       -4.06890        1.10230
C         -6.95870       -4.81520        1.50180
C         -6.83380       -5.72940        2.54210
S         -8.12130       -6.80260        3.07740
C         -9.53350       -6.37660        2.02280
C         -5.61660       -5.83450        3.21420
C         -4.53200       -5.08470        2.81990
C         -2.60490       -3.01230        2.26120
C         -1.23640       -3.20060        2.09440
C         -0.33930       -2.61560        2.96480
C         -0.80530       -1.83340        4.01350
S          0.26080       -0.96480        5.11980
C          1.82270       -0.88640        4.19460
C         -2.17640       -1.71060        4.22810
C         -3.07260       -2.29580        3.36030
C         -2.52810       -2.09520       -0.42690
S         -1.72080       -0.82350        0.42920
C         -4.38780       -5.17610       -1.25020
C         -4.41640       -6.17960       -0.30680
C         -3.32640       -6.44770        0.64570
O         -2.28700       -5.82580        0.77090
C         -3.69430       -7.70460        1.33070
C         -2.97730       -8.36030        2.32600
C         -3.59780       -9.48630        2.81460
C         -4.83610       -9.93390        2.33940
C         -5.54500       -9.30790        1.34120
C         -4.93350       -8.15890        0.83810
C         -5.40000       -7.21650       -0.17480
C         -6.63950       -7.21550       -0.76890
C         -7.62660       -8.19760       -0.57080
N         -8.48940       -8.94790       -0.45330
C         -7.11640       -6.17110       -1.58430
N         -7.59730       -5.33210       -2.20570
C         -4.87250      -11.09960        3.29430
C         -5.77470      -10.97330        4.54650
C         -5.88440       -9.50060        4.85700
C         -4.70510       -9.09540        5.30950
C         -3.77580      -10.28350        5.30530
C         -4.77350      -11.40650        5.62960
C         -3.48650      -10.60790        3.81870
H          4.77200        8.68560       -1.94110
H          8.27750        5.03290        1.79210
H          9.55500        9.82450        0.76460
H         12.26950        8.06860        1.91300
H         11.94590        9.51570        3.91320
H          9.39560        9.43610        4.48400
H          8.75040        6.92480        5.06060
H         10.90460        5.45660        4.84700
H         12.99600        7.07390        4.34100
H         12.09390        7.63390        5.77120
H         11.64850        5.62610        2.47680
H          3.56420        6.75580        3.12810
H          1.86600        2.63480        2.65760
H          0.39790        3.62530        2.65020
H          1.90110        2.73370        5.17270
H          0.42100        3.69150        5.15150
H          0.39400        2.01710        4.58190
H          3.69600        2.78200       -0.06120
H          3.90780       -0.28510        2.09160
H          4.88420        1.05400        1.45900
H          4.19210       -1.50860       -0.06410
H          5.75740       -1.14140        0.66930
H          5.17130       -0.17650       -0.69080
H         -3.28460        5.25170       -4.08810
H         -4.28370        3.88420       -3.56570
H         -4.03150        3.91400       -6.04150
H         -3.28960        2.46460       -5.35790
H         -2.27730        3.82010       -5.87390
H         -2.92470        1.75790       -2.52860
H         -0.72590        1.64170       -5.07160
H          1.50080        2.61170       -5.28310
H          3.76600        2.24530       -6.32850
H          3.51930        3.74800       -5.38500
H          5.15820        3.11430       -5.63960
H          3.06610       -0.39780       -2.68160
H          0.81680       -1.37460       -2.46640
H         -4.05140       -0.22700       -3.19610
H         -5.71720       -0.39530       -4.94490
H         -7.32810       -0.09650       -6.59210
H         -6.97790       -1.84390       -6.38200
H         -7.71990       -1.24900       -7.88470
H         -2.62740       -0.93920       -7.85030
H         -0.93410       -0.79550       -6.07240
H         -5.97870       -3.37290        0.28420
H         -7.89390       -4.68310        0.98200
H        -10.34350       -7.02030        2.35120
H         -9.30320       -6.58720        0.98260
H         -9.80520       -5.33540        2.16930
H         -5.53060       -6.53350        4.03100
H         -3.58730       -5.18380        3.33230
H         -0.88850       -3.81510        1.27910
H          0.71570       -2.77010        2.80980
H          2.43220       -0.14660        4.70400
H          2.32240       -1.85070        4.21480
H          1.61470       -0.56970        3.17640
H         -2.52800       -1.12970        5.06690
H         -4.13530       -2.17680        3.51080
H         -4.92940       -5.32040       -2.17790
H         -2.02700       -7.98050        2.66820
H         -6.49190       -9.66980        0.97620
H         -4.92650      -12.08870        2.84350
H         -6.71220      -11.51880        4.48310
H         -6.76370       -8.91310        4.66550
H         -4.39870       -8.10240        5.58360
H         -2.89070      -10.20410        5.93160
H         -5.18150      -11.32960        6.63640
H         -4.36900      -12.40550        5.47190
H         -2.63280      -11.27220        3.69690
