108

C          4.35210       -1.43940       -3.71870
C          3.67020       -0.37480       -4.20530
C          2.27110       -0.04000       -3.81280
O          1.52220       -0.68290       -3.11030
C          1.92660        1.17470       -4.57440
C          0.73240        1.88980       -4.50300
C          0.67980        2.97780       -5.33930
C          1.73410        3.32390       -6.19690
C          2.91410        2.62540       -6.28130
C          2.99320        1.51670       -5.43130
C          4.08190        0.56500       -5.23370
C          5.30610        0.60900       -5.84470
C          6.37520       -0.27420       -5.58070
N          7.29900       -0.93470       -5.41370
C          5.68380        1.55990       -6.81630
N          6.05760        2.29990       -7.61040
C          0.99200        4.51010       -6.75890
C          0.34920        4.36140       -8.16020
C          0.05780        2.89300       -8.34690
C         -0.93800        2.57060       -7.53230
C         -1.33780        3.81560       -6.77930
C         -1.06450        4.88100       -7.85290
C         -0.17950        4.12820       -5.79990
C          3.97520       -2.11360       -2.50450
C          4.06420       -3.48940       -2.35030
F          4.48830       -4.22630       -3.39270
C          3.66030       -4.16140       -1.20650
C          3.17670       -3.45740       -0.11230
C          3.17880       -2.03270       -0.17150
N          2.83800       -1.31400        0.91660
C          2.82160       -0.02270        0.83720
C          3.19540        0.65000       -0.36340
O          3.17230        1.98010       -0.36640
C          3.52000        2.64680       -1.57710
C          5.01100        2.59270       -1.87900
N          3.57930       -0.02320       -1.41870
C          3.55920       -1.36850       -1.36400
C          2.65160       -4.14020        1.03730
C          2.75160       -5.47410        1.42430
C          2.03480       -5.59670        2.61070
C          1.52520       -4.32960        2.88710
O          1.91250       -3.47020        1.93170
C          0.69640       -3.87140        3.94890
C          0.31130       -2.51860        4.06590
C         -0.60350       -2.05190        5.08900
N         -0.75900       -0.72750        5.04040
S          0.09440       -0.15120        3.81350
N          0.73790       -1.51590        3.29640
C         -1.19440       -2.92180        6.02680
C         -0.72320       -4.24940        5.97550
N         -1.09220       -5.23280        6.79970
S         -0.36680       -6.58870        6.35580
N          0.44090       -6.02830        5.09000
C          0.18790       -4.72290        4.95200
C         -2.14980       -2.50870        6.99710
C         -3.08910       -1.54180        6.79860
C         -3.55570       -1.07790        5.46480
O         -3.20660       -1.47410        4.37290
C         -4.65730       -0.13610        5.73420
C         -5.39260        0.57500        4.78870
C         -6.37880        1.36650        5.32530
C         -6.62700        1.43560        6.70300
C         -5.91140        0.73780        7.64630
C         -4.89510       -0.06680        7.12160
C         -3.92980       -0.92380        7.80420
C         -3.78350       -1.04490        9.16180
C         -2.77880       -1.79950        9.80400
N         -1.98470       -2.36700       10.40910
C         -4.60350       -0.40650       10.11510
N         -5.23380        0.07500       10.94560
C         -7.76890        2.40510        6.52900
C         -9.21080        1.85030        6.63830
C         -9.14330        0.39510        6.24630
C         -8.90560        0.33710        4.94270
C         -8.80730        1.75260        4.42970
C         -9.81620        2.44760        5.35790
C         -7.48790        2.33380        4.99490
H          5.23830       -1.80860       -4.21840
H         -0.05490        1.58400       -3.83160
H          3.71200        2.90270       -6.94950
H          1.46880        5.47880       -6.62280
H          0.89870        4.84730       -8.96180
H          0.62530        2.24740       -8.99110
H         -1.36870        1.60180       -7.35940
H         -2.32430        3.80540       -6.32340
H         -1.73680        4.80120       -8.70550
H         -1.07840        5.89950       -7.46730
H         -0.46540        4.84620       -5.03370
H          3.69100       -5.23860       -1.20460
H          2.54940        0.53430        1.72130
H          3.19470        3.67760       -1.41870
H          2.95080        2.20620       -2.40250
H          5.57880        2.99060       -1.04160
H          5.32000        1.56670       -2.06120
H          5.22050        3.18840       -2.76320
H          3.28910       -6.24970        0.91850
H          1.88650       -6.47120        3.20920
H         -2.11770       -3.04970        7.93450
H         -5.17120        0.48740        3.73650
H         -6.11680        0.79950        8.70200
H         -7.65720        3.36750        7.02450
H         -9.70880        2.07120        7.57850
H         -9.21580       -0.41720        6.94550
H         -8.73940       -0.53320        4.33520
H         -8.93790        1.88570        3.35890
H        -10.84090        2.12240        5.18480
H         -9.76380        3.53490        5.31930
H         -7.18720        3.24980        4.48980
