163

C          0.26330        1.05230        7.95280
C          1.29200        0.23900        8.34560
C          2.38060       -0.24830        7.46730
O          2.52560       -0.07770        6.27220
C          3.36700       -0.88010        8.36610
C          4.56770       -1.48180        7.99540
C          5.29760       -1.97410        9.05050
C          4.87470       -1.86040       10.38130
C          3.69800       -1.26060       10.76230
C          2.93330       -0.76630        9.70120
C          1.63260       -0.10290        9.70840
C          0.82630        0.06410       10.80640
C          1.18510       -0.28460       12.12400
N          1.41630       -0.53610       13.22070
C         -0.49450        0.55200       10.76630
N         -1.59160        0.88830       10.82550
C          6.09310       -2.57320       10.91370
C          5.89700       -4.04300       11.34190
C          7.29910       -4.60780       11.35100
C          7.69720       -4.71950       10.09010
C          6.57080       -4.23180        9.20770
C          5.36640       -4.67480       10.04840
C          6.56250       -2.70400        9.42920
C         -0.18420        1.21800        6.61880
C         -0.75870        2.43250        6.17630
C         -1.14640        2.66730        4.79920
N         -1.58410        3.91540        4.61490
S         -1.53520        4.69840        6.01680
N         -0.94430        3.51520        6.92970
C         -1.00680        1.68030        3.80540
C         -0.49760        0.44710        4.26580
N         -0.40430       -0.66530        3.52660
S          0.05450       -1.87970        4.46260
N          0.15900       -1.08280        5.84850
C         -0.13370        0.20310        5.64020
C         -1.33800        1.82100        2.42330
C         -2.42090        2.40790        1.76510
N         -3.51090        3.01830        2.34320
C         -3.92650        2.72030        3.64430
C         -4.43430        3.73050        4.46220
C         -4.70380        3.47740        5.78820
C         -4.47160        2.21280        6.32840
S         -4.68580        2.02030        8.06340
C         -3.69600        0.54710        8.43280
C         -4.07690        1.17710        5.48650
C         -3.81900        1.42820        4.15530
C         -4.25750        3.91920        1.56720
C         -3.61550        4.88950        0.79650
C         -4.34620        5.70740       -0.03540
C         -5.73130        5.57790       -0.11140
S         -6.55130        6.61310       -1.28330
C         -8.31610        6.29670       -0.99530
C         -6.37900        4.65310        0.69700
C         -5.64580        3.83280        1.53100
C         -2.33770        2.17230        0.36780
S         -3.34550        2.56000       -0.98420
C         -2.28880        1.65640       -2.06860
C         -1.17470        1.12830       -1.40940
N         -0.13340        0.39080       -1.94510
C          0.50200       -0.49910       -1.04640
C          1.84400       -0.33070       -0.71670
C          2.39690       -1.05590        0.31870
C          1.61510       -1.95650        1.03120
S          2.22910       -2.75360        2.49070
C          3.17700       -1.39380        3.24400
C          0.31120       -2.21500        0.62590
C         -0.24370       -1.48750       -0.40660
C          0.49850        0.69780       -3.14920
C          0.46210        1.98040       -3.69490
C          1.03030        2.23650       -4.92730
C          1.65780        1.21730       -5.62960
S          2.37240        1.44890       -7.23090
C          1.33720        2.76690       -7.93320
C          1.75610       -0.04850       -5.05790
C          1.18010       -0.30990       -3.83620
C         -1.23960        1.42490       -0.02650
S         -0.25580        0.99240        1.31960
C         -2.70170        1.58050       -3.41670
S         -1.98710        0.56100       -4.62350
C         -3.03030        1.17270       -5.88540
C         -3.93530        2.08550       -5.34050
C         -3.76040        2.29670       -3.96740
O         -4.50740        3.18330       -3.24960
C         -5.18330        4.10140       -4.08950
C         -5.84930        3.36520       -5.25350
O         -4.88190        2.72450       -6.06830
C         -2.81350        0.95310       -7.25540
C         -1.89780        0.13740       -7.85700
C         -1.36700        0.49180       -9.19640
O         -1.84900        1.26800       -9.99310
C         -0.08010       -0.22640       -9.30080
C          0.87410       -0.10210      -10.30760
C          1.99800       -0.86840      -10.11260
C          2.16150       -1.70870       -9.00340
C          1.22290       -1.85420       -8.01070
C          0.08220       -1.06750       -8.17990
C         -1.10740       -0.95480       -7.34270
C         -1.51950       -1.86450       -6.40150
C         -0.72050       -2.90670       -5.89860
N         -0.09940       -3.74790       -5.42260
C         -2.83700       -1.88780       -5.89880
N         -3.91930       -1.97640       -5.52540
C          3.52660       -2.16670       -9.45090
C          3.64510       -3.57320      -10.08680
C          2.29710       -3.88330      -10.68900
C          2.13440       -3.09560      -11.74360
C          3.36940       -2.23870      -11.87370
C          4.43460       -3.21920      -11.35710
C          3.34020       -1.23800      -10.69190
H         -0.23040        1.67620        8.68880
H          4.86370       -1.53930        6.95930
H          3.39110       -1.16990       11.79090
H          6.71090       -2.00600       11.60730
H          5.30820       -4.17890       12.24480
H          7.85920       -4.80900       12.24520
H          8.65630       -5.03260        9.72090
H          6.59610       -4.54130        8.16620
H          4.41560       -4.26560        9.71210
H          5.29140       -5.75860       10.12050
H          7.49490       -2.22620        9.13340
H         -4.56090        4.72440        4.06130
H         -5.05840        4.26480        6.43520
H         -3.49320        0.58270        9.49900
H         -2.75850        0.59770        7.88610
H         -4.24890       -0.35480        8.18520
H         -3.96690        0.17230        5.86270
H         -3.51160        0.61900        3.50950
H         -2.54240        4.98900        0.85540
H         -3.85370        6.45060       -0.64310
H         -8.55650        5.26510       -1.23550
H         -8.84610        6.96450       -1.66740
H         -8.56940        6.53270        0.03380
H         -7.45110        4.54520        0.67410
H         -6.14980        3.09990        2.14320
H          2.43600        0.40150       -1.24530
H          3.42800       -0.89270        0.58980
H          4.19880       -1.39780        2.87640
H          2.68410       -0.45460        3.01290
H          3.16820       -1.55050        4.31850
H         -0.27280       -2.95310        1.15190
H         -1.27270       -1.64310       -0.69360
H         -0.02240        2.77930       -3.15340
H          0.98120        3.23530       -5.33130
H          1.63150        3.73510       -7.53850
H          1.50660        2.74060       -9.00490
H          0.29360        2.55620       -7.71950
H          2.27450       -0.82730       -5.59410
H          1.22810       -1.30290       -3.41620
H         -4.46950        4.83700       -4.48320
H         -5.91770        4.60740       -3.46270
H         -6.38330        4.05850       -5.90380
H         -6.54590        2.61500       -4.85760
H         -3.35070        1.63090       -7.91160
H          0.70950        0.55080      -11.15080
H          1.35130       -2.50620       -7.16230
H          4.34540       -1.94350       -8.77000
H          4.06420       -4.33210       -9.43150
H          1.59790       -4.58000      -10.26490
H          1.27150       -3.00290      -12.37690
H          3.53770       -1.78420      -12.84670
H          4.57640       -4.07370      -12.01720
H          5.39520       -2.74780      -11.15330
H          4.04340       -0.41790      -10.82330
