
  xtb     02082214563D
 energy: -357.456306538771 gnorm: 0.000758532803 xtb: 6.4.1 (unknown)
207229  0     0  0            999 V2000
   -1.7487   -6.6669   -6.4069 C   0  0  0  0  0  0  0  0  0  0  0  0
   -0.6966   -7.5566   -6.4001 C   0  0  0  0  0  0  0  0  0  0  0  0
    0.5426   -7.3851   -5.6477 C   0  0  0  0  0  0  0  0  0  0  0  0
    0.9322   -6.3747   -5.0778 O   0  0  0  0  0  0  0  0  0  0  0  0
    1.2329   -8.6814   -5.6710 C   0  0  0  0  0  0  0  0  0  0  0  0
    2.4192   -9.0117   -5.0191 C   0  0  0  0  0  0  0  0  0  0  0  0
    2.8016  -10.3197   -5.1962 C   0  0  0  0  0  0  0  0  0  0  0  0
    2.0631  -11.2287   -5.9650 C   0  0  0  0  0  0  0  0  0  0  0  0
    0.8977  -10.9094   -6.6236 C   0  0  0  0  0  0  0  0  0  0  0  0
    0.4869   -9.5846   -6.4560 C   0  0  0  0  0  0  0  0  0  0  0  0
   -0.6847   -8.8811   -6.9821 C   0  0  0  0  0  0  0  0  0  0  0  0
   -1.5629   -9.3770   -7.9112 C   0  0  0  0  0  0  0  0  0  0  0  0
   -1.5042  -10.6808   -8.4439 C   0  0  0  0  0  0  0  0  0  0  0  0
   -1.5196  -11.7305   -8.9094 N   0  0  0  0  0  0  0  0  0  0  0  0
   -2.6080   -8.6416   -8.5099 C   0  0  0  0  0  0  0  0  0  0  0  0
   -3.4559   -8.1051   -9.0682 N   0  0  0  0  0  0  0  0  0  0  0  0
    3.0143  -12.3647   -5.6793 C   0  0  0  0  0  0  0  0  0  0  0  0
    2.5546  -13.3985   -4.6293 C   0  0  0  0  0  0  0  0  0  0  0  0
    3.8355  -14.0823   -4.2086 C   0  0  0  0  0  0  0  0  0  0  0  0
    4.5344  -13.2190   -3.4825 C   0  0  0  0  0  0  0  0  0  0  0  0
    3.7385  -11.9366   -3.4010 C   0  0  0  0  0  0  0  0  0  0  0  0
    2.3155  -12.5103   -3.4013 C   0  0  0  0  0  0  0  0  0  0  0  0
    3.8388  -11.3489   -4.8248 C   0  0  0  0  0  0  0  0  0  0  0  0
   -1.8289   -5.4091   -5.8089 C   0  0  0  0  0  0  0  0  0  0  0  0
   -0.5214   -4.5134   -5.0647 S   0  0  0  0  0  0  0  0  0  0  0  0
   -1.5489   -3.1679   -4.6403 C   0  0  0  0  0  0  0  0  0  0  0  0
   -2.8582   -3.4244   -5.0236 C   0  0  0  0  0  0  0  0  0  0  0  0
   -4.3725   -2.6252   -4.7452 S   0  0  0  0  0  0  0  0  0  0  0  0
   -5.2175   -3.8971   -5.5766 C   0  0  0  0  0  0  0  0  0  0  0  0
   -6.6682   -3.7439   -5.7190 C   0  0  0  0  0  0  0  0  0  0  0  0
   -7.2608   -2.7641   -5.3309 O   0  0  0  0  0  0  0  0  0  0  0  0
   -7.2252   -4.7861   -6.3318 O   0  0  0  0  0  0  0  0  0  0  0  0
   -8.6394   -4.7473   -6.5217 C   0  0  0  0  0  0  0  0  0  0  0  0
   -9.3786   -5.2187   -5.2778 C   0  0  0  0  0  0  0  0  0  0  0  0
   -4.3772   -4.8921   -6.0071 C   0  0  0  0  0  0  0  0  0  0  0  0
   -3.0184   -4.6593   -5.6916 C   0  0  0  0  0  0  0  0  0  0  0  0
   -4.8003   -5.9827   -6.6432 F   0  0  0  0  0  0  0  0  0  0  0  0
   -0.9850   -2.1447   -3.8487 C   0  0  0  0  0  0  0  0  0  0  0  0
   -1.4780   -0.9018   -3.4446 C   0  0  0  0  0  0  0  0  0  0  0  0
   -2.5421   -0.2231   -3.9965 N   0  0  0  0  0  0  0  0  0  0  0  0
   -2.7550   -0.1577   -5.3773 C   0  0  0  0  0  0  0  0  0  0  0  0
   -4.0130    0.1968   -5.8665 C   0  0  0  0  0  0  0  0  0  0  0  0
   -4.2598    0.2445   -7.2226 C   0  0  0  0  0  0  0  0  0  0  0  0
   -3.2518   -0.0666   -8.1267 C   0  0  0  0  0  0  0  0  0  0  0  0
   -3.4508   -0.0665   -9.8776 S   0  0  0  0  0  0  0  0  0  0  0  0
   -5.2188    0.2665  -10.1168 C   0  0  0  0  0  0  0  0  0  0  0  0
   -1.9867   -0.3972   -7.6438 C   0  0  0  0  0  0  0  0  0  0  0  0
   -1.7376   -0.4369   -6.2906 C   0  0  0  0  0  0  0  0  0  0  0  0
   -3.2753    0.6088   -3.1262 C   0  0  0  0  0  0  0  0  0  0  0  0
   -3.4709    1.9594   -3.4085 C   0  0  0  0  0  0  0  0  0  0  0  0
   -4.1607    2.7533   -2.5211 C   0  0  0  0  0  0  0  0  0  0  0  0
   -4.6708    2.2168   -1.3390 C   0  0  0  0  0  0  0  0  0  0  0  0
   -5.5132    3.3332   -0.2706 S   0  0  0  0  0  0  0  0  0  0  0  0
   -6.3743    2.2560    0.9069 C   0  0  0  0  0  0  0  0  0  0  0  0
   -4.4772    0.8707   -1.0576 C   0  0  0  0  0  0  0  0  0  0  0  0
   -3.7827    0.0751   -1.9466 C   0  0  0  0  0  0  0  0  0  0  0  0
   -0.6665   -0.3628   -2.4149 C   0  0  0  0  0  0  0  0  0  0  0  0
   -0.7545    1.0448   -1.4191 S   0  0  0  0  0  0  0  0  0  0  0  0
    0.7639    0.6209   -0.6119 C   0  0  0  0  0  0  0  0  0  0  0  0
    1.3275   -0.5354   -1.1502 C   0  0  0  0  0  0  0  0  0  0  0  0
    2.5267   -1.1417   -0.8173 N   0  0  0  0  0  0  0  0  0  0  0  0
    2.6124   -2.5407   -0.9636 C   0  0  0  0  0  0  0  0  0  0  0  0
    3.6750   -3.1218   -1.6553 C   0  0  0  0  0  0  0  0  0  0  0  0
    3.7064   -4.4827   -1.8625 C   0  0  0  0  0  0  0  0  0  0  0  0
    2.6758   -5.2909   -1.3919 C   0  0  0  0  0  0  0  0  0  0  0  0
    2.7613   -7.0205   -1.7422 S   0  0  0  0  0  0  0  0  0  0  0  0
    1.0071   -7.4594   -1.9147 C   0  0  0  0  0  0  0  0  0  0  0  0
    1.6406   -4.7242   -0.6609 C   0  0  0  0  0  0  0  0  0  0  0  0
    1.6119   -3.3603   -0.4462 C   0  0  0  0  0  0  0  0  0  0  0  0
    3.7110   -0.4174   -0.6481 C   0  0  0  0  0  0  0  0  0  0  0  0
    3.9339    0.7883   -1.3086 C   0  0  0  0  0  0  0  0  0  0  0  0
    5.0949    1.5050   -1.0887 C   0  0  0  0  0  0  0  0  0  0  0  0
    6.0529    1.0243   -0.2079 C   0  0  0  0  0  0  0  0  0  0  0  0
    7.5508    1.8813    0.1609 S   0  0  0  0  0  0  0  0  0  0  0  0
    7.1248    3.6135   -0.1639 C   0  0  0  0  0  0  0  0  0  0  0  0
    5.8538   -0.2057    0.4159 C   0  0  0  0  0  0  0  0  0  0  0  0
    4.6992   -0.9188    0.2018 C   0  0  0  0  0  0  0  0  0  0  0  0
    0.4714   -1.0978   -2.1322 C   0  0  0  0  0  0  0  0  0  0  0  0
    0.5667   -2.5217   -3.1073 S   0  0  0  0  0  0  0  0  0  0  0  0
    1.1258    1.4743    0.4703 C   0  0  0  0  0  0  0  0  0  0  0  0
    0.2886    2.4057    1.0327 C   0  0  0  0  0  0  0  0  0  0  0  0
    0.8560    3.1361    2.0995 C   0  0  0  0  0  0  0  0  0  0  0  0
    0.2713    4.1643    2.8587 C   0  0  0  0  0  0  0  0  0  0  0  0
   -1.1394    4.5395    2.7124 C   0  0  0  0  0  0  0  0  0  0  0  0
   -2.1437    3.5725    2.7432 C   0  0  0  0  0  0  0  0  0  0  0  0
   -3.4692    3.9375    2.6732 C   0  0  0  0  0  0  0  0  0  0  0  0
   -3.8590    5.2724    2.5625 C   0  0  0  0  0  0  0  0  0  0  0  0
   -5.5975    5.5791    2.5541 S   0  0  0  0  0  0  0  0  0  0  0  0
   -5.8367    7.1165    1.5937 C   0  0  0  0  0  0  0  0  0  0  0  0
   -5.3236    6.9971    0.1739 C   0  0  0  0  0  0  0  0  0  0  0  0
   -2.8460    6.2258    2.5419 C   0  0  0  0  0  0  0  0  0  0  0  0
   -3.1286    7.5447    2.4624 F   0  0  0  0  0  0  0  0  0  0  0  0
   -1.5127    5.8747    2.6074 C   0  0  0  0  0  0  0  0  0  0  0  0
    1.0800    4.7835    3.8029 C   0  0  0  0  0  0  0  0  0  0  0  0
    2.4461    4.4400    3.9865 C   0  0  0  0  0  0  0  0  0  0  0  0
    3.0432    3.4233    3.2065 C   0  0  0  0  0  0  0  0  0  0  0  0
    4.4811    3.1541    3.2960 C   0  0  0  0  0  0  0  0  0  0  0  0
    5.0004    1.8692    3.4175 C   0  0  0  0  0  0  0  0  0  0  0  0
    6.3624    1.6535    3.5182 C   0  0  0  0  0  0  0  0  0  0  0  0
    7.2600    2.7148    3.4805 C   0  0  0  0  0  0  0  0  0  0  0  0
    9.0072    2.6178    3.6388 S   0  0  0  0  0  0  0  0  0  0  0  0
    9.3486    0.8657    4.0161 C   0  0  0  0  0  0  0  0  0  0  0  0
    9.4631    0.0159    2.7653 C   0  0  0  0  0  0  0  0  0  0  0  0
    6.7256    3.9949    3.3100 C   0  0  0  0  0  0  0  0  0  0  0  0
    5.3736    4.2261    3.2296 C   0  0  0  0  0  0  0  0  0  0  0  0
    7.5656    5.0468    3.2163 F   0  0  0  0  0  0  0  0  0  0  0  0
    2.2084    2.7627    2.3258 C   0  0  0  0  0  0  0  0  0  0  0  0
    2.6842    1.4523    1.2766 S   0  0  0  0  0  0  0  0  0  0  0  0
    3.0180    5.1685    5.0409 C   0  0  0  0  0  0  0  0  0  0  0  0
    2.1473    6.0458    5.6609 C   0  0  0  0  0  0  0  0  0  0  0  0
    0.5565    6.0068    4.9280 S   0  0  0  0  0  0  0  0  0  0  0  0
    2.5551    6.8327    6.7603 C   0  0  0  0  0  0  0  0  0  0  0  0
    1.8622    7.7364    7.5125 C   0  0  0  0  0  0  0  0  0  0  0  0
    0.4583    8.1425    7.3139 C   0  0  0  0  0  0  0  0  0  0  0  0
   -0.3209    7.7311    6.4760 O   0  0  0  0  0  0  0  0  0  0  0  0
    0.1764    9.1621    8.3369 C   0  0  0  0  0  0  0  0  0  0  0  0
   -1.0253    9.8396    8.5307 C   0  0  0  0  0  0  0  0  0  0  0  0
   -0.9975   10.7410    9.5670 C   0  0  0  0  0  0  0  0  0  0  0  0
    0.1459   10.9594   10.3480 C   0  0  0  0  0  0  0  0  0  0  0  0
    1.3378   10.3002   10.1649 C   0  0  0  0  0  0  0  0  0  0  0  0
    1.3293    9.3695    9.1213 C   0  0  0  0  0  0  0  0  0  0  0  0
    2.3872    8.4816    8.6448 C   0  0  0  0  0  0  0  0  0  0  0  0
    3.6351    8.3688    9.2009 C   0  0  0  0  0  0  0  0  0  0  0  0
    4.6562    7.4910    8.7791 C   0  0  0  0  0  0  0  0  0  0  0  0
    5.5398    6.8040    8.5190 N   0  0  0  0  0  0  0  0  0  0  0  0
    4.0870    9.1148   10.3103 C   0  0  0  0  0  0  0  0  0  0  0  0
    4.5289    9.6793   11.2072 N   0  0  0  0  0  0  0  0  0  0  0  0
   -0.5405   11.9910   11.2072 C   0  0  0  0  0  0  0  0  0  0  0  0
   -0.9992   11.5590   12.6220 C   0  0  0  0  0  0  0  0  0  0  0  0
   -1.2333   10.0699   12.5609 C   0  0  0  0  0  0  0  0  0  0  0  0
   -2.3158    9.8602   11.8238 C   0  0  0  0  0  0  0  0  0  0  0  0
   -2.8336   11.2039   11.3733 C   0  0  0  0  0  0  0  0  0  0  0  0
   -2.4510   12.0628   12.5893 C   0  0  0  0  0  0  0  0  0  0  0  0
   -1.8151   11.7455   10.3395 C   0  0  0  0  0  0  0  0  0  0  0  0
   -2.6614   -6.9882   -6.8936 H   0  0  0  0  0  0  0  0  0  0  0  0
    2.9566   -8.2828   -4.4326 H   0  0  0  0  0  0  0  0  0  0  0  0
    0.3424  -11.6205   -7.2122 H   0  0  0  0  0  0  0  0  0  0  0  0
    3.4856  -12.8206   -6.5477 H   0  0  0  0  0  0  0  0  0  0  0  0
    1.7391  -14.0411   -4.9500 H   0  0  0  0  0  0  0  0  0  0  0  0
    4.1169  -15.0715   -4.5187 H   0  0  0  0  0  0  0  0  0  0  0  0
    5.5165  -13.3431   -3.0652 H   0  0  0  0  0  0  0  0  0  0  0  0
    4.0005  -11.2448   -2.6050 H   0  0  0  0  0  0  0  0  0  0  0  0
    1.5354  -11.7638   -3.5392 H   0  0  0  0  0  0  0  0  0  0  0  0
    2.1067  -13.0936   -2.5060 H   0  0  0  0  0  0  0  0  0  0  0  0
    4.8612  -11.1256   -5.1226 H   0  0  0  0  0  0  0  0  0  0  0  0
   -8.9354   -3.7233   -6.7735 H   0  0  0  0  0  0  0  0  0  0  0  0
   -8.8254   -5.4116   -7.3675 H   0  0  0  0  0  0  0  0  0  0  0  0
   -9.0478   -6.2169   -5.0016 H   0  0  0  0  0  0  0  0  0  0  0  0
   -9.1868   -4.5391   -4.4507 H   0  0  0  0  0  0  0  0  0  0  0  0
  -10.4463   -5.2396   -5.4759 H   0  0  0  0  0  0  0  0  0  0  0  0
   -4.8125    0.4143   -5.1755 H   0  0  0  0  0  0  0  0  0  0  0  0
   -5.2479    0.5142   -7.5573 H   0  0  0  0  0  0  0  0  0  0  0  0
   -5.8092   -0.4936   -9.6138 H   0  0  0  0  0  0  0  0  0  0  0  0
   -5.3830    0.2119  -11.1886 H   0  0  0  0  0  0  0  0  0  0  0  0
   -5.4643    1.2616   -9.7573 H   0  0  0  0  0  0  0  0  0  0  0  0
   -1.1985   -0.6194   -8.3465 H   0  0  0  0  0  0  0  0  0  0  0  0
   -0.7456   -0.6797   -5.9430 H   0  0  0  0  0  0  0  0  0  0  0  0
   -3.0729    2.3776   -4.3206 H   0  0  0  0  0  0  0  0  0  0  0  0
   -4.3091    3.8019   -2.7273 H   0  0  0  0  0  0  0  0  0  0  0  0
   -7.0350    1.5828    0.3689 H   0  0  0  0  0  0  0  0  0  0  0  0
   -5.6600    1.7052    1.5114 H   0  0  0  0  0  0  0  0  0  0  0  0
   -6.9497    2.9248    1.5400 H   0  0  0  0  0  0  0  0  0  0  0  0
   -4.8625    0.4304   -0.1524 H   0  0  0  0  0  0  0  0  0  0  0  0
   -3.6326   -0.9731   -1.7339 H   0  0  0  0  0  0  0  0  0  0  0  0
    4.4593   -2.4957   -2.0533 H   0  0  0  0  0  0  0  0  0  0  0  0
    4.5160   -4.9308   -2.4167 H   0  0  0  0  0  0  0  0  0  0  0  0
    0.5337   -6.7349   -2.5705 H   0  0  0  0  0  0  0  0  0  0  0  0
    0.5221   -7.4970   -0.9437 H   0  0  0  0  0  0  0  0  0  0  0  0
    0.9879   -8.4445   -2.3711 H   0  0  0  0  0  0  0  0  0  0  0  0
    0.8509   -5.3372   -0.2565 H   0  0  0  0  0  0  0  0  0  0  0  0
    0.8005   -2.9196    0.1149 H   0  0  0  0  0  0  0  0  0  0  0  0
    3.1907    1.1700   -1.9932 H   0  0  0  0  0  0  0  0  0  0  0  0
    5.2428    2.4366   -1.6115 H   0  0  0  0  0  0  0  0  0  0  0  0
    7.8824    4.2051    0.3410 H   0  0  0  0  0  0  0  0  0  0  0  0
    7.1492    3.8179   -1.2306 H   0  0  0  0  0  0  0  0  0  0  0  0
    6.1461    3.8226    0.2576 H   0  0  0  0  0  0  0  0  0  0  0  0
    6.6121   -0.5904    1.0793 H   0  0  0  0  0  0  0  0  0  0  0  0
    4.5393   -1.8604    0.7045 H   0  0  0  0  0  0  0  0  0  0  0  0
   -0.7116    2.5749    0.6741 H   0  0  0  0  0  0  0  0  0  0  0  0
   -1.8789    2.5317    2.8526 H   0  0  0  0  0  0  0  0  0  0  0  0
   -4.2432    3.1888    2.7220 H   0  0  0  0  0  0  0  0  0  0  0  0
   -6.9194    7.2464    1.6091 H   0  0  0  0  0  0  0  0  0  0  0  0
   -5.3738    7.9417    2.1301 H   0  0  0  0  0  0  0  0  0  0  0  0
   -5.7838    6.1496   -0.3285 H   0  0  0  0  0  0  0  0  0  0  0  0
   -5.5602    7.9061   -0.3755 H   0  0  0  0  0  0  0  0  0  0  0  0
   -4.2449    6.8592    0.1602 H   0  0  0  0  0  0  0  0  0  0  0  0
   -0.7749    6.6608    2.5791 H   0  0  0  0  0  0  0  0  0  0  0  0
    4.3304    1.0243    3.4621 H   0  0  0  0  0  0  0  0  0  0  0  0
    6.7186    0.6428    3.6280 H   0  0  0  0  0  0  0  0  0  0  0  0
    8.5775    0.5101    4.6978 H   0  0  0  0  0  0  0  0  0  0  0  0
   10.2983    0.8948    4.5508 H   0  0  0  0  0  0  0  0  0  0  0  0
   10.2841    0.3688    2.1464 H   0  0  0  0  0  0  0  0  0  0  0  0
    8.5547    0.0716    2.1712 H   0  0  0  0  0  0  0  0  0  0  0  0
    9.6495   -1.0219    3.0356 H   0  0  0  0  0  0  0  0  0  0  0  0
    5.0197    5.2362    3.0927 H   0  0  0  0  0  0  0  0  0  0  0  0
    4.0333    5.0399    5.3731 H   0  0  0  0  0  0  0  0  0  0  0  0
    3.5920    6.6655    7.0265 H   0  0  0  0  0  0  0  0  0  0  0  0
   -1.8788    9.6429    7.9009 H   0  0  0  0  0  0  0  0  0  0  0  0
    2.2070   10.4847   10.7734 H   0  0  0  0  0  0  0  0  0  0  0  0
   -0.1017   12.9867   11.1993 H   0  0  0  0  0  0  0  0  0  0  0  0
   -0.3638   11.9121   13.4296 H   0  0  0  0  0  0  0  0  0  0  0  0
   -0.5753    9.3421   12.9984 H   0  0  0  0  0  0  0  0  0  0  0  0
   -2.7431    8.9218   11.5219 H   0  0  0  0  0  0  0  0  0  0  0  0
   -3.8692   11.2338   11.0450 H   0  0  0  0  0  0  0  0  0  0  0  0
   -2.5349   13.1335   12.4082 H   0  0  0  0  0  0  0  0  0  0  0  0
   -3.0093   11.7963   13.4854 H   0  0  0  0  0  0  0  0  0  0  0  0
   -2.2109   12.5815    9.7661 H   0  0  0  0  0  0  0  0  0  0  0  0
  1  2  2  0  0  0  0
  2  3  1  0  0  0  0
  3  4  2  0  0  0  0
  3  5  1  0  0  0  0
  5  6  2  0  0  0  0
  6  7  1  0  0  0  0
  7  8  2  0  0  0  0
  8  9  1  0  0  0  0
  9 10  2  0  0  0  0
 10 11  1  0  0  0  0
 11 12  2  0  0  0  0
 12 13  1  0  0  0  0
 13 14  3  0  0  0  0
 12 15  1  0  0  0  0
 15 16  3  0  0  0  0
  8 17  1  0  0  0  0
 17 18  1  0  0  0  0
 18 19  1  0  0  0  0
 19 20  2  0  0  0  0
 20 21  1  0  0  0  0
 21 22  1  0  0  0  0
 21 23  1  0  0  0  0
  1 24  1  0  0  0  0
 24 25  1  0  0  0  0
 25 26  1  0  0  0  0
 26 27  2  0  0  0  0
 27 28  1  0  0  0  0
 28 29  1  0  0  0  0
 29 30  1  0  0  0  0
 30 31  2  0  0  0  0
 30 32  1  0  0  0  0
 32 33  1  0  0  0  0
 33 34  1  0  0  0  0
 29 35  2  0  0  0  0
 35 36  1  0  0  0  0
 35 37  1  0  0  0  0
 26 38  1  0  0  0  0
 38 39  2  0  0  0  0
 39 40  1  0  0  0  0
 40 41  1  0  0  0  0
 41 42  2  0  0  0  0
 42 43  1  0  0  0  0
 43 44  2  0  0  0  0
 44 45  1  0  0  0  0
 45 46  1  0  0  0  0
 44 47  1  0  0  0  0
 47 48  2  0  0  0  0
 40 49  1  0  0  0  0
 49 50  2  0  0  0  0
 50 51  1  0  0  0  0
 51 52  2  0  0  0  0
 52 53  1  0  0  0  0
 53 54  1  0  0  0  0
 52 55  1  0  0  0  0
 55 56  2  0  0  0  0
 39 57  1  0  0  0  0
 57 58  1  0  0  0  0
 58 59  1  0  0  0  0
 59 60  2  0  0  0  0
 60 61  1  0  0  0  0
 61 62  1  0  0  0  0
 62 63  2  0  0  0  0
 63 64  1  0  0  0  0
 64 65  2  0  0  0  0
 65 66  1  0  0  0  0
 66 67  1  0  0  0  0
 65 68  1  0  0  0  0
 68 69  2  0  0  0  0
 61 70  1  0  0  0  0
 70 71  2  0  0  0  0
 71 72  1  0  0  0  0
 72 73  2  0  0  0  0
 73 74  1  0  0  0  0
 74 75  1  0  0  0  0
 73 76  1  0  0  0  0
 76 77  2  0  0  0  0
 60 78  1  0  0  0  0
 78 79  1  0  0  0  0
 59 80  1  0  0  0  0
 80 81  2  0  0  0  0
 81 82  1  0  0  0  0
 82 83  2  0  0  0  0
 83 84  1  0  0  0  0
 84 85  2  0  0  0  0
 85 86  1  0  0  0  0
 86 87  2  0  0  0  0
 87 88  1  0  0  0  0
 88 89  1  0  0  0  0
 89 90  1  0  0  0  0
 87 91  1  0  0  0  0
 91 92  1  0  0  0  0
 91 93  2  0  0  0  0
 83 94  1  0  0  0  0
 94 95  2  0  0  0  0
 95 96  1  0  0  0  0
 96 97  1  0  0  0  0
 97 98  2  0  0  0  0
 98 99  1  0  0  0  0
 99100  2  0  0  0  0
100101  1  0  0  0  0
101102  1  0  0  0  0
102103  1  0  0  0  0
100104  1  0  0  0  0
104105  2  0  0  0  0
104106  1  0  0  0  0
 96107  2  0  0  0  0
107108  1  0  0  0  0
 95109  1  0  0  0  0
109110  2  0  0  0  0
110111  1  0  0  0  0
110112  1  0  0  0  0
112113  2  0  0  0  0
113114  1  0  0  0  0
114115  2  0  0  0  0
114116  1  0  0  0  0
116117  2  0  0  0  0
117118  1  0  0  0  0
118119  2  0  0  0  0
119120  1  0  0  0  0
120121  2  0  0  0  0
121122  1  0  0  0  0
122123  2  0  0  0  0
123124  1  0  0  0  0
124125  3  0  0  0  0
123126  1  0  0  0  0
126127  3  0  0  0  0
119128  1  0  0  0  0
128129  1  0  0  0  0
129130  1  0  0  0  0
130131  2  0  0  0  0
131132  1  0  0  0  0
132133  1  0  0  0  0
132134  1  0  0  0  0
 11  2  1  0  0  0  0
 23 17  1  0  0  0  0
 36 24  2  0  0  0  0
 79 38  1  0  0  0  0
108 80  1  0  0  0  0
122113  1  0  0  0  0
134128  1  0  0  0  0
 10  5  1  0  0  0  0
 22 18  1  0  0  0  0
 36 27  1  0  0  0  0
 48 41  1  0  0  0  0
 56 49  1  0  0  0  0
 78 57  2  0  0  0  0
107 82  1  0  0  0  0
121116  1  0  0  0  0
133129  1  0  0  0  0
 23  7  1  0  0  0  0
 69 62  1  0  0  0  0
 77 70  1  0  0  0  0
 93 84  1  0  0  0  0
111 94  1  0  0  0  0
134118  1  0  0  0  0
105 97  1  0  0  0  0
  1135  1  0  0  0  0
  6136  1  0  0  0  0
  9137  1  0  0  0  0
 17138  1  0  0  0  0
 18139  1  0  0  0  0
 19140  1  0  0  0  0
 20141  1  0  0  0  0
 21142  1  0  0  0  0
 22143  1  0  0  0  0
 22144  1  0  0  0  0
 23145  1  0  0  0  0
 33146  1  0  0  0  0
 33147  1  0  0  0  0
 34148  1  0  0  0  0
 34149  1  0  0  0  0
 34150  1  0  0  0  0
 42151  1  0  0  0  0
 43152  1  0  0  0  0
 46153  1  0  0  0  0
 46154  1  0  0  0  0
 46155  1  0  0  0  0
 47156  1  0  0  0  0
 48157  1  0  0  0  0
 50158  1  0  0  0  0
 51159  1  0  0  0  0
 54160  1  0  0  0  0
 54161  1  0  0  0  0
 54162  1  0  0  0  0
 55163  1  0  0  0  0
 56164  1  0  0  0  0
 63165  1  0  0  0  0
 64166  1  0  0  0  0
 67167  1  0  0  0  0
 67168  1  0  0  0  0
 67169  1  0  0  0  0
 68170  1  0  0  0  0
 69171  1  0  0  0  0
 71172  1  0  0  0  0
 72173  1  0  0  0  0
 75174  1  0  0  0  0
 75175  1  0  0  0  0
 75176  1  0  0  0  0
 76177  1  0  0  0  0
 77178  1  0  0  0  0
 81179  1  0  0  0  0
 85180  1  0  0  0  0
 86181  1  0  0  0  0
 89182  1  0  0  0  0
 89183  1  0  0  0  0
 90184  1  0  0  0  0
 90185  1  0  0  0  0
 90186  1  0  0  0  0
 93187  1  0  0  0  0
 98188  1  0  0  0  0
 99189  1  0  0  0  0
102190  1  0  0  0  0
102191  1  0  0  0  0
103192  1  0  0  0  0
103193  1  0  0  0  0
103194  1  0  0  0  0
105195  1  0  0  0  0
109196  1  0  0  0  0
112197  1  0  0  0  0
117198  1  0  0  0  0
120199  1  0  0  0  0
128200  1  0  0  0  0
129201  1  0  0  0  0
130202  1  0  0  0  0
131203  1  0  0  0  0
132204  1  0  0  0  0
133205  1  0  0  0  0
133206  1  0  0  0  0
134207  1  0  0  0  0
M  END
