
  xtb     02092204153D
 energy: -359.488602763897 gnorm: 0.000935717366 xtb: 6.4.1 (unknown)
217240  0     0  0            999 V2000
    1.3541    0.1484   -8.0208 C   0  0  0  0  0  0  0  0  0  0  0  0
    0.6253    0.7948   -8.9963 C   0  0  0  0  0  0  0  0  0  0  0  0
   -0.7574    1.2672   -8.8236 C   0  0  0  0  0  0  0  0  0  0  0  0
   -1.4428    1.1948   -7.8194 O   0  0  0  0  0  0  0  0  0  0  0  0
   -1.1899    1.7354  -10.1579 C   0  0  0  0  0  0  0  0  0  0  0  0
   -2.4175    2.2952  -10.4957 C   0  0  0  0  0  0  0  0  0  0  0  0
   -2.5135    2.6835  -11.8116 C   0  0  0  0  0  0  0  0  0  0  0  0
   -1.4681    2.5195  -12.7279 C   0  0  0  0  0  0  0  0  0  0  0  0
   -0.2537    1.9586  -12.4099 C   0  0  0  0  0  0  0  0  0  0  0  0
   -0.1369    1.5617  -11.0771 C   0  0  0  0  0  0  0  0  0  0  0  0
    1.0037    0.9896  -10.3669 C   0  0  0  0  0  0  0  0  0  0  0  0
    2.2732    0.8370  -10.8714 C   0  0  0  0  0  0  0  0  0  0  0  0
    3.3937    0.4980  -10.0883 C   0  0  0  0  0  0  0  0  0  0  0  0
    4.3646    0.2956   -9.5073 N   0  0  0  0  0  0  0  0  0  0  0  0
    2.6451    1.0924  -12.2035 C   0  0  0  0  0  0  0  0  0  0  0  0
    3.0325    1.2827  -13.2690 N   0  0  0  0  0  0  0  0  0  0  0  0
   -2.2547    3.1325  -13.8593 C   0  0  0  0  0  0  0  0  0  0  0  0
   -2.8694    2.1802  -14.9141 C   0  0  0  0  0  0  0  0  0  0  0  0
   -3.0880    0.8578  -14.2222 C   0  0  0  0  0  0  0  0  0  0  0  0
   -4.0787    1.0137  -13.3544 C   0  0  0  0  0  0  0  0  0  0  0  0
   -4.5480    2.4447  -13.4440 C   0  0  0  0  0  0  0  0  0  0  0  0
   -4.3103    2.7146  -14.9384 C   0  0  0  0  0  0  0  0  0  0  0  0
   -3.4210    3.3167  -12.8376 C   0  0  0  0  0  0  0  0  0  0  0  0
    1.1891    0.2875   -6.6406 C   0  0  0  0  0  0  0  0  0  0  0  0
    0.6437    1.3328   -5.8657 C   0  0  0  0  0  0  0  0  0  0  0  0
    0.2639    2.5726   -6.3027 N   0  0  0  0  0  0  0  0  0  0  0  0
   -0.6774    3.2989   -5.5469 C   0  0  0  0  0  0  0  0  0  0  0  0
   -1.8537    2.6916   -5.1102 C   0  0  0  0  0  0  0  0  0  0  0  0
   -2.7620    3.4092   -4.3657 C   0  0  0  0  0  0  0  0  0  0  0  0
   -2.5134    4.7419   -4.0396 C   0  0  0  0  0  0  0  0  0  0  0  0
   -3.7435    5.5545   -3.0677 S   0  0  0  0  0  0  0  0  0  0  0  0
   -3.0504    7.2046   -2.7636 C   0  0  0  0  0  0  0  0  0  0  0  0
   -1.3511    5.3529   -4.4894 C   0  0  0  0  0  0  0  0  0  0  0  0
   -0.4409    4.6338   -5.2402 C   0  0  0  0  0  0  0  0  0  0  0  0
    0.7913    3.1731   -7.4508 C   0  0  0  0  0  0  0  0  0  0  0  0
    2.1317    3.0226   -7.8007 C   0  0  0  0  0  0  0  0  0  0  0  0
    2.6235    3.5662   -8.9699 C   0  0  0  0  0  0  0  0  0  0  0  0
    1.7797    4.2736   -9.8196 C   0  0  0  0  0  0  0  0  0  0  0  0
    2.2639    4.9332  -11.3773 S   0  0  0  0  0  0  0  0  0  0  0  0
    4.0071    4.4605  -11.5443 C   0  0  0  0  0  0  0  0  0  0  0  0
    0.4526    4.4790   -9.4436 C   0  0  0  0  0  0  0  0  0  0  0  0
   -0.0360    3.9406   -8.2751 C   0  0  0  0  0  0  0  0  0  0  0  0
    0.6537    0.9916   -4.4931 C   0  0  0  0  0  0  0  0  0  0  0  0
    0.2097    1.8213   -3.0364 S   0  0  0  0  0  0  0  0  0  0  0  0
    0.7546    0.4689   -2.0582 C   0  0  0  0  0  0  0  0  0  0  0  0
    1.3699   -0.5123   -2.8291 C   0  0  0  0  0  0  0  0  0  0  0  0
    2.0952   -1.6077   -2.3741 N   0  0  0  0  0  0  0  0  0  0  0  0
    3.1494   -1.4180   -1.4795 C   0  0  0  0  0  0  0  0  0  0  0  0
    3.4858   -2.3948   -0.5394 C   0  0  0  0  0  0  0  0  0  0  0  0
    4.5399   -2.1989    0.3258 C   0  0  0  0  0  0  0  0  0  0  0  0
    5.2987   -1.0324    0.2602 C   0  0  0  0  0  0  0  0  0  0  0  0
    6.6494   -0.8673    1.3863 S   0  0  0  0  0  0  0  0  0  0  0  0
    6.8418    0.9364    1.5217 C   0  0  0  0  0  0  0  0  0  0  0  0
    4.9877   -0.0695   -0.6897 C   0  0  0  0  0  0  0  0  0  0  0  0
    3.9130   -0.2537   -1.5369 C   0  0  0  0  0  0  0  0  0  0  0  0
    1.8395   -2.8510   -2.9565 C   0  0  0  0  0  0  0  0  0  0  0  0
    2.8623   -3.7723   -3.1863 C   0  0  0  0  0  0  0  0  0  0  0  0
    2.5847   -4.9811   -3.7827 C   0  0  0  0  0  0  0  0  0  0  0  0
    1.2857   -5.2985   -4.1752 C   0  0  0  0  0  0  0  0  0  0  0  0
    1.0557   -6.8813   -4.9255 S   0  0  0  0  0  0  0  0  0  0  0  0
   -0.6725   -6.8523   -5.4821 C   0  0  0  0  0  0  0  0  0  0  0  0
    0.2658   -4.3843   -3.9535 C   0  0  0  0  0  0  0  0  0  0  0  0
    0.5431   -3.1747   -3.3482 C   0  0  0  0  0  0  0  0  0  0  0  0
    1.2618   -0.2210   -4.2083 C   0  0  0  0  0  0  0  0  0  0  0  0
    1.8270   -1.0195   -5.6273 S   0  0  0  0  0  0  0  0  0  0  0  0
    0.4280    0.4595   -0.6582 C   0  0  0  0  0  0  0  0  0  0  0  0
    0.0245    1.6206    0.0009 C   0  0  0  0  0  0  0  0  0  0  0  0
    0.0493    2.7567   -0.7511 O   0  0  0  0  0  0  0  0  0  0  0  0
   -1.0339    3.6826   -0.7248 C   0  0  0  0  0  0  0  0  0  0  0  0
   -2.3981    3.0122   -0.7716 C   0  0  0  0  0  0  0  0  0  0  0  0
   -0.2951    1.6612    1.4012 C   0  0  0  0  0  0  0  0  0  0  0  0
   -0.5214    2.9161    1.8552 O   0  0  0  0  0  0  0  0  0  0  0  0
   -1.0430    3.1506    3.1491 C   0  0  0  0  0  0  0  0  0  0  0  0
   -1.2238    4.6525    3.2995 C   0  0  0  0  0  0  0  0  0  0  0  0
   -0.2920    0.5047    2.1595 C   0  0  0  0  0  0  0  0  0  0  0  0
   -0.0135   -0.7042    1.4739 C   0  0  0  0  0  0  0  0  0  0  0  0
    0.3513   -0.7439    0.0891 C   0  0  0  0  0  0  0  0  0  0  0  0
    0.5059   -1.9906   -0.3413 N   0  0  0  0  0  0  0  0  0  0  0  0
    0.2513   -3.0100    0.8774 S   0  0  0  0  0  0  0  0  0  0  0  0
   -0.0908   -1.9200    2.0105 N   0  0  0  0  0  0  0  0  0  0  0  0
   -0.4134    0.3102    3.6078 C   0  0  0  0  0  0  0  0  0  0  0  0
    0.6351   -0.1876    4.3542 C   0  0  0  0  0  0  0  0  0  0  0  0
    1.9411   -0.2151    3.8739 N   0  0  0  0  0  0  0  0  0  0  0  0
    2.3672    0.9301    3.1801 C   0  0  0  0  0  0  0  0  0  0  0  0
    2.8799    0.8539    1.8889 C   0  0  0  0  0  0  0  0  0  0  0  0
    3.1874    2.0134    1.2027 C   0  0  0  0  0  0  0  0  0  0  0  0
    3.0140    3.2526    1.7970 C   0  0  0  0  0  0  0  0  0  0  0  0
    2.5394    3.3299    3.0954 C   0  0  0  0  0  0  0  0  0  0  0  0
    2.2150    2.1773    3.7839 C   0  0  0  0  0  0  0  0  0  0  0  0
    2.7187   -1.3697    3.9542 C   0  0  0  0  0  0  0  0  0  0  0  0
    2.1225   -2.6190    4.1127 C   0  0  0  0  0  0  0  0  0  0  0  0
    2.9066   -3.7514    4.2139 C   0  0  0  0  0  0  0  0  0  0  0  0
    4.2867   -3.6588    4.1539 C   0  0  0  0  0  0  0  0  0  0  0  0
    4.8816   -2.4182    3.9940 C   0  0  0  0  0  0  0  0  0  0  0  0
    4.1078   -1.2789    3.8976 C   0  0  0  0  0  0  0  0  0  0  0  0
    0.2244   -0.5773    5.6505 C   0  0  0  0  0  0  0  0  0  0  0  0
    1.0135   -1.3473    6.9749 S   0  0  0  0  0  0  0  0  0  0  0  0
   -0.4905   -1.3062    7.9002 C   0  0  0  0  0  0  0  0  0  0  0  0
   -1.5641   -0.7724    7.1478 C   0  0  0  0  0  0  0  0  0  0  0  0
   -2.8660   -0.6634    7.5760 N   0  0  0  0  0  0  0  0  0  0  0  0
   -3.6275    0.4271    7.1208 C   0  0  0  0  0  0  0  0  0  0  0  0
   -4.9501    0.2539    6.7218 C   0  0  0  0  0  0  0  0  0  0  0  0
   -5.6816    1.3353    6.2703 C   0  0  0  0  0  0  0  0  0  0  0  0
   -5.1063    2.5938    6.2046 C   0  0  0  0  0  0  0  0  0  0  0  0
   -3.7921    2.7690    6.6045 C   0  0  0  0  0  0  0  0  0  0  0  0
   -3.0546    1.6961    7.0656 C   0  0  0  0  0  0  0  0  0  0  0  0
   -3.4852   -1.6621    8.3494 C   0  0  0  0  0  0  0  0  0  0  0  0
   -3.1802   -3.0062    8.1400 C   0  0  0  0  0  0  0  0  0  0  0  0
   -3.7802   -3.9773    8.9166 C   0  0  0  0  0  0  0  0  0  0  0  0
   -4.6983   -3.6253    9.8938 C   0  0  0  0  0  0  0  0  0  0  0  0
   -5.0198   -2.2926   10.0859 C   0  0  0  0  0  0  0  0  0  0  0  0
   -4.4175   -1.3102    9.3222 C   0  0  0  0  0  0  0  0  0  0  0  0
   -1.1307   -0.3664    5.8761 C   0  0  0  0  0  0  0  0  0  0  0  0
   -1.9255    0.3069    4.4860 S   0  0  0  0  0  0  0  0  0  0  0  0
   -0.6113   -1.6645    9.2451 C   0  0  0  0  0  0  0  0  0  0  0  0
    0.2745   -2.2997   10.0801 C   0  0  0  0  0  0  0  0  0  0  0  0
    1.5659   -2.8762    9.6942 C   0  0  0  0  0  0  0  0  0  0  0  0
    2.1545   -2.7424    8.6354 O   0  0  0  0  0  0  0  0  0  0  0  0
    2.0178   -3.6776   10.8456 C   0  0  0  0  0  0  0  0  0  0  0  0
    3.1658   -4.4614   10.9225 C   0  0  0  0  0  0  0  0  0  0  0  0
    3.3165   -5.1144   12.1225 C   0  0  0  0  0  0  0  0  0  0  0  0
    2.3920   -4.9976   13.1682 C   0  0  0  0  0  0  0  0  0  0  0  0
    1.2555   -4.2257   13.1049 C   0  0  0  0  0  0  0  0  0  0  0  0
    1.0839   -3.5509   11.8937 C   0  0  0  0  0  0  0  0  0  0  0  0
    0.0146   -2.6533   11.4570 C   0  0  0  0  0  0  0  0  0  0  0  0
   -1.0234   -2.2096   12.2397 C   0  0  0  0  0  0  0  0  0  0  0  0
   -1.2421   -2.6034   13.5750 C   0  0  0  0  0  0  0  0  0  0  0  0
   -1.4934   -2.8882   14.6593 N   0  0  0  0  0  0  0  0  0  0  0  0
   -1.9960   -1.2693   11.8482 C   0  0  0  0  0  0  0  0  0  0  0  0
   -2.8106   -0.4896   11.6222 N   0  0  0  0  0  0  0  0  0  0  0  0
    3.1731   -5.9218   14.0687 C   0  0  0  0  0  0  0  0  0  0  0  0
    4.0140   -5.2850   15.2025 C   0  0  0  0  0  0  0  0  0  0  0  0
    4.3665   -3.8918   14.7438 C   0  0  0  0  0  0  0  0  0  0  0  0
    5.2427   -4.0009   13.7541 C   0  0  0  0  0  0  0  0  0  0  0  0
    5.4983   -5.4701   13.5255 C   0  0  0  0  0  0  0  0  0  0  0  0
    5.3551   -5.9967   14.9624 C   0  0  0  0  0  0  0  0  0  0  0  0
    4.2043   -6.0507   12.9036 C   0  0  0  0  0  0  0  0  0  0  0  0
    2.1159   -0.5579   -8.3301 H   0  0  0  0  0  0  0  0  0  0  0  0
   -3.1970    2.4116   -9.7585 H   0  0  0  0  0  0  0  0  0  0  0  0
    0.5430    1.8358  -13.1248 H   0  0  0  0  0  0  0  0  0  0  0  0
   -1.8238    4.0258  -14.3073 H   0  0  0  0  0  0  0  0  0  0  0  0
   -2.3320    2.1450  -15.8581 H   0  0  0  0  0  0  0  0  0  0  0  0
   -2.4799   -0.0122  -14.3875 H   0  0  0  0  0  0  0  0  0  0  0  0
   -4.4634    0.3001  -12.6494 H   0  0  0  0  0  0  0  0  0  0  0  0
   -5.5402    2.6502  -13.0501 H   0  0  0  0  0  0  0  0  0  0  0  0
   -4.3773    3.7687  -15.2048 H   0  0  0  0  0  0  0  0  0  0  0  0
   -4.9663    2.1301  -15.5819 H   0  0  0  0  0  0  0  0  0  0  0  0
   -3.7523    4.3309  -12.6215 H   0  0  0  0  0  0  0  0  0  0  0  0
   -2.0510    1.6694   -5.3906 H   0  0  0  0  0  0  0  0  0  0  0  0
   -3.6815    2.9518   -4.0340 H   0  0  0  0  0  0  0  0  0  0  0  0
   -2.1019    7.1173   -2.2418 H   0  0  0  0  0  0  0  0  0  0  0  0
   -2.9402    7.7421   -3.7008 H   0  0  0  0  0  0  0  0  0  0  0  0
   -3.7734    7.7125   -2.1331 H   0  0  0  0  0  0  0  0  0  0  0  0
   -1.1379    6.3850   -4.2629 H   0  0  0  0  0  0  0  0  0  0  0  0
    0.4638    5.1104   -5.5878 H   0  0  0  0  0  0  0  0  0  0  0  0
    2.7975    2.4658   -7.1586 H   0  0  0  0  0  0  0  0  0  0  0  0
    3.6634    3.4179   -9.2114 H   0  0  0  0  0  0  0  0  0  0  0  0
    4.1056    3.3791  -11.5421 H   0  0  0  0  0  0  0  0  0  0  0  0
    4.3199    4.8503  -12.5079 H   0  0  0  0  0  0  0  0  0  0  0  0
    4.5939    4.9161  -10.7522 H   0  0  0  0  0  0  0  0  0  0  0  0
   -0.1943    5.0457  -10.0954 H   0  0  0  0  0  0  0  0  0  0  0  0
   -1.0697    4.0866   -8.0012 H   0  0  0  0  0  0  0  0  0  0  0  0
    2.9065   -3.3037   -0.4880 H   0  0  0  0  0  0  0  0  0  0  0  0
    4.7823   -2.9435    1.0685 H   0  0  0  0  0  0  0  0  0  0  0  0
    7.3460    1.3334    0.6453 H   0  0  0  0  0  0  0  0  0  0  0  0
    7.4565    1.1035    2.4008 H   0  0  0  0  0  0  0  0  0  0  0  0
    5.8653    1.3935    1.6552 H   0  0  0  0  0  0  0  0  0  0  0  0
    5.5871    0.8223   -0.7856 H   0  0  0  0  0  0  0  0  0  0  0  0
    3.6781    0.5020   -2.2725 H   0  0  0  0  0  0  0  0  0  0  0  0
    3.8767   -3.5304   -2.9081 H   0  0  0  0  0  0  0  0  0  0  0  0
    3.3755   -5.6926   -3.9646 H   0  0  0  0  0  0  0  0  0  0  0  0
   -1.3417   -6.8188   -4.6270 H   0  0  0  0  0  0  0  0  0  0  0  0
   -0.8197   -7.7796   -6.0270 H   0  0  0  0  0  0  0  0  0  0  0  0
   -0.8319   -6.0054   -6.1430 H   0  0  0  0  0  0  0  0  0  0  0  0
   -0.7508   -4.6013   -4.2393 H   0  0  0  0  0  0  0  0  0  0  0  0
   -0.2563   -2.4732   -3.1631 H   0  0  0  0  0  0  0  0  0  0  0  0
   -0.8757    4.2714   -1.6333 H   0  0  0  0  0  0  0  0  0  0  0  0
   -0.9482    4.3341    0.1492 H   0  0  0  0  0  0  0  0  0  0  0  0
   -3.1688    3.7667   -0.8991 H   0  0  0  0  0  0  0  0  0  0  0  0
   -2.4413    2.3242   -1.6129 H   0  0  0  0  0  0  0  0  0  0  0  0
   -2.5955    2.4612    0.1447 H   0  0  0  0  0  0  0  0  0  0  0  0
   -0.3489    2.7757    3.9086 H   0  0  0  0  0  0  0  0  0  0  0  0
   -2.0070    2.6385    3.2643 H   0  0  0  0  0  0  0  0  0  0  0  0
   -0.2741    5.1566    3.1428 H   0  0  0  0  0  0  0  0  0  0  0  0
   -1.5878    4.8762    4.2975 H   0  0  0  0  0  0  0  0  0  0  0  0
   -1.9405    5.0213    2.5703 H   0  0  0  0  0  0  0  0  0  0  0  0
    3.0065   -0.1120    1.4229 H   0  0  0  0  0  0  0  0  0  0  0  0
    3.5434    1.9480    0.1864 H   0  0  0  0  0  0  0  0  0  0  0  0
    3.2467    4.1527    1.2485 H   0  0  0  0  0  0  0  0  0  0  0  0
    2.4196    4.2912    3.5736 H   0  0  0  0  0  0  0  0  0  0  0  0
    1.8445    2.2270    4.7985 H   0  0  0  0  0  0  0  0  0  0  0  0
    1.0467   -2.6986    4.1341 H   0  0  0  0  0  0  0  0  0  0  0  0
    2.4330   -4.7145    4.3357 H   0  0  0  0  0  0  0  0  0  0  0  0
    4.8959   -4.5466    4.2321 H   0  0  0  0  0  0  0  0  0  0  0  0
    5.9568   -2.3340    3.9449 H   0  0  0  0  0  0  0  0  0  0  0  0
    4.5756   -0.3121    3.7855 H   0  0  0  0  0  0  0  0  0  0  0  0
   -5.3945   -0.7293    6.7630 H   0  0  0  0  0  0  0  0  0  0  0  0
   -6.7058    1.1922    5.9604 H   0  0  0  0  0  0  0  0  0  0  0  0
   -5.6812    3.4347    5.8479 H   0  0  0  0  0  0  0  0  0  0  0  0
   -3.3406    3.7494    6.5679 H   0  0  0  0  0  0  0  0  0  0  0  0
   -2.0350    1.8337    7.3947 H   0  0  0  0  0  0  0  0  0  0  0  0
   -2.4698   -3.2802    7.3737 H   0  0  0  0  0  0  0  0  0  0  0  0
   -3.5353   -5.0162    8.7521 H   0  0  0  0  0  0  0  0  0  0  0  0
   -5.1619   -4.3884   10.5001 H   0  0  0  0  0  0  0  0  0  0  0  0
   -5.7313   -2.0100   10.8462 H   0  0  0  0  0  0  0  0  0  0  0  0
   -4.6519   -0.2703    9.4863 H   0  0  0  0  0  0  0  0  0  0  0  0
   -1.5712   -1.4147    9.6787 H   0  0  0  0  0  0  0  0  0  0  0  0
    3.8493   -4.5256   10.0902 H   0  0  0  0  0  0  0  0  0  0  0  0
    0.5516   -4.1509   13.9167 H   0  0  0  0  0  0  0  0  0  0  0  0
    2.6547   -6.8222   14.3926 H   0  0  0  0  0  0  0  0  0  0  0  0
    3.5728   -5.3672   16.1922 H   0  0  0  0  0  0  0  0  0  0  0  0
    3.9121   -3.0003   15.1346 H   0  0  0  0  0  0  0  0  0  0  0  0
    5.6667   -3.2186   13.1521 H   0  0  0  0  0  0  0  0  0  0  0  0
    6.4095   -5.7211   12.9887 H   0  0  0  0  0  0  0  0  0  0  0  0
    5.2868   -7.0822   15.0218 H   0  0  0  0  0  0  0  0  0  0  0  0
    6.1450   -5.6412   15.6223 H   0  0  0  0  0  0  0  0  0  0  0  0
    4.3597   -7.0358   12.4675 H   0  0  0  0  0  0  0  0  0  0  0  0
  1  2  2  0  0  0  0
  2  3  1  0  0  0  0
  3  4  2  0  0  0  0
  3  5  1  0  0  0  0
  5  6  2  0  0  0  0
  6  7  1  0  0  0  0
  7  8  2  0  0  0  0
  8  9  1  0  0  0  0
  9 10  2  0  0  0  0
 10 11  1  0  0  0  0
 11 12  2  0  0  0  0
 12 13  1  0  0  0  0
 13 14  3  0  0  0  0
 12 15  1  0  0  0  0
 15 16  3  0  0  0  0
  8 17  1  0  0  0  0
 17 18  1  0  0  0  0
 18 19  1  0  0  0  0
 19 20  2  0  0  0  0
 20 21  1  0  0  0  0
 21 22  1  0  0  0  0
 21 23  1  0  0  0  0
  1 24  1  0  0  0  0
 24 25  2  0  0  0  0
 25 26  1  0  0  0  0
 26 27  1  0  0  0  0
 27 28  2  0  0  0  0
 28 29  1  0  0  0  0
 29 30  2  0  0  0  0
 30 31  1  0  0  0  0
 31 32  1  0  0  0  0
 30 33  1  0  0  0  0
 33 34  2  0  0  0  0
 26 35  1  0  0  0  0
 35 36  2  0  0  0  0
 36 37  1  0  0  0  0
 37 38  2  0  0  0  0
 38 39  1  0  0  0  0
 39 40  1  0  0  0  0
 38 41  1  0  0  0  0
 41 42  2  0  0  0  0
 25 43  1  0  0  0  0
 43 44  1  0  0  0  0
 44 45  1  0  0  0  0
 45 46  2  0  0  0  0
 46 47  1  0  0  0  0
 47 48  1  0  0  0  0
 48 49  2  0  0  0  0
 49 50  1  0  0  0  0
 50 51  2  0  0  0  0
 51 52  1  0  0  0  0
 52 53  1  0  0  0  0
 51 54  1  0  0  0  0
 54 55  2  0  0  0  0
 47 56  1  0  0  0  0
 56 57  2  0  0  0  0
 57 58  1  0  0  0  0
 58 59  2  0  0  0  0
 59 60  1  0  0  0  0
 60 61  1  0  0  0  0
 59 62  1  0  0  0  0
 62 63  2  0  0  0  0
 46 64  1  0  0  0  0
 64 65  1  0  0  0  0
 45 66  1  0  0  0  0
 66 67  2  0  0  0  0
 67 68  1  0  0  0  0
 68 69  1  0  0  0  0
 69 70  1  0  0  0  0
 67 71  1  0  0  0  0
 71 72  1  0  0  0  0
 72 73  1  0  0  0  0
 73 74  1  0  0  0  0
 71 75  2  0  0  0  0
 75 76  1  0  0  0  0
 76 77  1  0  0  0  0
 77 78  2  0  0  0  0
 78 79  1  0  0  0  0
 79 80  1  0  0  0  0
 75 81  1  0  0  0  0
 81 82  2  0  0  0  0
 82 83  1  0  0  0  0
 83 84  1  0  0  0  0
 84 85  2  0  0  0  0
 85 86  1  0  0  0  0
 86 87  2  0  0  0  0
 87 88  1  0  0  0  0
 88 89  2  0  0  0  0
 83 90  1  0  0  0  0
 90 91  2  0  0  0  0
 91 92  1  0  0  0  0
 92 93  2  0  0  0  0
 93 94  1  0  0  0  0
 94 95  2  0  0  0  0
 82 96  1  0  0  0  0
 96 97  1  0  0  0  0
 97 98  1  0  0  0  0
 98 99  2  0  0  0  0
 99100  1  0  0  0  0
100101  1  0  0  0  0
101102  2  0  0  0  0
102103  1  0  0  0  0
103104  2  0  0  0  0
104105  1  0  0  0  0
105106  2  0  0  0  0
100107  1  0  0  0  0
107108  2  0  0  0  0
108109  1  0  0  0  0
109110  2  0  0  0  0
110111  1  0  0  0  0
111112  2  0  0  0  0
 99113  1  0  0  0  0
113114  1  0  0  0  0
 98115  1  0  0  0  0
115116  2  0  0  0  0
116117  1  0  0  0  0
117118  2  0  0  0  0
117119  1  0  0  0  0
119120  2  0  0  0  0
120121  1  0  0  0  0
121122  2  0  0  0  0
122123  1  0  0  0  0
123124  2  0  0  0  0
124125  1  0  0  0  0
125126  2  0  0  0  0
126127  1  0  0  0  0
127128  3  0  0  0  0
126129  1  0  0  0  0
129130  3  0  0  0  0
122131  1  0  0  0  0
131132  1  0  0  0  0
132133  1  0  0  0  0
133134  2  0  0  0  0
134135  1  0  0  0  0
135136  1  0  0  0  0
135137  1  0  0  0  0
 11  2  1  0  0  0  0
 23 17  1  0  0  0  0
 65 24  1  0  0  0  0
 77 66  1  0  0  0  0
114 81  1  0  0  0  0
125116  1  0  0  0  0
137131  1  0  0  0  0
 10  5  1  0  0  0  0
 22 18  1  0  0  0  0
 34 27  1  0  0  0  0
 42 35  1  0  0  0  0
 64 43  2  0  0  0  0
 80 76  2  0  0  0  0
 89 84  1  0  0  0  0
 95 90  1  0  0  0  0
113 96  2  0  0  0  0
124119  1  0  0  0  0
136132  1  0  0  0  0
 23  7  1  0  0  0  0
 55 48  1  0  0  0  0
 63 56  1  0  0  0  0
106101  1  0  0  0  0
112107  1  0  0  0  0
137121  1  0  0  0  0
  1138  1  0  0  0  0
  6139  1  0  0  0  0
  9140  1  0  0  0  0
 17141  1  0  0  0  0
 18142  1  0  0  0  0
 19143  1  0  0  0  0
 20144  1  0  0  0  0
 21145  1  0  0  0  0
 22146  1  0  0  0  0
 22147  1  0  0  0  0
 23148  1  0  0  0  0
 28149  1  0  0  0  0
 29150  1  0  0  0  0
 32151  1  0  0  0  0
 32152  1  0  0  0  0
 32153  1  0  0  0  0
 33154  1  0  0  0  0
 34155  1  0  0  0  0
 36156  1  0  0  0  0
 37157  1  0  0  0  0
 40158  1  0  0  0  0
 40159  1  0  0  0  0
 40160  1  0  0  0  0
 41161  1  0  0  0  0
 42162  1  0  0  0  0
 49163  1  0  0  0  0
 50164  1  0  0  0  0
 53165  1  0  0  0  0
 53166  1  0  0  0  0
 53167  1  0  0  0  0
 54168  1  0  0  0  0
 55169  1  0  0  0  0
 57170  1  0  0  0  0
 58171  1  0  0  0  0
 61172  1  0  0  0  0
 61173  1  0  0  0  0
 61174  1  0  0  0  0
 62175  1  0  0  0  0
 63176  1  0  0  0  0
 69177  1  0  0  0  0
 69178  1  0  0  0  0
 70179  1  0  0  0  0
 70180  1  0  0  0  0
 70181  1  0  0  0  0
 73182  1  0  0  0  0
 73183  1  0  0  0  0
 74184  1  0  0  0  0
 74185  1  0  0  0  0
 74186  1  0  0  0  0
 85187  1  0  0  0  0
 86188  1  0  0  0  0
 87189  1  0  0  0  0
 88190  1  0  0  0  0
 89191  1  0  0  0  0
 91192  1  0  0  0  0
 92193  1  0  0  0  0
 93194  1  0  0  0  0
 94195  1  0  0  0  0
 95196  1  0  0  0  0
102197  1  0  0  0  0
103198  1  0  0  0  0
104199  1  0  0  0  0
105200  1  0  0  0  0
106201  1  0  0  0  0
108202  1  0  0  0  0
109203  1  0  0  0  0
110204  1  0  0  0  0
111205  1  0  0  0  0
112206  1  0  0  0  0
115207  1  0  0  0  0
120208  1  0  0  0  0
123209  1  0  0  0  0
131210  1  0  0  0  0
132211  1  0  0  0  0
133212  1  0  0  0  0
134213  1  0  0  0  0
135214  1  0  0  0  0
136215  1  0  0  0  0
136216  1  0  0  0  0
137217  1  0  0  0  0
M  END
