
  xtb     02062209573D
 energy: -305.905827567081 gnorm: 0.000906034461 xtb: 6.4.1 (unknown)
178197  0     0  0            999 V2000
   -1.2919    5.4772    4.1570 C   0  0  0  0  0  0  0  0  0  0  0  0
   -1.1390    5.2445    5.5056 C   0  0  0  0  0  0  0  0  0  0  0  0
   -1.3051    3.9269    6.1419 C   0  0  0  0  0  0  0  0  0  0  0  0
   -1.5565    2.8696    5.5928 O   0  0  0  0  0  0  0  0  0  0  0  0
   -1.2352    4.1742    7.5976 C   0  0  0  0  0  0  0  0  0  0  0  0
   -1.3249    3.2305    8.6164 C   0  0  0  0  0  0  0  0  0  0  0  0
   -1.1831    3.7548    9.8800 C   0  0  0  0  0  0  0  0  0  0  0  0
   -0.9746    5.1190   10.1152 C   0  0  0  0  0  0  0  0  0  0  0  0
   -0.8926    6.0633    9.1192 C   0  0  0  0  0  0  0  0  0  0  0  0
   -1.0319    5.5488    7.8285 C   0  0  0  0  0  0  0  0  0  0  0  0
   -0.9533    6.2261    6.5377 C   0  0  0  0  0  0  0  0  0  0  0  0
   -0.5872    7.5345    6.3339 C   0  0  0  0  0  0  0  0  0  0  0  0
   -0.3170    8.0852    5.0660 C   0  0  0  0  0  0  0  0  0  0  0  0
   -0.0182    8.5874    4.0763 N   0  0  0  0  0  0  0  0  0  0  0  0
   -0.3402    8.4690    7.3563 C   0  0  0  0  0  0  0  0  0  0  0  0
   -0.1189    9.2904    8.1291 N   0  0  0  0  0  0  0  0  0  0  0  0
   -0.9216    4.9367   11.6117 C   0  0  0  0  0  0  0  0  0  0  0  0
   -2.1825    5.3439   12.4025 C   0  0  0  0  0  0  0  0  0  0  0  0
   -2.0305    4.6232   13.7225 C   0  0  0  0  0  0  0  0  0  0  0  0
   -2.2269    3.3298   13.5010 C   0  0  0  0  0  0  0  0  0  0  0  0
   -2.5156    3.1546   12.0274 C   0  0  0  0  0  0  0  0  0  0  0  0
   -3.2572    4.4677   11.7460 C   0  0  0  0  0  0  0  0  0  0  0  0
   -1.1532    3.4138   11.3500 C   0  0  0  0  0  0  0  0  0  0  0  0
   -1.1028    4.5395    3.1363 C   0  0  0  0  0  0  0  0  0  0  0  0
   -0.3204    3.3686    3.0803 C   0  0  0  0  0  0  0  0  0  0  0  0
    0.5881    2.9387    4.0057 N   0  0  0  0  0  0  0  0  0  0  0  0
    1.2228    3.7973    4.9107 C   0  0  0  0  0  0  0  0  0  0  0  0
    1.6356    5.0741    4.5356 C   0  0  0  0  0  0  0  0  0  0  0  0
    2.2057    5.9312    5.4546 C   0  0  0  0  0  0  0  0  0  0  0  0
    2.3706    5.5286    6.7760 C   0  0  0  0  0  0  0  0  0  0  0  0
    2.9908    6.5604    8.0583 S   0  0  0  0  0  0  0  0  0  0  0  0
    3.3396    8.1396    7.2371 C   0  0  0  0  0  0  0  0  0  0  0  0
    2.0149    4.2303    7.1409 C   0  0  0  0  0  0  0  0  0  0  0  0
    1.4530    3.3735    6.2222 C   0  0  0  0  0  0  0  0  0  0  0  0
    0.9252    1.5698    4.0459 C   0  0  0  0  0  0  0  0  0  0  0  0
   -0.0700    0.5986    4.0083 C   0  0  0  0  0  0  0  0  0  0  0  0
    0.2621   -0.7415    4.0081 C   0  0  0  0  0  0  0  0  0  0  0  0
    1.5966   -1.1268    4.0471 C   0  0  0  0  0  0  0  0  0  0  0  0
    2.1315   -2.8053    4.0272 S   0  0  0  0  0  0  0  0  0  0  0  0
    0.6762   -3.7033    3.4155 C   0  0  0  0  0  0  0  0  0  0  0  0
    2.5917   -0.1531    4.1277 C   0  0  0  0  0  0  0  0  0  0  0  0
    2.2619    1.1833    4.1269 C   0  0  0  0  0  0  0  0  0  0  0  0
   -0.5015    2.7166    1.8350 C   0  0  0  0  0  0  0  0  0  0  0  0
    0.1871    1.2952    1.1278 S   0  0  0  0  0  0  0  0  0  0  0  0
   -0.7079    1.5806   -0.3592 C   0  0  0  0  0  0  0  0  0  0  0  0
   -1.4358    2.7704   -0.3323 C   0  0  0  0  0  0  0  0  0  0  0  0
   -2.0744    3.3444   -1.4023 N   0  0  0  0  0  0  0  0  0  0  0  0
   -3.1883    4.1707   -1.1711 C   0  0  0  0  0  0  0  0  0  0  0  0
   -3.3365    5.3666   -1.8724 C   0  0  0  0  0  0  0  0  0  0  0  0
   -4.4192    6.1801   -1.6271 C   0  0  0  0  0  0  0  0  0  0  0  0
   -5.3732    5.8210   -0.6758 C   0  0  0  0  0  0  0  0  0  0  0  0
   -6.7108    6.9476   -0.4462 S   0  0  0  0  0  0  0  0  0  0  0  0
   -7.6272    6.2569    0.9606 C   0  0  0  0  0  0  0  0  0  0  0  0
   -5.2333    4.6247    0.0145 C   0  0  0  0  0  0  0  0  0  0  0  0
   -4.1486    3.8068   -0.2335 C   0  0  0  0  0  0  0  0  0  0  0  0
   -1.5983    3.1747   -2.7080 C   0  0  0  0  0  0  0  0  0  0  0  0
   -2.4893    3.0912   -3.7789 C   0  0  0  0  0  0  0  0  0  0  0  0
   -2.0194    2.9227   -5.0622 C   0  0  0  0  0  0  0  0  0  0  0  0
   -0.6512    2.8340   -5.3113 C   0  0  0  0  0  0  0  0  0  0  0  0
   -0.1650    2.6478   -6.9946 S   0  0  0  0  0  0  0  0  0  0  0  0
    1.6402    2.4881   -6.9128 C   0  0  0  0  0  0  0  0  0  0  0  0
    0.2397    2.9266   -4.2502 C   0  0  0  0  0  0  0  0  0  0  0  0
   -0.2313    3.1018   -2.9653 C   0  0  0  0  0  0  0  0  0  0  0  0
   -1.3270    3.3838    0.9416 C   0  0  0  0  0  0  0  0  0  0  0  0
   -1.9251    4.8602    1.6012 S   0  0  0  0  0  0  0  0  0  0  0  0
   -0.6419    0.6168   -1.3957 C   0  0  0  0  0  0  0  0  0  0  0  0
   -1.6075    0.2383   -2.3010 C   0  0  0  0  0  0  0  0  0  0  0  0
   -3.0384    0.4756   -2.4854 C   0  0  0  0  0  0  0  0  0  0  0  0
   -3.8144    1.1553   -1.8552 O   0  0  0  0  0  0  0  0  0  0  0  0
   -3.3984   -0.3502   -3.5467 N   0  0  0  0  0  0  0  0  0  0  0  0
   -4.7482   -0.4398   -4.0425 C   0  0  0  0  0  0  0  0  0  0  0  0
   -2.3755   -1.1811   -3.9902 C   0  0  0  0  0  0  0  0  0  0  0  0
   -2.5323   -2.0654   -4.7961 O   0  0  0  0  0  0  0  0  0  0  0  0
   -1.1952   -0.7707   -3.2067 C   0  0  0  0  0  0  0  0  0  0  0  0
    0.0949   -1.1993   -3.0096 C   0  0  0  0  0  0  0  0  0  0  0  0
    0.8078   -0.3258   -1.6703 S   0  0  0  0  0  0  0  0  0  0  0  0
    0.8069   -2.2274   -3.7167 C   0  0  0  0  0  0  0  0  0  0  0  0
    1.7569   -3.0402   -3.1171 C   0  0  0  0  0  0  0  0  0  0  0  0
    2.1301   -2.8096   -1.8471 F   0  0  0  0  0  0  0  0  0  0  0  0
    2.3307   -4.1312   -3.7783 C   0  0  0  0  0  0  0  0  0  0  0  0
    3.3083   -4.7982   -3.1496 F   0  0  0  0  0  0  0  0  0  0  0  0
    1.9388   -4.4984   -5.0545 C   0  0  0  0  0  0  0  0  0  0  0  0
    1.0160   -3.6453   -5.7171 C   0  0  0  0  0  0  0  0  0  0  0  0
    0.5526   -3.9895   -6.9312 N   0  0  0  0  0  0  0  0  0  0  0  0
   -0.2612   -3.1825   -7.5594 C   0  0  0  0  0  0  0  0  0  0  0  0
   -0.9207   -3.7203   -8.7885 C   0  0  0  0  0  0  0  0  0  0  0  0
   -2.2958   -4.2767   -8.4049 C   0  0  0  0  0  0  0  0  0  0  0  0
   -0.5141   -1.8746   -7.0380 C   0  0  0  0  0  0  0  0  0  0  0  0
   -0.1482   -1.5715   -5.8207 N   0  0  0  0  0  0  0  0  0  0  0  0
    0.5226   -2.4753   -5.0904 C   0  0  0  0  0  0  0  0  0  0  0  0
   -1.1296   -0.7834   -7.8541 C   0  0  0  0  0  0  0  0  0  0  0  0
   -0.1393   -0.2636   -8.8989 C   0  0  0  0  0  0  0  0  0  0  0  0
    2.4474   -5.6530   -5.7586 C   0  0  0  0  0  0  0  0  0  0  0  0
    2.6525   -6.8746   -5.2225 C   0  0  0  0  0  0  0  0  0  0  0  0
    2.1890   -7.3107   -3.8697 C   0  0  0  0  0  0  0  0  0  0  0  0
    1.4599   -6.7070   -3.1169 O   0  0  0  0  0  0  0  0  0  0  0  0
    2.7145   -8.6744   -3.6927 C   0  0  0  0  0  0  0  0  0  0  0  0
    2.6056   -9.4665   -2.5512 C   0  0  0  0  0  0  0  0  0  0  0  0
    3.2035  -10.6977   -2.6642 C   0  0  0  0  0  0  0  0  0  0  0  0
    3.8642  -11.1142   -3.8295 C   0  0  0  0  0  0  0  0  0  0  0  0
    3.9737  -10.3477   -4.9637 C   0  0  0  0  0  0  0  0  0  0  0  0
    3.3662   -9.0900   -4.8730 C   0  0  0  0  0  0  0  0  0  0  0  0
    3.2823   -8.0235   -5.8634 C   0  0  0  0  0  0  0  0  0  0  0  0
    3.7181   -8.0958   -7.1579 C   0  0  0  0  0  0  0  0  0  0  0  0
    4.3064   -9.2398   -7.7407 C   0  0  0  0  0  0  0  0  0  0  0  0
    4.7831  -10.1312   -8.2842 N   0  0  0  0  0  0  0  0  0  0  0  0
    3.6298   -7.0624   -8.1166 C   0  0  0  0  0  0  0  0  0  0  0  0
    3.6027   -6.2860   -8.9618 N   0  0  0  0  0  0  0  0  0  0  0  0
    4.2263  -12.4540   -3.2408 C   0  0  0  0  0  0  0  0  0  0  0  0
    3.3983  -13.6841   -3.6878 C   0  0  0  0  0  0  0  0  0  0  0  0
    2.0416  -13.1631   -4.0928 C   0  0  0  0  0  0  0  0  0  0  0  0
    1.4140  -12.7699   -2.9925 C   0  0  0  0  0  0  0  0  0  0  0  0
    2.3349  -13.0182   -1.8233 C   0  0  0  0  0  0  0  0  0  0  0  0
    3.0595  -14.2822   -2.3130 C   0  0  0  0  0  0  0  0  0  0  0  0
    3.4887  -11.9917   -1.9447 C   0  0  0  0  0  0  0  0  0  0  0  0
   -1.6176    6.4591    3.8340 H   0  0  0  0  0  0  0  0  0  0  0  0
   -1.4776    2.1857    8.3942 H   0  0  0  0  0  0  0  0  0  0  0  0
   -0.7324    7.1108    9.3127 H   0  0  0  0  0  0  0  0  0  0  0  0
    0.0033    5.2479   12.0935 H   0  0  0  0  0  0  0  0  0  0  0  0
   -2.3661    6.4139   12.4471 H   0  0  0  0  0  0  0  0  0  0  0  0
   -1.7494    5.1053   14.6404 H   0  0  0  0  0  0  0  0  0  0  0  0
   -2.1426    2.5157   14.1969 H   0  0  0  0  0  0  0  0  0  0  0  0
   -3.0037    2.2298   11.7312 H   0  0  0  0  0  0  0  0  0  0  0  0
   -4.2101    4.5229   12.2699 H   0  0  0  0  0  0  0  0  0  0  0  0
   -3.4105    4.6721   10.6880 H   0  0  0  0  0  0  0  0  0  0  0  0
   -0.3829    2.7097   11.6598 H   0  0  0  0  0  0  0  0  0  0  0  0
    1.5031    5.4068    3.5171 H   0  0  0  0  0  0  0  0  0  0  0  0
    2.5041    6.9144    5.1288 H   0  0  0  0  0  0  0  0  0  0  0  0
    4.0959    8.0009    6.4702 H   0  0  0  0  0  0  0  0  0  0  0  0
    2.4269    8.5604    6.8260 H   0  0  0  0  0  0  0  0  0  0  0  0
    3.7191    8.7917    8.0177 H   0  0  0  0  0  0  0  0  0  0  0  0
    2.1654    3.9135    8.1613 H   0  0  0  0  0  0  0  0  0  0  0  0
    1.1657    2.3755    6.5157 H   0  0  0  0  0  0  0  0  0  0  0  0
   -1.1039    0.9064    4.0068 H   0  0  0  0  0  0  0  0  0  0  0  0
   -0.5273   -1.4751    3.9859 H   0  0  0  0  0  0  0  0  0  0  0  0
    1.0229   -4.7075    3.1924 H   0  0  0  0  0  0  0  0  0  0  0  0
   -0.0947   -3.7431    4.1799 H   0  0  0  0  0  0  0  0  0  0  0  0
    0.3138   -3.2273    2.5095 H   0  0  0  0  0  0  0  0  0  0  0  0
    3.6245   -0.4615    4.1753 H   0  0  0  0  0  0  0  0  0  0  0  0
    3.0350    1.9358    4.1733 H   0  0  0  0  0  0  0  0  0  0  0  0
   -2.5955    5.6558   -2.6026 H   0  0  0  0  0  0  0  0  0  0  0  0
   -4.5361    7.1098   -2.1623 H   0  0  0  0  0  0  0  0  0  0  0  0
   -8.0653    5.3008    0.6895 H   0  0  0  0  0  0  0  0  0  0  0  0
   -6.9677    6.1620    1.8181 H   0  0  0  0  0  0  0  0  0  0  0  0
   -8.4139    6.9731    1.1766 H   0  0  0  0  0  0  0  0  0  0  0  0
   -5.9643    4.3108    0.7415 H   0  0  0  0  0  0  0  0  0  0  0  0
   -4.0562    2.8635    0.2810 H   0  0  0  0  0  0  0  0  0  0  0  0
   -3.5496    3.1580   -3.5908 H   0  0  0  0  0  0  0  0  0  0  0  0
   -2.7081    2.8598   -5.8910 H   0  0  0  0  0  0  0  0  0  0  0  0
    1.9697    2.3542   -7.9387 H   0  0  0  0  0  0  0  0  0  0  0  0
    2.0775    3.3953   -6.5059 H   0  0  0  0  0  0  0  0  0  0  0  0
    1.9059    1.6178   -6.3193 H   0  0  0  0  0  0  0  0  0  0  0  0
    1.3046    2.8778   -4.4083 H   0  0  0  0  0  0  0  0  0  0  0  0
    0.4750    3.1954   -2.1537 H   0  0  0  0  0  0  0  0  0  0  0  0
   -4.8741    0.1948   -4.9222 H   0  0  0  0  0  0  0  0  0  0  0  0
   -5.4250   -0.1065   -3.2569 H   0  0  0  0  0  0  0  0  0  0  0  0
   -4.9570   -1.4737   -4.3148 H   0  0  0  0  0  0  0  0  0  0  0  0
   -1.0371   -2.9468   -9.5461 H   0  0  0  0  0  0  0  0  0  0  0  0
   -0.3017   -4.5240   -9.1883 H   0  0  0  0  0  0  0  0  0  0  0  0
   -2.9040   -3.5082   -7.9329 H   0  0  0  0  0  0  0  0  0  0  0  0
   -2.1821   -5.0977   -7.7015 H   0  0  0  0  0  0  0  0  0  0  0  0
   -2.8117   -4.6420   -9.2893 H   0  0  0  0  0  0  0  0  0  0  0  0
   -2.0331   -1.1454   -8.3454 H   0  0  0  0  0  0  0  0  0  0  0  0
   -1.3982    0.0293   -7.1790 H   0  0  0  0  0  0  0  0  0  0  0  0
    0.1180   -1.0333   -9.6226 H   0  0  0  0  0  0  0  0  0  0  0  0
    0.7756    0.0632   -8.4124 H   0  0  0  0  0  0  0  0  0  0  0  0
   -0.5704    0.5835   -9.4256 H   0  0  0  0  0  0  0  0  0  0  0  0
    2.6324   -5.4815   -6.8105 H   0  0  0  0  0  0  0  0  0  0  0  0
    2.0951   -9.1023   -1.6736 H   0  0  0  0  0  0  0  0  0  0  0  0
    4.4870  -10.6824   -5.8495 H   0  0  0  0  0  0  0  0  0  0  0  0
    5.2901  -12.6720   -3.1723 H   0  0  0  0  0  0  0  0  0  0  0  0
    3.8990  -14.3282   -4.4055 H   0  0  0  0  0  0  0  0  0  0  0  0
    1.7109  -13.0835   -5.1118 H   0  0  0  0  0  0  0  0  0  0  0  0
    0.4537  -12.2957   -2.9083 H   0  0  0  0  0  0  0  0  0  0  0  0
    1.8670  -13.0573   -0.8432 H   0  0  0  0  0  0  0  0  0  0  0  0
    3.9382  -14.5357   -1.7215 H   0  0  0  0  0  0  0  0  0  0  0  0
    2.3999  -15.1459   -2.3808 H   0  0  0  0  0  0  0  0  0  0  0  0
    4.0696  -11.9100   -1.0281 H   0  0  0  0  0  0  0  0  0  0  0  0
  1  2  2  0  0  0  0
  2  3  1  0  0  0  0
  3  4  2  0  0  0  0
  3  5  1  0  0  0  0
  5  6  2  0  0  0  0
  6  7  1  0  0  0  0
  7  8  2  0  0  0  0
  8  9  1  0  0  0  0
  9 10  2  0  0  0  0
 10 11  1  0  0  0  0
 11 12  2  0  0  0  0
 12 13  1  0  0  0  0
 13 14  3  0  0  0  0
 12 15  1  0  0  0  0
 15 16  3  0  0  0  0
  8 17  1  0  0  0  0
 17 18  1  0  0  0  0
 18 19  1  0  0  0  0
 19 20  2  0  0  0  0
 20 21  1  0  0  0  0
 21 22  1  0  0  0  0
 21 23  1  0  0  0  0
  1 24  1  0  0  0  0
 24 25  2  0  0  0  0
 25 26  1  0  0  0  0
 26 27  1  0  0  0  0
 27 28  2  0  0  0  0
 28 29  1  0  0  0  0
 29 30  2  0  0  0  0
 30 31  1  0  0  0  0
 31 32  1  0  0  0  0
 30 33  1  0  0  0  0
 33 34  2  0  0  0  0
 26 35  1  0  0  0  0
 35 36  2  0  0  0  0
 36 37  1  0  0  0  0
 37 38  2  0  0  0  0
 38 39  1  0  0  0  0
 39 40  1  0  0  0  0
 38 41  1  0  0  0  0
 41 42  2  0  0  0  0
 25 43  1  0  0  0  0
 43 44  1  0  0  0  0
 44 45  1  0  0  0  0
 45 46  2  0  0  0  0
 46 47  1  0  0  0  0
 47 48  1  0  0  0  0
 48 49  2  0  0  0  0
 49 50  1  0  0  0  0
 50 51  2  0  0  0  0
 51 52  1  0  0  0  0
 52 53  1  0  0  0  0
 51 54  1  0  0  0  0
 54 55  2  0  0  0  0
 47 56  1  0  0  0  0
 56 57  2  0  0  0  0
 57 58  1  0  0  0  0
 58 59  2  0  0  0  0
 59 60  1  0  0  0  0
 60 61  1  0  0  0  0
 59 62  1  0  0  0  0
 62 63  2  0  0  0  0
 46 64  1  0  0  0  0
 64 65  1  0  0  0  0
 45 66  1  0  0  0  0
 66 67  2  0  0  0  0
 67 68  1  0  0  0  0
 68 69  2  0  0  0  0
 68 70  1  0  0  0  0
 70 71  1  0  0  0  0
 70 72  1  0  0  0  0
 72 73  2  0  0  0  0
 72 74  1  0  0  0  0
 74 75  2  0  0  0  0
 75 76  1  0  0  0  0
 75 77  1  0  0  0  0
 77 78  2  0  0  0  0
 78 79  1  0  0  0  0
 78 80  1  0  0  0  0
 80 81  1  0  0  0  0
 80 82  2  0  0  0  0
 82 83  1  0  0  0  0
 83 84  2  0  0  0  0
 84 85  1  0  0  0  0
 85 86  1  0  0  0  0
 86 87  1  0  0  0  0
 85 88  2  0  0  0  0
 88 89  1  0  0  0  0
 89 90  2  0  0  0  0
 88 91  1  0  0  0  0
 91 92  1  0  0  0  0
 82 93  1  0  0  0  0
 93 94  2  0  0  0  0
 94 95  1  0  0  0  0
 95 96  2  0  0  0  0
 95 97  1  0  0  0  0
 97 98  2  0  0  0  0
 98 99  1  0  0  0  0
 99100  2  0  0  0  0
100101  1  0  0  0  0
101102  2  0  0  0  0
102103  1  0  0  0  0
103104  2  0  0  0  0
104105  1  0  0  0  0
105106  3  0  0  0  0
104107  1  0  0  0  0
107108  3  0  0  0  0
100109  1  0  0  0  0
109110  1  0  0  0  0
110111  1  0  0  0  0
111112  2  0  0  0  0
112113  1  0  0  0  0
113114  1  0  0  0  0
113115  1  0  0  0  0
 11  2  1  0  0  0  0
 23 17  1  0  0  0  0
 65 24  1  0  0  0  0
 76 66  1  0  0  0  0
 90 77  1  0  0  0  0
103 94  1  0  0  0  0
115109  1  0  0  0  0
 10  5  1  0  0  0  0
 22 18  1  0  0  0  0
 34 27  1  0  0  0  0
 42 35  1  0  0  0  0
 64 43  2  0  0  0  0
 74 67  1  0  0  0  0
 90 83  1  0  0  0  0
102 97  1  0  0  0  0
114110  1  0  0  0  0
 23  7  1  0  0  0  0
 55 48  1  0  0  0  0
 63 56  1  0  0  0  0
115 99  1  0  0  0  0
  1116  1  0  0  0  0
  6117  1  0  0  0  0
  9118  1  0  0  0  0
 17119  1  0  0  0  0
 18120  1  0  0  0  0
 19121  1  0  0  0  0
 20122  1  0  0  0  0
 21123  1  0  0  0  0
 22124  1  0  0  0  0
 22125  1  0  0  0  0
 23126  1  0  0  0  0
 28127  1  0  0  0  0
 29128  1  0  0  0  0
 32129  1  0  0  0  0
 32130  1  0  0  0  0
 32131  1  0  0  0  0
 33132  1  0  0  0  0
 34133  1  0  0  0  0
 36134  1  0  0  0  0
 37135  1  0  0  0  0
 40136  1  0  0  0  0
 40137  1  0  0  0  0
 40138  1  0  0  0  0
 41139  1  0  0  0  0
 42140  1  0  0  0  0
 49141  1  0  0  0  0
 50142  1  0  0  0  0
 53143  1  0  0  0  0
 53144  1  0  0  0  0
 53145  1  0  0  0  0
 54146  1  0  0  0  0
 55147  1  0  0  0  0
 57148  1  0  0  0  0
 58149  1  0  0  0  0
 61150  1  0  0  0  0
 61151  1  0  0  0  0
 61152  1  0  0  0  0
 62153  1  0  0  0  0
 63154  1  0  0  0  0
 71155  1  0  0  0  0
 71156  1  0  0  0  0
 71157  1  0  0  0  0
 86158  1  0  0  0  0
 86159  1  0  0  0  0
 87160  1  0  0  0  0
 87161  1  0  0  0  0
 87162  1  0  0  0  0
 91163  1  0  0  0  0
 91164  1  0  0  0  0
 92165  1  0  0  0  0
 92166  1  0  0  0  0
 92167  1  0  0  0  0
 93168  1  0  0  0  0
 98169  1  0  0  0  0
101170  1  0  0  0  0
109171  1  0  0  0  0
110172  1  0  0  0  0
111173  1  0  0  0  0
112174  1  0  0  0  0
113175  1  0  0  0  0
114176  1  0  0  0  0
114177  1  0  0  0  0
115178  1  0  0  0  0
M  END
