202

C         -5.50650       -4.59260       -3.33160
C         -6.35040       -5.46810       -2.68470
C         -6.20610       -5.87230       -1.27710
O         -5.37710       -5.47910       -0.47650
C         -7.19070       -6.95600       -1.07020
C         -7.43740       -7.65520        0.10730
C         -8.43740       -8.59360        0.00270
C         -9.13660       -8.82670       -1.18740
C         -8.89980       -8.14740       -2.35920
C         -7.88930       -7.18800       -2.27100
C         -7.39330       -6.25550       -3.27880
C         -7.94210       -6.04040       -4.52010
C         -9.00800       -6.77790       -5.06690
N         -9.88020       -7.32350       -5.57950
C         -7.56770       -4.98150       -5.36970
N         -7.36690       -4.11130       -6.09360
C         -9.98950       -9.90740       -0.57080
C         -9.60820      -11.36410       -0.90840
C        -10.27570      -12.17410        0.17930
C         -9.61700      -11.95210        1.30950
C         -8.49270      -10.98880        1.00430
C         -8.15280      -11.42450       -0.42680
C         -9.21190       -9.64550        0.75890
C         -4.75450       -3.57730       -2.73380
C         -4.93510       -2.86250       -1.53190
N         -6.02810       -2.89870       -0.71200
C         -5.87780       -2.53530        0.64170
C         -4.82570       -3.04470        1.39450
C         -4.66710       -2.67460        2.71540
C         -5.56220       -1.78810        3.29990
S         -5.45460       -1.22840        4.96870
C         -3.90510       -1.95390        5.57550
C         -6.63220       -1.29730        2.55230
C         -6.79140       -1.66670        1.23580
C         -7.30210       -3.27350       -1.15440
C         -8.12400       -4.04550       -0.32920
C         -9.34860       -4.48250       -0.78050
C         -9.79090       -4.15540       -2.06190
S        -11.32830       -4.85060       -2.56140
C        -11.56500       -4.24960       -4.25630
C         -9.00650       -3.32940       -2.85990
C         -7.77580       -2.89710       -2.40940
C         -3.86100       -1.96110       -1.32770
S         -3.49780       -0.77940       -0.11050
C         -2.05950       -0.30200       -0.98100
C         -1.90950       -0.96470       -2.18930
N         -0.96340       -0.66430       -3.15180
C         -0.42020       -1.69450       -3.92950
C         -0.10590       -1.47540       -5.26710
C          0.41140       -2.49270       -6.04480
C          0.61440       -3.75210       -5.49710
S          1.25520       -5.13320       -6.39090
C          1.50360       -4.49360       -8.07170
C          0.30820       -3.97260       -4.15590
C         -0.19770       -2.95630       -3.37780
C         -0.53960        0.66150       -3.32280
C         -1.45440        1.70880       -3.24150
C         -1.03410        3.02200       -3.31380
C          0.31310        3.31270       -3.48280
S          0.97510        4.94830       -3.53570
C         -0.49960        6.00810       -3.62670
C          1.22690        2.26770       -3.60610
C          0.80830        0.95810       -3.52930
C         -2.93400       -1.92720       -2.35990
S         -3.33850       -3.01200       -3.63460
C         -1.20070        0.74260       -0.47610
C         -1.70040        1.97260       -0.00360
N         -2.95980        2.38820        0.18160
N         -2.83440        3.62940        0.56050
C         -3.97970        4.44960        0.83390
C         -4.28880        5.34680       -0.36070
N         -1.62130        4.10220        0.63750
C         -0.83780        3.07280        0.28280
C          0.56590        2.98840        0.15480
C          1.03320        1.75080       -0.24620
C          0.17910        0.67050       -0.53700
F          0.75790       -0.48350       -0.92230
F          2.33420        1.54740       -0.49120
C          1.41700        4.15490        0.35960
C          1.04390        5.38620       -0.14750
C          1.90500        6.47680       -0.11840
C          3.17240        6.38570        0.43220
C          3.51890        5.18160        1.11170
N          4.58720        5.13960        1.91500
C          4.92000        4.01900        2.50800
C          5.99960        4.09520        3.49500
C          7.06200        4.96970        3.27390
C          8.08960        5.06960        4.18810
C          8.08560        4.30880        5.35160
C          9.24170        4.37730        6.30600
C         10.36610        3.44800        5.84310
C          7.01090        3.45850        5.58320
C          5.97650        3.35280        4.67440
C          4.17680        2.82180        2.23750
N          3.03370        2.89920        1.60460
C          2.65620        4.05480        1.04010
C          4.61420        1.48900        2.65240
C          3.66930        0.54190        3.04060
C          4.06630       -0.72370        3.42180
C          5.40880       -1.08350        3.40720
C          5.84500       -2.44120        3.87560
C          6.16930       -2.40800        5.37100
C          6.34510       -0.14430        2.98950
C          5.95930        1.12680        2.61520
C          4.08870        7.49160        0.40900
C          5.43440        7.36040        0.30510
C          6.13150        6.12060       -0.13770
O          5.64360        5.11880       -0.61210
C          7.57410        6.41350       -0.02020
C          8.62500        5.53200       -0.26910
C          9.87090        6.08330       -0.09620
C         10.06020        7.41920        0.28550
C          9.03460        8.30180        0.52200
C          7.75430        7.75920        0.35800
C          6.44450        8.38460        0.51620
C          6.22230        9.69870        0.83230
C          4.95520       10.30380        0.97110
N          3.96980       10.87970        1.09990
C          7.23670       10.65520        1.04840
N          8.00400       11.49040        1.22840
C         11.56400        7.29570        0.26400
C         12.26660        7.16390        1.63180
C         13.62170        6.58870        1.28820
C         13.44370        5.32450        0.92620
C         11.96520        5.02370        1.01940
C         11.58850        5.91500        2.20920
C         11.35280        5.80700       -0.16140
H         -5.36970       -4.70430       -4.40110
H         -6.88050       -7.44280        1.00670
H         -9.44400       -8.33530       -3.26980
H        -11.06350       -9.73220       -0.58990
H         -9.80970      -11.66140       -1.93390
H        -11.16300      -12.76140        0.03130
H         -9.84420      -12.31680        2.29420
H         -7.67740      -10.94530        1.72180
H         -7.74800      -12.43470       -0.46460
H         -7.48380      -10.74400       -0.95010
H         -9.76890       -9.29540        1.62640
H         -4.15230       -3.75540        0.94190
H         -3.84660       -3.09080        3.27640
H         -3.98260       -3.03700        5.59640
H         -3.78130       -1.57540        6.58550
H         -3.07700       -1.62680        4.95380
H         -7.32960       -0.61820        3.01810
H         -7.61740       -1.28040        0.65730
H         -7.78080       -4.31760        0.65710
H         -9.97010       -5.10460       -0.15510
H        -12.50090       -4.68780       -4.58850
H        -11.64100       -3.16630       -4.26020
H        -10.75720       -4.59480       -4.89460
H         -9.33390       -3.02560       -3.84090
H         -7.17300       -2.26830       -3.04720
H         -0.27240       -0.50090       -5.70200
H          0.64220       -2.28880       -7.07780
H          1.88420       -5.33080       -8.64850
H          0.55630       -4.16120       -8.48600
H          2.23550       -3.69120       -8.06080
H          0.48030       -4.94990       -3.73210
H         -0.40930       -3.12860       -2.33370
H         -2.50400        1.49280       -3.10440
H         -1.76930        3.80720       -3.23660
H         -1.09980        5.73280       -4.48860
H         -0.12350        7.01920       -3.74690
H         -1.07640        5.93860       -2.70870
H          2.27280        2.49770       -3.73760
H          1.52510        0.15420       -3.59770
H         -4.81290        3.77620        1.04010
H         -3.75720        5.05660        1.71390
H         -5.15910        5.96010       -0.14640
H         -4.49470        4.74420       -1.24230
H         -3.44350        5.99950       -0.56480
H          0.07930        5.48290       -0.61800
H          1.60570        7.39970       -0.59340
H          7.07050        5.55910        2.37020
H          8.90690        5.75290        4.00500
H          9.61980        5.40050        6.35550
H          8.91830        4.08250        7.30590
H         10.70360        3.72920        4.84780
H         11.21070        3.50250        6.52590
H         10.01430        2.41940        5.80650
H          6.98040        2.87510        6.49260
H          5.13980        2.70420        4.88770
H          2.62630        0.81990        3.04520
H          3.32520       -1.44770        3.73000
H          6.73180       -2.75720        3.32280
H          5.05170       -3.16900        3.69530
H          6.96460       -1.69270        5.56940
H          6.49060       -3.38910        5.71310
H          5.29230       -2.11090        5.94190
H          7.39040       -0.41650        2.95280
H          6.69790        1.83720        2.27400
H          3.64890        8.47390        0.52000
H          8.43130        4.51390       -0.56880
H          9.19850        9.32830        0.80380
H         12.08460        7.96410       -0.41900
H         12.25690        8.06600        2.23750
H         14.53250        7.15810        1.28870
H         14.17620        4.62730        0.56390
H         11.68040        3.97590        1.06800
H         10.51520        6.02150        2.35340
H         12.05410        5.58500        3.13690
H         11.73210        5.48320       -1.12890
