
  xtb     02132212003D
 energy: -362.767518950084 gnorm: 0.000362886014 xtb: 6.4.1 (unknown)
210230  0     0  0            999 V2000
   -3.3601   -2.0069    5.1812 C   0  0  0  0  0  0  0  0  0  0  0  0
   -2.9979   -2.9367    6.1332 C   0  0  0  0  0  0  0  0  0  0  0  0
   -2.0860   -4.0634    5.8837 C   0  0  0  0  0  0  0  0  0  0  0  0
   -1.4871   -4.3169    4.8536 O   0  0  0  0  0  0  0  0  0  0  0  0
   -2.1369   -4.8975    7.1032 C   0  0  0  0  0  0  0  0  0  0  0  0
   -1.4356   -6.0742    7.3471 C   0  0  0  0  0  0  0  0  0  0  0  0
   -1.6592   -6.6115    8.5933 C   0  0  0  0  0  0  0  0  0  0  0  0
   -2.5196   -6.0242    9.5282 C   0  0  0  0  0  0  0  0  0  0  0  0
   -3.2243   -4.8659    9.2975 C   0  0  0  0  0  0  0  0  0  0  0  0
   -3.0108   -4.3065    8.0362 C   0  0  0  0  0  0  0  0  0  0  0  0
   -3.5420   -3.0770    7.4536 C   0  0  0  0  0  0  0  0  0  0  0  0
   -4.2956   -2.1338    8.1105 C   0  0  0  0  0  0  0  0  0  0  0  0
   -4.7773   -2.2620    9.4263 C   0  0  0  0  0  0  0  0  0  0  0  0
   -5.2039   -2.2848   10.4932 N   0  0  0  0  0  0  0  0  0  0  0  0
   -4.6118   -0.8700    7.5767 C   0  0  0  0  0  0  0  0  0  0  0  0
   -4.8590    0.2019    7.2422 N   0  0  0  0  0  0  0  0  0  0  0  0
   -2.2624   -7.0953   10.5594 C   0  0  0  0  0  0  0  0  0  0  0  0
   -3.3614   -8.1639   10.7354 C   0  0  0  0  0  0  0  0  0  0  0  0
   -2.6487   -9.3080   11.4196 C   0  0  0  0  0  0  0  0  0  0  0  0
   -1.8359   -9.8660   10.5315 C   0  0  0  0  0  0  0  0  0  0  0  0
   -1.9852   -9.1078    9.2323 C   0  0  0  0  0  0  0  0  0  0  0  0
   -3.4705   -8.7328    9.3148 C   0  0  0  0  0  0  0  0  0  0  0  0
   -1.3035   -7.7522    9.5152 C   0  0  0  0  0  0  0  0  0  0  0  0
   -2.6117   -1.6506    4.0580 C   0  0  0  0  0  0  0  0  0  0  0  0
   -1.2252   -1.7273    3.7984 C   0  0  0  0  0  0  0  0  0  0  0  0
   -0.2470   -1.9683    4.7182 N   0  0  0  0  0  0  0  0  0  0  0  0
    1.0198   -2.4105    4.2926 C   0  0  0  0  0  0  0  0  0  0  0  0
    2.1686   -1.8210    4.8181 C   0  0  0  0  0  0  0  0  0  0  0  0
    3.4095   -2.2398    4.3967 C   0  0  0  0  0  0  0  0  0  0  0  0
    3.5286   -3.2532    3.4457 C   0  0  0  0  0  0  0  0  0  0  0  0
    5.1670   -3.6981    2.9817 S   0  0  0  0  0  0  0  0  0  0  0  0
    4.9354   -4.9084    1.6530 C   0  0  0  0  0  0  0  0  0  0  0  0
    2.3842   -3.8556    2.9391 C   0  0  0  0  0  0  0  0  0  0  0  0
    1.1378   -3.4366    3.3619 C   0  0  0  0  0  0  0  0  0  0  0  0
   -0.4360   -1.7437    6.0897 C   0  0  0  0  0  0  0  0  0  0  0  0
   -1.1215   -0.6218    6.5499 C   0  0  0  0  0  0  0  0  0  0  0  0
   -1.3649   -0.4464    7.8962 C   0  0  0  0  0  0  0  0  0  0  0  0
   -0.9296   -1.3982    8.8131 C   0  0  0  0  0  0  0  0  0  0  0  0
   -1.2704   -1.3378   10.5377 S   0  0  0  0  0  0  0  0  0  0  0  0
   -2.3042    0.1391   10.7385 C   0  0  0  0  0  0  0  0  0  0  0  0
   -0.1829   -2.4863    8.3625 C   0  0  0  0  0  0  0  0  0  0  0  0
    0.0672   -2.6561    7.0190 C   0  0  0  0  0  0  0  0  0  0  0  0
   -0.9532   -1.3489    2.4630 C   0  0  0  0  0  0  0  0  0  0  0  0
    0.4761   -1.2193    1.4925 S   0  0  0  0  0  0  0  0  0  0  0  0
   -0.4359   -0.5145    0.1585 C   0  0  0  0  0  0  0  0  0  0  0  0
   -1.7816   -0.4092    0.4608 C   0  0  0  0  0  0  0  0  0  0  0  0
   -2.7807    0.2170   -0.3198 N   0  0  0  0  0  0  0  0  0  0  0  0
   -3.8491   -0.5702   -0.7597 C   0  0  0  0  0  0  0  0  0  0  0  0
   -4.8409   -0.0147   -1.5735 C   0  0  0  0  0  0  0  0  0  0  0  0
   -5.8859   -0.7843   -2.0324 C   0  0  0  0  0  0  0  0  0  0  0  0
   -5.9625   -2.1369   -1.7127 C   0  0  0  0  0  0  0  0  0  0  0  0
   -7.3150   -3.0558   -2.3921 S   0  0  0  0  0  0  0  0  0  0  0  0
   -7.2782   -4.6143   -1.4597 C   0  0  0  0  0  0  0  0  0  0  0  0
   -4.9629   -2.7065   -0.9421 C   0  0  0  0  0  0  0  0  0  0  0  0
   -3.9201   -1.9320   -0.4752 C   0  0  0  0  0  0  0  0  0  0  0  0
   -2.9836    1.5684    0.0488 C   0  0  0  0  0  0  0  0  0  0  0  0
   -1.8999    2.4476    0.0538 C   0  0  0  0  0  0  0  0  0  0  0  0
   -2.0685    3.7667    0.4152 C   0  0  0  0  0  0  0  0  0  0  0  0
   -3.3210    4.2438    0.7934 C   0  0  0  0  0  0  0  0  0  0  0  0
   -3.4197    5.9568    1.2094 S   0  0  0  0  0  0  0  0  0  0  0  0
   -5.1236    6.1666    1.7975 C   0  0  0  0  0  0  0  0  0  0  0  0
   -4.3941    3.3647    0.8305 C   0  0  0  0  0  0  0  0  0  0  0  0
   -4.2217    2.0413    0.4729 C   0  0  0  0  0  0  0  0  0  0  0  0
   -2.0569   -0.8912    1.7586 C   0  0  0  0  0  0  0  0  0  0  0  0
   -3.4980   -0.9343    2.7022 S   0  0  0  0  0  0  0  0  0  0  0  0
    0.3262   -0.0196   -0.9421 C   0  0  0  0  0  0  0  0  0  0  0  0
   -0.0306    0.3758   -2.2290 C   0  0  0  0  0  0  0  0  0  0  0  0
   -1.2170    0.1297   -2.9018 N   0  0  0  0  0  0  0  0  0  0  0  0
   -1.7973   -1.1396   -2.9804 C   0  0  0  0  0  0  0  0  0  0  0  0
   -1.1846   -2.2790   -2.4599 C   0  0  0  0  0  0  0  0  0  0  0  0
   -1.7855   -3.5145   -2.5793 C   0  0  0  0  0  0  0  0  0  0  0  0
   -3.0023   -3.6538   -3.2377 C   0  0  0  0  0  0  0  0  0  0  0  0
   -3.7102   -5.2702   -3.3087 S   0  0  0  0  0  0  0  0  0  0  0  0
   -5.0005   -5.1136   -4.5784 C   0  0  0  0  0  0  0  0  0  0  0  0
   -3.6139   -2.5275   -3.7689 C   0  0  0  0  0  0  0  0  0  0  0  0
   -3.0248   -1.2899   -3.6275 C   0  0  0  0  0  0  0  0  0  0  0  0
   -1.5840    1.1134   -3.8521 C   0  0  0  0  0  0  0  0  0  0  0  0
   -1.6754    0.8137   -5.2082 C   0  0  0  0  0  0  0  0  0  0  0  0
   -2.0305    1.7853   -6.1223 C   0  0  0  0  0  0  0  0  0  0  0  0
   -2.2924    3.0789   -5.6919 C   0  0  0  0  0  0  0  0  0  0  0  0
   -2.7675    4.3956   -6.7689 S   0  0  0  0  0  0  0  0  0  0  0  0
   -3.1344    3.5638   -8.3420 C   0  0  0  0  0  0  0  0  0  0  0  0
   -2.1764    3.3901   -4.3399 C   0  0  0  0  0  0  0  0  0  0  0  0
   -1.8273    2.4179   -3.4281 C   0  0  0  0  0  0  0  0  0  0  0  0
    1.0522    1.0440   -2.8627 C   0  0  0  0  0  0  0  0  0  0  0  0
    1.2154    1.9226   -4.3460 S   0  0  0  0  0  0  0  0  0  0  0  0
    2.9099    2.2265   -4.0008 C   0  0  0  0  0  0  0  0  0  0  0  0
    3.3030    1.7311   -2.7573 C   0  0  0  0  0  0  0  0  0  0  0  0
    4.5190    1.9408   -2.1439 N   0  0  0  0  0  0  0  0  0  0  0  0
    5.1477    3.1939   -2.2171 C   0  0  0  0  0  0  0  0  0  0  0  0
    4.3855    4.3592   -2.2186 C   0  0  0  0  0  0  0  0  0  0  0  0
    4.9870    5.5983   -2.3012 C   0  0  0  0  0  0  0  0  0  0  0  0
    6.3702    5.6943   -2.3871 C   0  0  0  0  0  0  0  0  0  0  0  0
    7.2527    7.2131   -2.4964 S   0  0  0  0  0  0  0  0  0  0  0  0
    5.9494    8.4748   -2.5393 C   0  0  0  0  0  0  0  0  0  0  0  0
    7.1377    4.5299   -2.3786 C   0  0  0  0  0  0  0  0  0  0  0  0
    6.5376    3.2948   -2.2938 C   0  0  0  0  0  0  0  0  0  0  0  0
    5.1259    0.8671   -1.4824 C   0  0  0  0  0  0  0  0  0  0  0  0
    5.8764    1.0643   -0.3265 C   0  0  0  0  0  0  0  0  0  0  0  0
    6.5325    0.0089    0.2753 C   0  0  0  0  0  0  0  0  0  0  0  0
    6.4438   -1.2670   -0.2668 C   0  0  0  0  0  0  0  0  0  0  0  0
    7.3093   -2.6713    0.3511 S   0  0  0  0  0  0  0  0  0  0  0  0
    8.1657   -2.0568    1.8250 C   0  0  0  0  0  0  0  0  0  0  0  0
    5.6556   -1.4757   -1.3977 C   0  0  0  0  0  0  0  0  0  0  0  0
    5.0056   -0.4242   -1.9999 C   0  0  0  0  0  0  0  0  0  0  0  0
    2.2285    1.0559   -2.1320 C   0  0  0  0  0  0  0  0  0  0  0  0
    2.0325    0.2892   -0.5989 S   0  0  0  0  0  0  0  0  0  0  0  0
    3.6796    2.9259   -4.9739 C   0  0  0  0  0  0  0  0  0  0  0  0
    3.0725    3.8458   -5.8591 C   0  0  0  0  0  0  0  0  0  0  0  0
    1.7800    4.1616   -5.9955 N   0  0  0  0  0  0  0  0  0  0  0  0
    1.7606    5.0442   -6.9497 N   0  0  0  0  0  0  0  0  0  0  0  0
    0.5422    5.6729   -7.3696 C   0  0  0  0  0  0  0  0  0  0  0  0
    0.0509    6.6486   -6.3065 C   0  0  0  0  0  0  0  0  0  0  0  0
    2.9154    5.3633   -7.4729 N   0  0  0  0  0  0  0  0  0  0  0  0
    3.8076    4.6248   -6.7978 C   0  0  0  0  0  0  0  0  0  0  0  0
    5.2166    4.5193   -6.9131 C   0  0  0  0  0  0  0  0  0  0  0  0
    5.7720    3.5218   -6.1016 C   0  0  0  0  0  0  0  0  0  0  0  0
    5.0483    2.7597   -5.1879 C   0  0  0  0  0  0  0  0  0  0  0  0
    5.7035    1.7655   -4.5569 F   0  0  0  0  0  0  0  0  0  0  0  0
    7.0883    3.2770   -6.1912 F   0  0  0  0  0  0  0  0  0  0  0  0
    6.0421    5.2233   -7.8335 C   0  0  0  0  0  0  0  0  0  0  0  0
    5.8097    6.3570   -8.5501 C   0  0  0  0  0  0  0  0  0  0  0  0
    6.6676    6.6224   -9.7495 C   0  0  0  0  0  0  0  0  0  0  0  0
    7.6873    6.0532  -10.0579 O   0  0  0  0  0  0  0  0  0  0  0  0
    5.9512    7.6820  -10.4589 C   0  0  0  0  0  0  0  0  0  0  0  0
    6.1396    8.5230  -11.9367 S   0  0  0  0  0  0  0  0  0  0  0  0
    4.7072    9.4413  -11.5746 C   0  0  0  0  0  0  0  0  0  0  0  0
    4.1003   10.7344  -12.7858 Br  0  0  0  0  0  0  0  0  0  0  0  0
    4.1205    9.1260  -10.3795 C   0  0  0  0  0  0  0  0  0  0  0  0
    4.8409    8.1032   -9.7393 C   0  0  0  0  0  0  0  0  0  0  0  0
    4.7927    7.3793   -8.4804 C   0  0  0  0  0  0  0  0  0  0  0  0
    4.0546    7.7738   -7.3953 C   0  0  0  0  0  0  0  0  0  0  0  0
    3.0739    8.7804   -7.4848 C   0  0  0  0  0  0  0  0  0  0  0  0
    2.2383    9.5663   -7.5337 N   0  0  0  0  0  0  0  0  0  0  0  0
    4.2250    7.2937   -6.0854 C   0  0  0  0  0  0  0  0  0  0  0  0
    4.3386    6.9946   -4.9823 N   0  0  0  0  0  0  0  0  0  0  0  0
   -4.3283   -1.5280    5.2701 H   0  0  0  0  0  0  0  0  0  0  0  0
   -0.7735   -6.4911    6.6039 H   0  0  0  0  0  0  0  0  0  0  0  0
   -3.8843   -4.4230   10.0247 H   0  0  0  0  0  0  0  0  0  0  0  0
   -1.8461   -6.7517   11.5044 H   0  0  0  0  0  0  0  0  0  0  0  0
   -4.2739   -7.8055   11.2038 H   0  0  0  0  0  0  0  0  0  0  0  0
   -2.7637   -9.5504   12.4598 H   0  0  0  0  0  0  0  0  0  0  0  0
   -1.1364  -10.6674   10.6817 H   0  0  0  0  0  0  0  0  0  0  0  0
   -1.6448   -9.6103    8.3307 H   0  0  0  0  0  0  0  0  0  0  0  0
   -4.1189   -9.6065    9.2696 H   0  0  0  0  0  0  0  0  0  0  0  0
   -3.7862   -8.0056    8.5691 H   0  0  0  0  0  0  0  0  0  0  0  0
   -0.2489   -7.8508    9.7668 H   0  0  0  0  0  0  0  0  0  0  0  0
    2.0787   -1.0319    5.5500 H   0  0  0  0  0  0  0  0  0  0  0  0
    4.3035   -1.7847    4.7944 H   0  0  0  0  0  0  0  0  0  0  0  0
    5.9327   -5.1411    1.2935 H   0  0  0  0  0  0  0  0  0  0  0  0
    4.3542   -4.4617    0.8521 H   0  0  0  0  0  0  0  0  0  0  0  0
    4.4606   -5.8041    2.0429 H   0  0  0  0  0  0  0  0  0  0  0  0
    2.4474   -4.6584    2.2230 H   0  0  0  0  0  0  0  0  0  0  0  0
    0.2460   -3.9251    3.0020 H   0  0  0  0  0  0  0  0  0  0  0  0
   -1.4778    0.1180    5.8488 H   0  0  0  0  0  0  0  0  0  0  0  0
   -1.9053    0.4298    8.2146 H   0  0  0  0  0  0  0  0  0  0  0  0
   -3.2043    0.0534   10.1370 H   0  0  0  0  0  0  0  0  0  0  0  0
   -1.7373    1.0289   10.4809 H   0  0  0  0  0  0  0  0  0  0  0  0
   -2.5717    0.1617   11.7903 H   0  0  0  0  0  0  0  0  0  0  0  0
    0.1771   -3.2078    9.0797 H   0  0  0  0  0  0  0  0  0  0  0  0
    0.6348   -3.5071    6.6748 H   0  0  0  0  0  0  0  0  0  0  0  0
   -4.7798    1.0258   -1.8551 H   0  0  0  0  0  0  0  0  0  0  0  0
   -6.6497   -0.3461   -2.6569 H   0  0  0  0  0  0  0  0  0  0  0  0
   -6.3961   -5.1929   -1.7202 H   0  0  0  0  0  0  0  0  0  0  0  0
   -8.1729   -5.1542   -1.7542 H   0  0  0  0  0  0  0  0  0  0  0  0
   -7.3065   -4.3992   -0.3958 H   0  0  0  0  0  0  0  0  0  0  0  0
   -4.9708   -3.7567   -0.7005 H   0  0  0  0  0  0  0  0  0  0  0  0
   -3.1467   -2.4153    0.0996 H   0  0  0  0  0  0  0  0  0  0  0  0
   -0.9165    2.0924   -0.2124 H   0  0  0  0  0  0  0  0  0  0  0  0
   -1.2279    4.4437    0.4095 H   0  0  0  0  0  0  0  0  0  0  0  0
   -5.8245    5.9723    0.9907 H   0  0  0  0  0  0  0  0  0  0  0  0
   -5.3045    5.5139    2.6464 H   0  0  0  0  0  0  0  0  0  0  0  0
   -5.1988    7.2043    2.1074 H   0  0  0  0  0  0  0  0  0  0  0  0
   -5.3710    3.6888    1.1506 H   0  0  0  0  0  0  0  0  0  0  0  0
   -5.0603    1.3650    0.5401 H   0  0  0  0  0  0  0  0  0  0  0  0
   -0.2243   -2.2112   -1.9740 H   0  0  0  0  0  0  0  0  0  0  0  0
   -1.3061   -4.3897   -2.1679 H   0  0  0  0  0  0  0  0  0  0  0  0
   -5.8066   -4.4745   -4.2287 H   0  0  0  0  0  0  0  0  0  0  0  0
   -5.3731   -6.1199   -4.7434 H   0  0  0  0  0  0  0  0  0  0  0  0
   -4.5616   -4.7262   -5.4929 H   0  0  0  0  0  0  0  0  0  0  0  0
   -4.5595   -2.5933   -4.2811 H   0  0  0  0  0  0  0  0  0  0  0  0
   -3.5324   -0.4261   -4.0259 H   0  0  0  0  0  0  0  0  0  0  0  0
   -1.4604   -0.1880   -5.5495 H   0  0  0  0  0  0  0  0  0  0  0  0
   -2.0879    1.5213   -7.1659 H   0  0  0  0  0  0  0  0  0  0  0  0
   -2.2261    3.1635   -8.7835 H   0  0  0  0  0  0  0  0  0  0  0  0
   -3.8704    2.7823   -8.1797 H   0  0  0  0  0  0  0  0  0  0  0  0
   -3.5479    4.3317   -8.9884 H   0  0  0  0  0  0  0  0  0  0  0  0
   -2.3734    4.3990   -4.0116 H   0  0  0  0  0  0  0  0  0  0  0  0
   -1.7525    2.6618   -2.3797 H   0  0  0  0  0  0  0  0  0  0  0  0
    3.3093    4.2963   -2.1494 H   0  0  0  0  0  0  0  0  0  0  0  0
    4.3655    6.4769   -2.3020 H   0  0  0  0  0  0  0  0  0  0  0  0
    5.4155    8.4880   -1.5934 H   0  0  0  0  0  0  0  0  0  0  0  0
    5.2824    8.2743   -3.3727 H   0  0  0  0  0  0  0  0  0  0  0  0
    6.4610    9.4207   -2.6876 H   0  0  0  0  0  0  0  0  0  0  0  0
    8.2114    4.6081   -2.4521 H   0  0  0  0  0  0  0  0  0  0  0  0
    7.1379    2.3983   -2.3131 H   0  0  0  0  0  0  0  0  0  0  0  0
    5.9548    2.0547    0.0963 H   0  0  0  0  0  0  0  0  0  0  0  0
    7.1132    0.1966    1.1636 H   0  0  0  0  0  0  0  0  0  0  0  0
    7.4377   -1.7014    2.5478 H   0  0  0  0  0  0  0  0  0  0  0  0
    8.8735   -1.2813    1.5474 H   0  0  0  0  0  0  0  0  0  0  0  0
    8.6957   -2.9122    2.2318 H   0  0  0  0  0  0  0  0  0  0  0  0
    5.5853   -2.4698   -1.8122 H   0  0  0  0  0  0  0  0  0  0  0  0
    4.4289   -0.5880   -2.8977 H   0  0  0  0  0  0  0  0  0  0  0  0
    0.7505    6.1849   -8.3100 H   0  0  0  0  0  0  0  0  0  0  0  0
   -0.2072    4.8927   -7.5190 H   0  0  0  0  0  0  0  0  0  0  0  0
   -0.0638    6.1281   -5.3593 H   0  0  0  0  0  0  0  0  0  0  0  0
   -0.9132    7.0502   -6.6026 H   0  0  0  0  0  0  0  0  0  0  0  0
    0.7509    7.4710   -6.1816 H   0  0  0  0  0  0  0  0  0  0  0  0
    6.9898    4.7422   -8.0592 H   0  0  0  0  0  0  0  0  0  0  0  0
    3.2315    9.6010  -10.0076 H   0  0  0  0  0  0  0  0  0  0  0  0
  1  2  2  0  0  0  0
  2  3  1  0  0  0  0
  3  4  2  0  0  0  0
  3  5  1  0  0  0  0
  5  6  2  0  0  0  0
  6  7  1  0  0  0  0
  7  8  2  0  0  0  0
  8  9  1  0  0  0  0
  9 10  2  0  0  0  0
 10 11  1  0  0  0  0
 11 12  2  0  0  0  0
 12 13  1  0  0  0  0
 13 14  3  0  0  0  0
 12 15  1  0  0  0  0
 15 16  3  0  0  0  0
  8 17  1  0  0  0  0
 17 18  1  0  0  0  0
 18 19  1  0  0  0  0
 19 20  2  0  0  0  0
 20 21  1  0  0  0  0
 21 22  1  0  0  0  0
 21 23  1  0  0  0  0
  1 24  1  0  0  0  0
 24 25  2  0  0  0  0
 25 26  1  0  0  0  0
 26 27  1  0  0  0  0
 27 28  2  0  0  0  0
 28 29  1  0  0  0  0
 29 30  2  0  0  0  0
 30 31  1  0  0  0  0
 31 32  1  0  0  0  0
 30 33  1  0  0  0  0
 33 34  2  0  0  0  0
 26 35  1  0  0  0  0
 35 36  2  0  0  0  0
 36 37  1  0  0  0  0
 37 38  2  0  0  0  0
 38 39  1  0  0  0  0
 39 40  1  0  0  0  0
 38 41  1  0  0  0  0
 41 42  2  0  0  0  0
 25 43  1  0  0  0  0
 43 44  1  0  0  0  0
 44 45  1  0  0  0  0
 45 46  2  0  0  0  0
 46 47  1  0  0  0  0
 47 48  1  0  0  0  0
 48 49  2  0  0  0  0
 49 50  1  0  0  0  0
 50 51  2  0  0  0  0
 51 52  1  0  0  0  0
 52 53  1  0  0  0  0
 51 54  1  0  0  0  0
 54 55  2  0  0  0  0
 47 56  1  0  0  0  0
 56 57  2  0  0  0  0
 57 58  1  0  0  0  0
 58 59  2  0  0  0  0
 59 60  1  0  0  0  0
 60 61  1  0  0  0  0
 59 62  1  0  0  0  0
 62 63  2  0  0  0  0
 46 64  1  0  0  0  0
 64 65  1  0  0  0  0
 45 66  1  0  0  0  0
 66 67  2  0  0  0  0
 67 68  1  0  0  0  0
 68 69  1  0  0  0  0
 69 70  2  0  0  0  0
 70 71  1  0  0  0  0
 71 72  2  0  0  0  0
 72 73  1  0  0  0  0
 73 74  1  0  0  0  0
 72 75  1  0  0  0  0
 75 76  2  0  0  0  0
 68 77  1  0  0  0  0
 77 78  2  0  0  0  0
 78 79  1  0  0  0  0
 79 80  2  0  0  0  0
 80 81  1  0  0  0  0
 81 82  1  0  0  0  0
 80 83  1  0  0  0  0
 83 84  2  0  0  0  0
 67 85  1  0  0  0  0
 85 86  1  0  0  0  0
 86 87  1  0  0  0  0
 87 88  2  0  0  0  0
 88 89  1  0  0  0  0
 89 90  1  0  0  0  0
 90 91  2  0  0  0  0
 91 92  1  0  0  0  0
 92 93  2  0  0  0  0
 93 94  1  0  0  0  0
 94 95  1  0  0  0  0
 93 96  1  0  0  0  0
 96 97  2  0  0  0  0
 89 98  1  0  0  0  0
 98 99  2  0  0  0  0
 99100  1  0  0  0  0
100101  2  0  0  0  0
101102  1  0  0  0  0
102103  1  0  0  0  0
101104  1  0  0  0  0
104105  2  0  0  0  0
 88106  1  0  0  0  0
106107  1  0  0  0  0
 87108  1  0  0  0  0
108109  1  0  0  0  0
109110  2  0  0  0  0
110111  1  0  0  0  0
111112  1  0  0  0  0
112113  1  0  0  0  0
111114  1  0  0  0  0
114115  2  0  0  0  0
115116  1  0  0  0  0
116117  2  0  0  0  0
117118  1  0  0  0  0
118119  1  0  0  0  0
117120  1  0  0  0  0
116121  1  0  0  0  0
121122  2  0  0  0  0
122123  1  0  0  0  0
123124  2  0  0  0  0
123125  1  0  0  0  0
125126  1  0  0  0  0
126127  1  0  0  0  0
127128  1  0  0  0  0
127129  2  0  0  0  0
129130  1  0  0  0  0
130131  1  0  0  0  0
131132  2  0  0  0  0
132133  1  0  0  0  0
133134  3  0  0  0  0
132135  1  0  0  0  0
135136  3  0  0  0  0
 11  2  1  0  0  0  0
 23 17  1  0  0  0  0
 65 24  1  0  0  0  0
107 66  1  0  0  0  0
118108  2  0  0  0  0
131122  1  0  0  0  0
 10  5  1  0  0  0  0
 22 18  1  0  0  0  0
 34 27  1  0  0  0  0
 42 35  1  0  0  0  0
 64 43  2  0  0  0  0
 76 69  1  0  0  0  0
 84 77  1  0  0  0  0
106 85  2  0  0  0  0
115109  1  0  0  0  0
130125  2  0  0  0  0
 23  7  1  0  0  0  0
 55 48  1  0  0  0  0
 63 56  1  0  0  0  0
 97 90  1  0  0  0  0
105 98  1  0  0  0  0
  1137  1  0  0  0  0
  6138  1  0  0  0  0
  9139  1  0  0  0  0
 17140  1  0  0  0  0
 18141  1  0  0  0  0
 19142  1  0  0  0  0
 20143  1  0  0  0  0
 21144  1  0  0  0  0
 22145  1  0  0  0  0
 22146  1  0  0  0  0
 23147  1  0  0  0  0
 28148  1  0  0  0  0
 29149  1  0  0  0  0
 32150  1  0  0  0  0
 32151  1  0  0  0  0
 32152  1  0  0  0  0
 33153  1  0  0  0  0
 34154  1  0  0  0  0
 36155  1  0  0  0  0
 37156  1  0  0  0  0
 40157  1  0  0  0  0
 40158  1  0  0  0  0
 40159  1  0  0  0  0
 41160  1  0  0  0  0
 42161  1  0  0  0  0
 49162  1  0  0  0  0
 50163  1  0  0  0  0
 53164  1  0  0  0  0
 53165  1  0  0  0  0
 53166  1  0  0  0  0
 54167  1  0  0  0  0
 55168  1  0  0  0  0
 57169  1  0  0  0  0
 58170  1  0  0  0  0
 61171  1  0  0  0  0
 61172  1  0  0  0  0
 61173  1  0  0  0  0
 62174  1  0  0  0  0
 63175  1  0  0  0  0
 70176  1  0  0  0  0
 71177  1  0  0  0  0
 74178  1  0  0  0  0
 74179  1  0  0  0  0
 74180  1  0  0  0  0
 75181  1  0  0  0  0
 76182  1  0  0  0  0
 78183  1  0  0  0  0
 79184  1  0  0  0  0
 82185  1  0  0  0  0
 82186  1  0  0  0  0
 82187  1  0  0  0  0
 83188  1  0  0  0  0
 84189  1  0  0  0  0
 91190  1  0  0  0  0
 92191  1  0  0  0  0
 95192  1  0  0  0  0
 95193  1  0  0  0  0
 95194  1  0  0  0  0
 96195  1  0  0  0  0
 97196  1  0  0  0  0
 99197  1  0  0  0  0
100198  1  0  0  0  0
103199  1  0  0  0  0
103200  1  0  0  0  0
103201  1  0  0  0  0
104202  1  0  0  0  0
105203  1  0  0  0  0
112204  1  0  0  0  0
112205  1  0  0  0  0
113206  1  0  0  0  0
113207  1  0  0  0  0
113208  1  0  0  0  0
121209  1  0  0  0  0
129210  1  0  0  0  0
M  END
