
  xtb     02042216353D
 energy: -352.175863165489 gnorm: 0.000697050434 xtb: 6.4.1 (unknown)
213235  0     0  0            999 V2000
    6.5382   -4.8228   -1.9072 C   0  0  0  0  0  0  0  0  0  0  0  0
    6.9576   -5.4737   -3.0409 C   0  0  0  0  0  0  0  0  0  0  0  0
    7.0134   -4.9892   -4.4347 C   0  0  0  0  0  0  0  0  0  0  0  0
    6.5783   -3.9571   -4.9102 O   0  0  0  0  0  0  0  0  0  0  0  0
    7.7419   -6.0259   -5.1934 C   0  0  0  0  0  0  0  0  0  0  0  0
    8.0730   -5.9875   -6.5461 C   0  0  0  0  0  0  0  0  0  0  0  0
    8.7567   -7.0952   -6.9862 C   0  0  0  0  0  0  0  0  0  0  0  0
    9.0971   -8.1591   -6.1405 C   0  0  0  0  0  0  0  0  0  0  0  0
    8.7779   -8.2090   -4.8044 C   0  0  0  0  0  0  0  0  0  0  0  0
    8.0697   -7.0965   -4.3402 C   0  0  0  0  0  0  0  0  0  0  0  0
    7.5181   -6.8107   -3.0189 C   0  0  0  0  0  0  0  0  0  0  0  0
    7.4309   -7.7160   -1.9894 C   0  0  0  0  0  0  0  0  0  0  0  0
    6.7019   -7.5353   -0.7977 C   0  0  0  0  0  0  0  0  0  0  0  0
    6.0896   -7.5100    0.1751 N   0  0  0  0  0  0  0  0  0  0  0  0
    7.9877   -9.0108   -2.0179 C   0  0  0  0  0  0  0  0  0  0  0  0
    8.4204  -10.0735   -1.9653 N   0  0  0  0  0  0  0  0  0  0  0  0
    9.7669   -8.9318   -7.2496 C   0  0  0  0  0  0  0  0  0  0  0  0
    8.9686  -10.1125   -7.8423 C   0  0  0  0  0  0  0  0  0  0  0  0
    9.6281  -10.3601   -9.1797 C   0  0  0  0  0  0  0  0  0  0  0  0
    9.3042   -9.3538   -9.9817 C   0  0  0  0  0  0  0  0  0  0  0  0
    8.4201   -8.4092   -9.1998 C   0  0  0  0  0  0  0  0  0  0  0  0
    7.6831   -9.4161   -8.3072 C   0  0  0  0  0  0  0  0  0  0  0  0
    9.3850   -7.7467   -8.1934 C   0  0  0  0  0  0  0  0  0  0  0  0
    5.8470   -3.6155   -1.7315 C   0  0  0  0  0  0  0  0  0  0  0  0
    5.3731   -2.6583   -2.6115 C   0  0  0  0  0  0  0  0  0  0  0  0
    4.5786   -1.6881   -2.0113 C   0  0  0  0  0  0  0  0  0  0  0  0
    4.0116   -0.5571   -2.7583 C   0  0  0  0  0  0  0  0  0  0  0  0
    4.2727    0.7599   -2.3574 C   0  0  0  0  0  0  0  0  0  0  0  0
    5.0264    0.8973   -1.2252 O   0  0  0  0  0  0  0  0  0  0  0  0
    5.7139    2.1132   -0.9994 C   0  0  0  0  0  0  0  0  0  0  0  0
    6.8008    2.3788   -2.0349 C   0  0  0  0  0  0  0  0  0  0  0  0
    3.7520    1.8161   -3.0945 C   0  0  0  0  0  0  0  0  0  0  0  0
    2.9888    1.5580   -4.2176 C   0  0  0  0  0  0  0  0  0  0  0  0
    2.7408    0.2649   -4.6363 C   0  0  0  0  0  0  0  0  0  0  0  0
    3.2474   -0.8057   -3.9073 C   0  0  0  0  0  0  0  0  0  0  0  0
    3.0172   -2.1180   -4.1774 O   0  0  0  0  0  0  0  0  0  0  0  0
    2.6530   -2.5122   -5.4855 C   0  0  0  0  0  0  0  0  0  0  0  0
    3.7973   -2.3385   -6.4784 C   0  0  0  0  0  0  0  0  0  0  0  0
    4.4119   -1.8841   -0.6355 C   0  0  0  0  0  0  0  0  0  0  0  0
    5.3289   -3.2451   -0.0937 S   0  0  0  0  0  0  0  0  0  0  0  0
    3.4670   -1.1669    0.1556 C   0  0  0  0  0  0  0  0  0  0  0  0
    3.4701   -0.7043    1.4689 C   0  0  0  0  0  0  0  0  0  0  0  0
    4.4869   -0.8388    2.3977 N   0  0  0  0  0  0  0  0  0  0  0  0
    4.7997    0.2671    3.1980 C   0  0  0  0  0  0  0  0  0  0  0  0
    5.1492    0.1121    4.5406 C   0  0  0  0  0  0  0  0  0  0  0  0
    5.4413    1.2132    5.3121 C   0  0  0  0  0  0  0  0  0  0  0  0
    5.3859    2.4969    4.7713 C   0  0  0  0  0  0  0  0  0  0  0  0
    5.7796    3.8272    5.8626 S   0  0  0  0  0  0  0  0  0  0  0  0
    5.3717    5.3133    4.9025 C   0  0  0  0  0  0  0  0  0  0  0  0
    5.0424    2.6572    3.4364 C   0  0  0  0  0  0  0  0  0  0  0  0
    4.7545    1.5514    2.6607 C   0  0  0  0  0  0  0  0  0  0  0  0
    5.0693   -2.0849    2.6705 C   0  0  0  0  0  0  0  0  0  0  0  0
    6.4305   -2.1668    2.9687 C   0  0  0  0  0  0  0  0  0  0  0  0
    7.0014   -3.3831    3.2563 C   0  0  0  0  0  0  0  0  0  0  0  0
    6.2327   -4.5491    3.2543 C   0  0  0  0  0  0  0  0  0  0  0  0
    7.0802   -6.0352    3.6678 S   0  0  0  0  0  0  0  0  0  0  0  0
    5.8534   -7.3410    3.3901 C   0  0  0  0  0  0  0  0  0  0  0  0
    4.8787   -4.4708    2.9595 C   0  0  0  0  0  0  0  0  0  0  0  0
    4.3023   -3.2466    2.6724 C   0  0  0  0  0  0  0  0  0  0  0  0
    2.2951    0.0441    1.7415 C   0  0  0  0  0  0  0  0  0  0  0  0
    1.6865    0.9188    3.1093 S   0  0  0  0  0  0  0  0  0  0  0  0
    0.2528    1.3821    2.2131 C   0  0  0  0  0  0  0  0  0  0  0  0
    0.2545    0.8790    0.9256 C   0  0  0  0  0  0  0  0  0  0  0  0
   -0.7790    1.0315   -0.0202 N   0  0  0  0  0  0  0  0  0  0  0  0
   -0.6586    2.0023   -1.0162 C   0  0  0  0  0  0  0  0  0  0  0  0
    0.5466    2.6632   -1.2562 C   0  0  0  0  0  0  0  0  0  0  0  0
    0.6415    3.5866   -2.2738 C   0  0  0  0  0  0  0  0  0  0  0  0
   -0.4578    3.8782   -3.0748 C   0  0  0  0  0  0  0  0  0  0  0  0
   -0.1839    5.0017   -4.4143 S   0  0  0  0  0  0  0  0  0  0  0  0
   -1.7387    4.9621   -5.3454 C   0  0  0  0  0  0  0  0  0  0  0  0
   -1.6792    3.2825   -2.7937 C   0  0  0  0  0  0  0  0  0  0  0  0
   -1.7768    2.3630   -1.7689 C   0  0  0  0  0  0  0  0  0  0  0  0
   -1.5696   -0.1168   -0.2103 C   0  0  0  0  0  0  0  0  0  0  0  0
   -2.1068   -0.7624    0.9037 C   0  0  0  0  0  0  0  0  0  0  0  0
   -2.8699   -1.8980    0.7495 C   0  0  0  0  0  0  0  0  0  0  0  0
   -3.1156   -2.4183   -0.5193 C   0  0  0  0  0  0  0  0  0  0  0  0
   -4.1190   -3.8706   -0.5916 S   0  0  0  0  0  0  0  0  0  0  0  0
   -4.0964   -4.3324   -2.3472 C   0  0  0  0  0  0  0  0  0  0  0  0
   -2.5743   -1.7857   -1.6297 C   0  0  0  0  0  0  0  0  0  0  0  0
   -1.8018   -0.6510   -1.4737 C   0  0  0  0  0  0  0  0  0  0  0  0
    1.4085    0.1107    0.6798 C   0  0  0  0  0  0  0  0  0  0  0  0
    1.9781   -0.7475   -0.6949 S   0  0  0  0  0  0  0  0  0  0  0  0
   -0.8046    2.1245    2.8167 C   0  0  0  0  0  0  0  0  0  0  0  0
   -1.7998    2.7911    2.1631 C   0  0  0  0  0  0  0  0  0  0  0  0
   -2.8057    3.2919    3.0187 C   0  0  0  0  0  0  0  0  0  0  0  0
   -3.9745    3.9790    2.6373 C   0  0  0  0  0  0  0  0  0  0  0  0
   -4.1651    4.4593    1.2867 C   0  0  0  0  0  0  0  0  0  0  0  0
   -5.3091    4.5331    0.5402 C   0  0  0  0  0  0  0  0  0  0  0  0
   -5.1350    5.1724   -0.6990 C   0  0  0  0  0  0  0  0  0  0  0  0
   -3.8576    5.6114   -0.8971 C   0  0  0  0  0  0  0  0  0  0  0  0
   -3.2749    6.4506   -2.3131 S   0  0  0  0  0  0  0  0  0  0  0  0
   -2.1097    7.6628   -1.5838 C   0  0  0  0  0  0  0  0  0  0  0  0
   -0.6998    7.1253   -1.4523 C   0  0  0  0  0  0  0  0  0  0  0  0
   -2.8263    5.1851    0.4318 S   0  0  0  0  0  0  0  0  0  0  0  0
   -4.9185    4.1923    3.6381 C   0  0  0  0  0  0  0  0  0  0  0  0
   -4.6799    3.8573    4.9974 C   0  0  0  0  0  0  0  0  0  0  0  0
   -3.4355    3.3043    5.4038 C   0  0  0  0  0  0  0  0  0  0  0  0
   -3.1260    3.1172    6.7963 C   0  0  0  0  0  0  0  0  0  0  0  0
   -3.4974    3.9007    7.8614 C   0  0  0  0  0  0  0  0  0  0  0  0
   -3.0100    3.4508    9.0949 C   0  0  0  0  0  0  0  0  0  0  0  0
   -2.2567    2.3120    8.9860 C   0  0  0  0  0  0  0  0  0  0  0  0
   -1.4619    1.5179   10.3166 S   0  0  0  0  0  0  0  0  0  0  0  0
   -0.8205   -0.0068    9.5400 C   0  0  0  0  0  0  0  0  0  0  0  0
   -1.9062   -1.0423    9.3240 C   0  0  0  0  0  0  0  0  0  0  0  0
   -2.1282    1.7906    7.3360 S   0  0  0  0  0  0  0  0  0  0  0  0
   -2.5585    2.9731    4.3772 C   0  0  0  0  0  0  0  0  0  0  0  0
   -1.0367    2.1330    4.5523 S   0  0  0  0  0  0  0  0  0  0  0  0
   -5.8160    4.1001    5.7830 C   0  0  0  0  0  0  0  0  0  0  0  0
   -6.8909    4.6218    5.0859 C   0  0  0  0  0  0  0  0  0  0  0  0
   -6.5063    4.8564    3.3945 S   0  0  0  0  0  0  0  0  0  0  0  0
   -8.1311    4.8697    5.7105 C   0  0  0  0  0  0  0  0  0  0  0  0
   -9.3208    5.2853    5.1839 C   0  0  0  0  0  0  0  0  0  0  0  0
   -9.5973    5.5676    3.7639 C   0  0  0  0  0  0  0  0  0  0  0  0
   -8.8015    5.6139    2.8451 O   0  0  0  0  0  0  0  0  0  0  0  0
  -11.0495    5.7840    3.6640 C   0  0  0  0  0  0  0  0  0  0  0  0
  -11.7788    6.0221    2.5015 C   0  0  0  0  0  0  0  0  0  0  0  0
  -13.1310    6.1489    2.7070 C   0  0  0  0  0  0  0  0  0  0  0  0
  -13.7151    6.0491    3.9773 C   0  0  0  0  0  0  0  0  0  0  0  0
  -13.0052    5.8272    5.1333 C   0  0  0  0  0  0  0  0  0  0  0  0
  -11.6260    5.6930    4.9471 C   0  0  0  0  0  0  0  0  0  0  0  0
  -10.5645    5.4405    5.9189 C   0  0  0  0  0  0  0  0  0  0  0  0
  -10.7284    5.3976    7.2793 C   0  0  0  0  0  0  0  0  0  0  0  0
   -9.7018    5.2071    8.2282 C   0  0  0  0  0  0  0  0  0  0  0  0
   -8.9317    5.0712    9.0701 N   0  0  0  0  0  0  0  0  0  0  0  0
  -11.9628    5.5701    7.9405 C   0  0  0  0  0  0  0  0  0  0  0  0
  -12.9299    5.6946    8.5469 N   0  0  0  0  0  0  0  0  0  0  0  0
  -15.1097    6.2452    3.4384 C   0  0  0  0  0  0  0  0  0  0  0  0
  -16.0093    4.9917    3.2992 C   0  0  0  0  0  0  0  0  0  0  0  0
  -15.0830    3.8148    3.1184 C   0  0  0  0  0  0  0  0  0  0  0  0
  -14.5315    3.9140    1.9163 C   0  0  0  0  0  0  0  0  0  0  0  0
  -15.0745    5.1608    1.2626 C   0  0  0  0  0  0  0  0  0  0  0  0
  -16.4936    5.1793    1.8525 C   0  0  0  0  0  0  0  0  0  0  0  0
  -14.4586    6.3610    2.0241 C   0  0  0  0  0  0  0  0  0  0  0  0
    6.7288   -5.3375   -0.9720 H   0  0  0  0  0  0  0  0  0  0  0  0
    7.7968   -5.1445   -7.1603 H   0  0  0  0  0  0  0  0  0  0  0  0
    9.0536   -9.0310   -4.1653 H   0  0  0  0  0  0  0  0  0  0  0  0
   10.8203   -9.1616   -7.1015 H   0  0  0  0  0  0  0  0  0  0  0  0
    8.8641  -10.9683   -7.1811 H   0  0  0  0  0  0  0  0  0  0  0  0
   10.2859  -11.1852   -9.3807 H   0  0  0  0  0  0  0  0  0  0  0  0
    9.6375   -9.1704  -10.9864 H   0  0  0  0  0  0  0  0  0  0  0  0
    7.8156   -7.7144   -9.7768 H   0  0  0  0  0  0  0  0  0  0  0  0
    7.0396  -10.0809   -8.8812 H   0  0  0  0  0  0  0  0  0  0  0  0
    7.1095   -8.9598   -7.5025 H   0  0  0  0  0  0  0  0  0  0  0  0
   10.1840   -7.1863   -8.6756 H   0  0  0  0  0  0  0  0  0  0  0  0
    5.5992   -2.6753   -3.6608 H   0  0  0  0  0  0  0  0  0  0  0  0
    5.0118    2.9559   -0.9471 H   0  0  0  0  0  0  0  0  0  0  0  0
    6.1683    1.9809   -0.0133 H   0  0  0  0  0  0  0  0  0  0  0  0
    6.3704    2.5023   -3.0258 H   0  0  0  0  0  0  0  0  0  0  0  0
    7.3455    3.2810   -1.7705 H   0  0  0  0  0  0  0  0  0  0  0  0
    7.4936    1.5414   -2.0622 H   0  0  0  0  0  0  0  0  0  0  0  0
    3.9311    2.8380   -2.8026 H   0  0  0  0  0  0  0  0  0  0  0  0
    2.5798    2.3852   -4.7780 H   0  0  0  0  0  0  0  0  0  0  0  0
    2.1464    0.1016   -5.5206 H   0  0  0  0  0  0  0  0  0  0  0  0
    2.4037   -3.5716   -5.3816 H   0  0  0  0  0  0  0  0  0  0  0  0
    1.7548   -1.9791   -5.8226 H   0  0  0  0  0  0  0  0  0  0  0  0
    4.0580   -1.2874   -6.5817 H   0  0  0  0  0  0  0  0  0  0  0  0
    3.5042   -2.7271   -7.4499 H   0  0  0  0  0  0  0  0  0  0  0  0
    4.6735   -2.8798   -6.1289 H   0  0  0  0  0  0  0  0  0  0  0  0
    5.1792   -0.8750    4.9758 H   0  0  0  0  0  0  0  0  0  0  0  0
    5.7060    1.0942    6.3514 H   0  0  0  0  0  0  0  0  0  0  0  0
    4.3369    5.2673    4.5762 H   0  0  0  0  0  0  0  0  0  0  0  0
    5.5079    6.1474    5.5838 H   0  0  0  0  0  0  0  0  0  0  0  0
    6.0494    5.4145    4.0595 H   0  0  0  0  0  0  0  0  0  0  0  0
    5.0000    3.6347    2.9835 H   0  0  0  0  0  0  0  0  0  0  0  0
    4.4921    1.6821    1.6216 H   0  0  0  0  0  0  0  0  0  0  0  0
    7.0308   -1.2695    2.9649 H   0  0  0  0  0  0  0  0  0  0  0  0
    8.0542   -3.4527    3.4832 H   0  0  0  0  0  0  0  0  0  0  0  0
    5.5496   -7.3343    2.3479 H   0  0  0  0  0  0  0  0  0  0  0  0
    6.3664   -8.2707    3.6166 H   0  0  0  0  0  0  0  0  0  0  0  0
    5.0120   -7.2120    4.0646 H   0  0  0  0  0  0  0  0  0  0  0  0
    4.2605   -5.3532    2.9483 H   0  0  0  0  0  0  0  0  0  0  0  0
    3.2464   -3.1892    2.4510 H   0  0  0  0  0  0  0  0  0  0  0  0
    1.4170    2.4370   -0.6599 H   0  0  0  0  0  0  0  0  0  0  0  0
    1.5790    4.0822   -2.4725 H   0  0  0  0  0  0  0  0  0  0  0  0
   -1.9605    3.9409   -5.6414 H   0  0  0  0  0  0  0  0  0  0  0  0
   -2.5401    5.3868   -4.7476 H   0  0  0  0  0  0  0  0  0  0  0  0
   -1.5685    5.5751   -6.2251 H   0  0  0  0  0  0  0  0  0  0  0  0
   -2.5644    3.5307   -3.3565 H   0  0  0  0  0  0  0  0  0  0  0  0
   -2.7318    1.9060   -1.5532 H   0  0  0  0  0  0  0  0  0  0  0  0
   -1.9247   -0.3661    1.8910 H   0  0  0  0  0  0  0  0  0  0  0  0
   -3.2886   -2.3952    1.6110 H   0  0  0  0  0  0  0  0  0  0  0  0
   -3.0740   -4.5034   -2.6710 H   0  0  0  0  0  0  0  0  0  0  0  0
   -4.5777   -3.5621   -2.9431 H   0  0  0  0  0  0  0  0  0  0  0  0
   -4.6638   -5.2556   -2.4128 H   0  0  0  0  0  0  0  0  0  0  0  0
   -2.7337   -2.1704   -2.6241 H   0  0  0  0  0  0  0  0  0  0  0  0
   -1.3650   -0.1805   -2.3419 H   0  0  0  0  0  0  0  0  0  0  0  0
   -1.8254    2.8920    1.0960 H   0  0  0  0  0  0  0  0  0  0  0  0
   -6.2524    4.1345    0.8653 H   0  0  0  0  0  0  0  0  0  0  0  0
   -5.9220    5.3281   -1.4136 H   0  0  0  0  0  0  0  0  0  0  0  0
   -2.5273    7.9541   -0.6206 H   0  0  0  0  0  0  0  0  0  0  0  0
   -2.1416    8.5140   -2.2637 H   0  0  0  0  0  0  0  0  0  0  0  0
   -0.2999    6.8620   -2.4282 H   0  0  0  0  0  0  0  0  0  0  0  0
   -0.0624    7.8863   -1.0066 H   0  0  0  0  0  0  0  0  0  0  0  0
   -0.6775    6.2400   -0.8201 H   0  0  0  0  0  0  0  0  0  0  0  0
   -4.0651    4.8069    7.7521 H   0  0  0  0  0  0  0  0  0  0  0  0
   -3.1961    3.9385   10.0337 H   0  0  0  0  0  0  0  0  0  0  0  0
   -0.3380    0.2801    8.6054 H   0  0  0  0  0  0  0  0  0  0  0  0
   -0.0664   -0.3674   10.2390 H   0  0  0  0  0  0  0  0  0  0  0  0
   -2.6699   -0.6671    8.6467 H   0  0  0  0  0  0  0  0  0  0  0  0
   -2.3763   -1.3023   10.2695 H   0  0  0  0  0  0  0  0  0  0  0  0
   -1.4727   -1.9405    8.8896 H   0  0  0  0  0  0  0  0  0  0  0  0
   -5.8847    3.8572    6.8283 H   0  0  0  0  0  0  0  0  0  0  0  0
   -8.1142    4.6523    6.7719 H   0  0  0  0  0  0  0  0  0  0  0  0
  -11.2871    6.0879    1.5435 H   0  0  0  0  0  0  0  0  0  0  0  0
  -13.4717    5.7532    6.1013 H   0  0  0  0  0  0  0  0  0  0  0  0
  -15.6542    7.1053    3.8225 H   0  0  0  0  0  0  0  0  0  0  0  0
  -16.7662    4.8920    4.0724 H   0  0  0  0  0  0  0  0  0  0  0  0
  -14.8868    3.0844    3.8814 H   0  0  0  0  0  0  0  0  0  0  0  0
  -13.7822    3.2835    1.4744 H   0  0  0  0  0  0  0  0  0  0  0  0
  -14.9808    5.2159    0.1812 H   0  0  0  0  0  0  0  0  0  0  0  0
  -17.0194    6.1190    1.6892 H   0  0  0  0  0  0  0  0  0  0  0  0
  -17.1057    4.3494    1.5025 H   0  0  0  0  0  0  0  0  0  0  0  0
  -14.5745    7.2991    1.4849 H   0  0  0  0  0  0  0  0  0  0  0  0
  1  2  2  0  0  0  0
  2  3  1  0  0  0  0
  3  4  2  0  0  0  0
  3  5  1  0  0  0  0
  5  6  2  0  0  0  0
  6  7  1  0  0  0  0
  7  8  2  0  0  0  0
  8  9  1  0  0  0  0
  9 10  2  0  0  0  0
 10 11  1  0  0  0  0
 11 12  2  0  0  0  0
 12 13  1  0  0  0  0
 13 14  3  0  0  0  0
 12 15  1  0  0  0  0
 15 16  3  0  0  0  0
  8 17  1  0  0  0  0
 17 18  1  0  0  0  0
 18 19  1  0  0  0  0
 19 20  2  0  0  0  0
 20 21  1  0  0  0  0
 21 22  1  0  0  0  0
 21 23  1  0  0  0  0
  1 24  1  0  0  0  0
 24 25  2  0  0  0  0
 25 26  1  0  0  0  0
 26 27  1  0  0  0  0
 27 28  2  0  0  0  0
 28 29  1  0  0  0  0
 29 30  1  0  0  0  0
 30 31  1  0  0  0  0
 28 32  1  0  0  0  0
 32 33  2  0  0  0  0
 33 34  1  0  0  0  0
 34 35  2  0  0  0  0
 35 36  1  0  0  0  0
 36 37  1  0  0  0  0
 37 38  1  0  0  0  0
 26 39  2  0  0  0  0
 39 40  1  0  0  0  0
 39 41  1  0  0  0  0
 41 42  2  0  0  0  0
 42 43  1  0  0  0  0
 43 44  1  0  0  0  0
 44 45  2  0  0  0  0
 45 46  1  0  0  0  0
 46 47  2  0  0  0  0
 47 48  1  0  0  0  0
 48 49  1  0  0  0  0
 47 50  1  0  0  0  0
 50 51  2  0  0  0  0
 43 52  1  0  0  0  0
 52 53  2  0  0  0  0
 53 54  1  0  0  0  0
 54 55  2  0  0  0  0
 55 56  1  0  0  0  0
 56 57  1  0  0  0  0
 55 58  1  0  0  0  0
 58 59  2  0  0  0  0
 42 60  1  0  0  0  0
 60 61  1  0  0  0  0
 61 62  1  0  0  0  0
 62 63  2  0  0  0  0
 63 64  1  0  0  0  0
 64 65  1  0  0  0  0
 65 66  2  0  0  0  0
 66 67  1  0  0  0  0
 67 68  2  0  0  0  0
 68 69  1  0  0  0  0
 69 70  1  0  0  0  0
 68 71  1  0  0  0  0
 71 72  2  0  0  0  0
 64 73  1  0  0  0  0
 73 74  2  0  0  0  0
 74 75  1  0  0  0  0
 75 76  2  0  0  0  0
 76 77  1  0  0  0  0
 77 78  1  0  0  0  0
 76 79  1  0  0  0  0
 79 80  2  0  0  0  0
 63 81  1  0  0  0  0
 81 82  1  0  0  0  0
 62 83  1  0  0  0  0
 83 84  2  0  0  0  0
 84 85  1  0  0  0  0
 85 86  2  0  0  0  0
 86 87  1  0  0  0  0
 87 88  2  0  0  0  0
 88 89  1  0  0  0  0
 89 90  2  0  0  0  0
 90 91  1  0  0  0  0
 91 92  1  0  0  0  0
 92 93  1  0  0  0  0
 90 94  1  0  0  0  0
 86 95  1  0  0  0  0
 95 96  2  0  0  0  0
 96 97  1  0  0  0  0
 97 98  1  0  0  0  0
 98 99  2  0  0  0  0
 99100  1  0  0  0  0
100101  2  0  0  0  0
101102  1  0  0  0  0
102103  1  0  0  0  0
103104  1  0  0  0  0
101105  1  0  0  0  0
 97106  2  0  0  0  0
106107  1  0  0  0  0
 96108  1  0  0  0  0
108109  2  0  0  0  0
109110  1  0  0  0  0
109111  1  0  0  0  0
111112  2  0  0  0  0
112113  1  0  0  0  0
113114  2  0  0  0  0
113115  1  0  0  0  0
115116  2  0  0  0  0
116117  1  0  0  0  0
117118  2  0  0  0  0
118119  1  0  0  0  0
119120  2  0  0  0  0
120121  1  0  0  0  0
121122  2  0  0  0  0
122123  1  0  0  0  0
123124  3  0  0  0  0
122125  1  0  0  0  0
125126  3  0  0  0  0
118127  1  0  0  0  0
127128  1  0  0  0  0
128129  1  0  0  0  0
129130  2  0  0  0  0
130131  1  0  0  0  0
131132  1  0  0  0  0
131133  1  0  0  0  0
 11  2  1  0  0  0  0
 23 17  1  0  0  0  0
 40 24  1  0  0  0  0
 82 41  1  0  0  0  0
107 83  1  0  0  0  0
121112  1  0  0  0  0
133127  1  0  0  0  0
 10  5  1  0  0  0  0
 22 18  1  0  0  0  0
 35 27  1  0  0  0  0
 51 44  1  0  0  0  0
 59 52  1  0  0  0  0
 81 60  2  0  0  0  0
106 85  1  0  0  0  0
120115  1  0  0  0  0
132128  1  0  0  0  0
 23  7  1  0  0  0  0
 72 65  1  0  0  0  0
 80 73  1  0  0  0  0
 94 87  1  0  0  0  0
110 95  1  0  0  0  0
133117  1  0  0  0  0
105 98  1  0  0  0  0
  1134  1  0  0  0  0
  6135  1  0  0  0  0
  9136  1  0  0  0  0
 17137  1  0  0  0  0
 18138  1  0  0  0  0
 19139  1  0  0  0  0
 20140  1  0  0  0  0
 21141  1  0  0  0  0
 22142  1  0  0  0  0
 22143  1  0  0  0  0
 23144  1  0  0  0  0
 25145  1  0  0  0  0
 30146  1  0  0  0  0
 30147  1  0  0  0  0
 31148  1  0  0  0  0
 31149  1  0  0  0  0
 31150  1  0  0  0  0
 32151  1  0  0  0  0
 33152  1  0  0  0  0
 34153  1  0  0  0  0
 37154  1  0  0  0  0
 37155  1  0  0  0  0
 38156  1  0  0  0  0
 38157  1  0  0  0  0
 38158  1  0  0  0  0
 45159  1  0  0  0  0
 46160  1  0  0  0  0
 49161  1  0  0  0  0
 49162  1  0  0  0  0
 49163  1  0  0  0  0
 50164  1  0  0  0  0
 51165  1  0  0  0  0
 53166  1  0  0  0  0
 54167  1  0  0  0  0
 57168  1  0  0  0  0
 57169  1  0  0  0  0
 57170  1  0  0  0  0
 58171  1  0  0  0  0
 59172  1  0  0  0  0
 66173  1  0  0  0  0
 67174  1  0  0  0  0
 70175  1  0  0  0  0
 70176  1  0  0  0  0
 70177  1  0  0  0  0
 71178  1  0  0  0  0
 72179  1  0  0  0  0
 74180  1  0  0  0  0
 75181  1  0  0  0  0
 78182  1  0  0  0  0
 78183  1  0  0  0  0
 78184  1  0  0  0  0
 79185  1  0  0  0  0
 80186  1  0  0  0  0
 84187  1  0  0  0  0
 88188  1  0  0  0  0
 89189  1  0  0  0  0
 92190  1  0  0  0  0
 92191  1  0  0  0  0
 93192  1  0  0  0  0
 93193  1  0  0  0  0
 93194  1  0  0  0  0
 99195  1  0  0  0  0
100196  1  0  0  0  0
103197  1  0  0  0  0
103198  1  0  0  0  0
104199  1  0  0  0  0
104200  1  0  0  0  0
104201  1  0  0  0  0
108202  1  0  0  0  0
111203  1  0  0  0  0
116204  1  0  0  0  0
119205  1  0  0  0  0
127206  1  0  0  0  0
128207  1  0  0  0  0
129208  1  0  0  0  0
130209  1  0  0  0  0
131210  1  0  0  0  0
132211  1  0  0  0  0
132212  1  0  0  0  0
133213  1  0  0  0  0
M  END
