256

C         -8.75830       -4.44800       -5.67800
C         -9.00570       -5.66860       -6.23140
C         -8.08640       -6.83100       -6.33610
O         -7.02590       -7.01130       -5.77550
C         -8.71180       -7.74890       -7.30470
C         -8.17190       -8.94040       -7.78460
C         -8.97020       -9.58940       -8.69470
C        -10.21290       -9.08650       -9.10530
C        -10.75690       -7.91350       -8.63980
C         -9.96410       -7.24190       -7.70400
C        -10.20650       -5.99380       -6.98840
C        -11.39080       -5.30630       -6.97080
C        -11.66410       -4.16260       -6.18910
N        -11.98260       -3.25080       -5.56830
C        -12.53980       -5.68110       -7.69930
N        -13.50930       -5.92160       -8.26520
C        -10.46630      -10.24920      -10.03160
C        -11.45550      -11.34300       -9.55890
C        -11.42940      -11.32210       -8.05060
C        -10.25520      -11.79880       -7.65930
C         -9.46610      -12.15110       -8.89620
C        -10.60550      -12.59530       -9.82720
C         -9.08390      -10.81070       -9.57180
C         -7.65350       -3.99580       -4.91600
C         -6.58670       -4.61650       -4.30390
C         -5.84290       -3.60690       -3.65390
C         -4.64240       -3.63440       -2.91940
C         -3.90010       -4.88680       -2.76070
C         -4.54920       -6.06090       -2.38980
C         -3.86440       -7.25720       -2.42770
F         -4.51880       -8.37810       -2.06710
C         -2.54010       -7.36700       -2.84130
C         -1.87430       -8.70130       -2.99540
C         -2.32690       -9.37220       -4.29430
C         -1.91710       -6.16550       -3.15390
F         -0.61930       -6.18870       -3.53600
C         -2.55350       -4.94190       -3.10570
C         -4.20430       -2.38870       -2.50440
C         -4.85820       -1.16650       -2.83210
C         -6.05130       -1.13720       -3.57130
C         -6.73770        0.10040       -3.94560
C         -8.12810        0.17590       -3.90100
C         -8.75720        1.35140       -4.25530
C         -8.07390        2.49050       -4.67050
C         -8.79190        3.73950       -5.08740
C         -9.24360        3.63620       -6.54610
C         -6.69040        2.36850       -4.71840
C         -6.01760        1.21600       -4.36580
F         -5.96120        3.43070       -5.12390
F        -10.10150        1.40510       -4.18380
C         -6.52460       -2.39130       -3.93750
O         -7.62070       -2.64300       -4.67880
C         -4.06560       -0.15480       -2.23140
C         -3.04340       -0.79040       -1.58040
O         -3.11360       -2.14010       -1.73820
C         -2.00410       -0.19440       -0.79090
C         -1.51850       -0.57160        0.44730
N         -1.92740       -1.66450        1.19560
C         -1.79260       -2.97220        0.70610
C         -0.80370       -3.29830       -0.21460
C         -0.54580       -4.61810       -0.52420
C         -1.27500       -5.62810        0.08730
S         -0.88790       -7.34020       -0.08290
C          0.85320       -7.30070       -0.60170
C         -2.34780       -5.29870        0.91120
C         -2.60720       -3.98210        1.21620
C         -2.00620       -1.45980        2.58480
C         -1.46730       -2.36930        3.49530
C         -1.49420       -2.09560        4.84390
C         -2.04700       -0.90790        5.31920
S         -1.97870       -0.63700        7.06180
C         -2.27050        1.14720        7.22130
C         -2.61940       -0.01840        4.42040
C         -2.60200       -0.29690        3.06810
C         -0.56610        0.36930        0.91770
S          0.37780        0.47050        2.35810
C          1.18970        1.88770        1.72890
C          0.68950        2.30410        0.51360
N          1.11750        3.45580       -0.15050
C          1.22930        4.63780        0.59210
C          2.28510        5.52960        0.40930
C          2.41110        6.65310        1.20240
C          1.47070        6.92350        2.18600
S          1.58060        8.31220        3.27680
C          2.55850        9.51250        2.32770
C          0.39390        6.05800        2.35290
C          0.27380        4.93250        1.56760
C          1.60180        3.34850       -1.45790
C          1.58300        4.44230       -2.32460
C          2.12470        4.33640       -3.58540
C          2.68180        3.13590       -4.02400
S          3.38380        3.13870       -5.64530
C          4.10530        1.48370       -5.81770
C          2.65230        2.03050       -3.18750
C          2.11760        2.14130       -1.91940
C         -0.31200        1.41500        0.04780
S         -1.27580        1.29350       -1.38110
C          2.32080        2.48490        2.40130
C          3.63770        2.25810        2.05690
N          4.03090        1.27080        1.15180
C          3.52680       -0.02090        1.37630
C          3.43750       -0.49900        2.68220
C          2.88240       -1.73410        2.95320
C          2.41280       -2.52650        1.91540
S          1.65930       -4.10800        2.13440
C          1.75710       -4.39470        3.92330
C          2.53110       -2.06990        0.60500
C          3.07540       -0.83360        0.33620
C          4.78870        1.60480        0.03210
C          5.53440        0.64430       -0.65410
C          6.21130        0.98410       -1.80330
C          6.18230        2.28990       -2.28960
S          7.05240        2.59110       -3.79900
C          6.63400        4.30700       -4.21270
C          5.49690        3.26170       -1.57730
C          4.80920        2.91790       -0.43080
C          4.50320        3.10200        2.79030
S          6.20430        3.37640        2.80440
C          6.02290        4.60130        4.06650
C          4.67870        4.82170        4.38880
N          4.19420        5.74030        5.28410
C          4.69870        7.04330        5.32770
C          5.16250        7.66080        4.16380
C          5.65770        8.94380        4.20780
C          5.69120        9.64870        5.41010
S          6.32040       11.29290        5.33830
C          6.54910       11.74440        7.08100
C          5.22130        9.04170        6.56790
C          4.73600        7.74990        6.52650
C          3.08900        5.37540        6.07620
C          3.04500        4.10630        6.65580
C          1.95450        3.73330        7.40870
C          0.89510        4.61780        7.60570
S         -0.45170        4.02310        8.58000
C         -1.52010        5.47550        8.79210
C          0.94410        5.88390        7.03800
C          2.03450        6.25890        6.27730
C          3.84280        3.91520        3.69590
S          2.14140        3.63470        3.70550
C          7.15660        5.20550        4.64600
C          8.40310        4.66820        4.78520
C          9.57330        5.54860        5.01960
O          9.54930        6.72340        5.31810
C         10.75570        4.70030        4.76560
C         12.09180        5.09490        4.74340
C         12.97180        4.07960        4.45310
C         12.55810        2.76510        4.19910
C         11.24550        2.35740        4.22780
C         10.33590        3.37480        4.52510
C          8.88540        3.31200        4.68660
C          8.16800        2.17700        4.97670
C          8.69620        0.87240        4.94880
N          9.06180       -0.21630        4.92820
C          6.84050        2.20000        5.44480
N          5.77940        2.17550        5.88640
C         13.96670        2.28140        3.96170
C         14.38610        2.07210        2.49130
C         15.89670        2.07310        2.54290
C         16.29120        3.31620        2.78750
C         15.05360        4.17640        2.90450
C         14.14160        3.46510        1.89670
C         14.42940        3.74580        4.24880
H         -9.48150       -3.66030       -5.85430
H         -7.20830       -9.28690       -7.44530
H        -11.70970       -7.53670       -8.97190
H        -10.59220      -10.00200      -11.08380
H        -12.43700      -11.29420      -10.02260
H        -12.22030      -10.92140       -7.44410
H         -9.86840      -11.87610       -6.66010
H         -8.63610      -12.83890       -8.75680
H        -11.08910      -13.51190       -9.49280
H        -10.30080      -12.69840      -10.86780
H         -8.30660      -10.93200      -10.32390
H         -6.36770       -5.66220       -4.34230
H         -5.57910       -6.04950       -2.07200
H         -2.14090       -9.33360       -2.14700
H         -0.79190       -8.57420       -3.00790
H         -3.40410       -9.51870       -4.29090
H         -1.84500      -10.34090       -4.40000
H         -2.06380       -8.75690       -5.15220
H         -2.01460       -4.04900       -3.37800
H         -8.72220       -0.66560       -3.58510
H         -9.66640        3.88190       -4.44980
H         -8.12760        4.59700       -4.97060
H         -9.91910        2.79370       -6.67440
H         -8.38550        3.49800       -7.20030
H         -9.76250        4.54470       -6.84080
H         -4.94360        1.18600       -4.45100
H         -4.24170        0.90070       -2.23150
H         -0.20600       -2.51470       -0.65540
H          0.24950       -4.84950       -1.21370
H          0.93360       -7.00650       -1.64370
H          1.22280       -8.31360       -0.47610
H          1.39860       -6.61820        0.04340
H         -2.94850       -6.08850        1.33530
H         -3.41140       -3.72710        1.89000
H         -1.01180       -3.27810        3.13410
H         -1.07090       -2.79210        5.55200
H         -3.31510        1.37830        7.03320
H         -1.61580        1.68340        6.54130
H         -2.01640        1.39940        8.24600
H         -3.08400        0.89310        4.76060
H         -3.04770        0.40060        2.37320
H          3.02210        5.34190       -0.35640
H          3.25490        7.30800        1.04910
H          2.43920       10.46220        2.83950
H          3.60690        9.23120        2.32800
H          2.16380        9.57930        1.31870
H         -0.34320        6.27530        3.10990
H         -0.56260        4.26490        1.71020
H          1.14280        5.37430       -2.00420
H          2.12010        5.18560       -4.25210
H          4.58810        1.47860       -6.79000
H          3.32190        0.73190       -5.79120
H          4.84550        1.31940       -5.04010
H          3.05680        1.08170       -3.50060
H          2.11080        1.28120       -1.26920
H          3.80130        0.10740        3.49850
H          2.82510       -2.06070        3.97820
H          1.28800       -5.35980        4.08980
H          2.79670       -4.42990        4.23570
H          1.20970       -3.62010        4.45250
H          2.18510       -2.69790       -0.20140
H          3.15240       -0.49720       -0.68650
H          5.58130       -0.36780       -0.28250
H          6.77710        0.23750       -2.34010
H          5.55600        4.41710       -4.28580
H          7.05630        4.98220       -3.47390
H          7.08790        4.49060       -5.18150
H          5.47570        4.28710       -1.91000
H          4.26830        3.67610        0.11260
H          5.13200        7.12040        3.22860
H          6.02930        9.42080        3.31330
H          7.06640       12.69880        7.07060
H          7.16310       10.99560        7.57230
H          5.58650       11.85460        7.57240
H          5.23390        9.56180        7.51180
H          4.38480        7.27860        7.43210
H          3.86920        3.42260        6.51740
H          1.91370        2.75390        7.85970
H         -2.31680        5.15730        9.45750
H         -1.93760        5.77750        7.83600
H         -0.95700        6.28290        9.25060
H          0.13760        6.58710        7.16640
H          2.05680        7.23660        5.82100
H          7.05420        6.23030        4.98910
H         12.37170        6.11670        4.94670
H         10.93480        1.34470        4.02950
H         14.31220        1.48660        4.62010
H         13.91320        1.22670        1.99900
H         16.50060        1.18900        2.45530
H         17.29040        3.67770        2.94500
H         15.19010        5.24820        2.78780
H         14.51230        3.54770        0.87620
H         13.10260        3.78720        1.93370
H         15.08300        3.92730        5.10000
