210

C          3.27420        5.11070        4.70790
C          4.40550        5.87250        4.59180
C          4.69310        6.91660        5.59710
O          4.12620        7.08110        6.66050
C          5.75170        7.75410        4.99690
C          6.29060        8.93390        5.50540
C          7.24370        9.50950        4.69880
C          7.62950        8.96180        3.46860
C          7.11190        7.79590        2.95480
C          6.14990        7.19030        3.76540
C          5.41950        5.93960        3.57240
C          5.80220        4.90170        2.75620
C          5.24250        3.61290        2.85790
N          4.83960        2.54120        2.96070
C          6.83860        4.97580        1.80830
N          7.66060        4.98720        1.00620
C          8.62070       10.06570        3.19630
C         10.10900        9.72360        3.41880
C         10.77510       11.07410        3.54990
C         10.41410       11.59040        4.71780
C          9.49760       10.59730        5.39550
C         10.11010        9.28510        4.88900
C          8.19500       10.67400        4.57110
C          2.58010        4.43580        3.69230
C          1.68520        3.35800        3.79850
N          1.31600        2.69990        4.94640
C          1.08330        1.31090        4.87220
C          1.94830        0.49540        4.14000
C          1.65130       -0.83620        3.96270
C          0.49530       -1.38690        4.51700
S          0.17210       -3.07520        4.11810
C         -1.38040       -3.46040        4.97400
C         -0.31950       -0.59510        5.31590
C         -0.02490        0.74430        5.49220
C          1.18500        3.36760        6.16930
C          1.60370        2.76440        7.35490
C          1.57820        3.47400        8.53580
C          1.14210        4.79610        8.55470
S          1.26210        5.70020       10.06530
C          1.67840        7.36170        9.45080
C          0.64110        5.37000        7.39250
C          0.65720        4.65820        6.21120
C          1.26010        2.93690        2.51780
S          0.24510        1.64780        1.97780
C          0.53680        2.10260        0.30120
C          1.36710        3.21670        0.18120
N          1.78050        3.75670       -1.01190
C          1.84880        2.96020       -2.16740
C          1.38790        3.46180       -3.37910
C          1.42980        2.68770       -4.52210
C          1.93560        1.39660       -4.46500
S          2.03990        0.31290       -5.84830
C          1.27750        1.24020       -7.20450
C          2.41660        0.89900       -3.25530
C          2.37930        1.67150       -2.11780
C          2.18380        5.09940       -1.07070
C          3.32910        5.45590       -1.78310
C          3.75190        6.76480       -1.79950
C          3.04290        7.74750       -1.10860
S          3.70180        9.38310       -1.17520
C          2.66580       10.31800       -0.01350
C          1.88310        7.40300       -0.42970
C          1.45720        6.08830       -0.41410
C          1.75500        3.68240        1.45720
S          2.77580        4.95940        2.01280
C         -0.01320        1.26900       -0.64560
C         -0.53850        0.36480       -1.27360
C         -1.14250       -0.72460       -1.85600
C         -1.89590       -1.65780       -1.13890
N         -2.21260       -1.58310        0.20210
C         -2.53030       -0.39710        0.85830
C         -2.34700       -0.31170        2.23700
C         -2.64330        0.84830        2.92210
C         -3.10130        1.96210        2.23230
S         -3.42370        3.52100        3.00030
C         -2.49050        3.40810        4.55460
C         -3.32400        1.87260        0.86110
C         -3.05500        0.70580        0.18210
C         -2.36840       -2.81240        0.88010
C         -3.56170       -3.11040        1.53030
C         -3.74550       -4.35180        2.10050
C         -2.73850       -5.30540        2.02420
S         -2.97750       -6.93810        2.66780
C         -4.66120       -7.27340        2.06170
C         -1.52430       -4.99140        1.42840
C         -1.34060       -3.75050        0.85550
C         -2.29080       -2.73030       -1.96320
S         -3.25510       -4.13290       -1.66900
C         -3.11080       -4.58950       -3.36480
C         -2.40100       -3.61870       -4.12260
N         -2.27020       -3.63980       -5.48930
C         -1.08940       -3.18680       -6.09740
C          0.15090       -3.44300       -5.52000
C          1.31610       -3.07330       -6.16170
C          1.25990       -2.44500       -7.39830
S          2.67440       -1.98560       -8.34360
C          4.07630       -2.36350       -7.26020
C          0.01780       -2.16110       -7.96520
C         -1.14340       -2.52010       -7.32170
C         -3.30720       -4.13600       -6.30240
C         -4.64030       -3.88530       -5.96890
C         -5.65480       -4.46860       -6.69110
C         -5.36460       -5.29500       -7.77760
S         -6.73370       -6.06330       -8.58150
C         -5.96740       -7.40090       -9.53920
C         -4.04420       -5.46840       -8.16730
C         -3.02260       -4.90030       -7.43040
C         -1.90570       -2.59800       -3.29430
S         -0.99410       -1.13820       -3.56240
C         -3.57820       -5.79180       -3.88890
C         -4.39730       -6.75550       -3.34130
C         -5.03420       -6.73380       -2.02490
O         -4.80670       -5.97860       -1.09080
C         -6.02720       -7.82500       -2.02780
C         -6.90880       -8.17050       -1.00610
C         -7.73160       -9.22920       -1.31010
C         -7.67990       -9.90030       -2.53780
C         -6.81020       -9.57450       -3.55220
C         -5.96950       -8.49650       -3.26530
C         -4.91720       -7.88390       -4.07410
C         -4.50180       -8.33370       -5.30530
C         -5.14540       -9.33500       -6.05680
N         -5.62620      -10.10580       -6.76090
C         -3.35910       -7.88620       -5.99270
N         -2.42530       -7.61910       -6.60930
C         -8.79310      -10.84570       -2.16020
C        -10.18080      -10.55370       -2.76930
C        -11.13540      -11.30940       -1.87360
C        -11.18540      -10.67400       -0.70980
C        -10.26540       -9.47790       -0.79970
C        -10.43940       -9.12220       -2.28190
C         -8.85140      -10.09680       -0.79010
H          2.83710        5.11140        5.69930
H          5.96390        9.33020        6.45430
H          7.40510        7.38470        2.00260
H          8.44750       10.64760        2.29290
H         10.53140        9.03690        2.69050
H         11.37550       11.52430        2.78130
H         10.65270       12.55780        5.11950
H          9.36520       10.70730        6.46860
H          9.50240        8.40470        5.08950
H         11.11740        9.12690        5.27070
H          7.74100       11.66340        4.58490
H          2.84190        0.91900        3.70600
H          2.30540       -1.46760        3.38210
H         -1.59240       -4.49720        4.73030
H         -1.25190       -3.35080        6.04680
H         -2.18250       -2.82870        4.60240
H         -1.19640       -1.00360        5.79250
H         -0.66710        1.36060        6.10540
H          1.98750        1.75570        7.33250
H          1.93420        3.02500        9.44980
H          2.40070        7.27250        8.64420
H          2.11920        7.88750       10.29190
H          0.78270        7.88260        9.12440
H          0.25070        6.37490        7.40000
H          0.28710        5.11180        5.30300
H          0.99090        4.46530       -3.42290
H          1.05910        3.10190       -5.44550
H          0.23760        1.44650       -6.96810
H          1.34100        0.58940       -8.07080
H          1.83500        2.15360       -7.38950
H          2.82370       -0.09980       -3.22360
H          2.77040        1.28530       -1.18900
H          3.88910        4.69520       -2.30570
H          4.64710        7.04230       -2.33420
H          3.10670       11.30860        0.03860
H          2.69480        9.84830        0.96530
H          1.64930       10.38920       -0.38950
H          1.29770        8.14410        0.08970
H          0.54740        5.82800        0.10690
H         -1.94700       -1.15960        2.77040
H         -2.48520        0.87810        3.98750
H         -2.46200        4.41410        4.96130
H         -2.99700        2.74850        5.25340
H         -1.48540        3.05780        4.34110
H         -3.71120        2.73120        0.33400
H         -3.25080        0.64810       -0.87720
H         -4.34840       -2.37110        1.56470
H         -4.68010       -4.58290        2.58660
H         -4.76700       -6.81110        1.08420
H         -5.39930       -6.89100        2.76150
H         -4.75100       -8.35270        1.98550
H         -0.73820       -5.72950        1.40350
H         -0.40830       -3.50510        0.36940
H          0.20400       -3.96250       -4.57470
H          2.26050       -3.29490       -5.69340
H          4.13210       -3.43380       -7.08400
H          4.95870       -2.03260       -7.79900
H          3.97490       -1.80600       -6.33410
H         -0.02250       -1.66140       -8.92120
H         -2.10140       -2.29710       -7.76680
H         -4.87170       -3.25710       -5.12160
H         -6.68580       -4.29990       -6.42060
H         -5.42190       -6.99550      -10.38630
H         -5.32040       -7.98800       -8.89410
H         -6.78990       -8.01560       -9.89130
H         -3.79070       -6.07120       -9.02340
H         -1.99800       -5.08100       -7.71400
H         -3.27240       -5.97530       -4.91040
H         -6.91910       -7.63240       -0.07100
H         -6.77810      -10.10190       -4.49110
H         -8.54020      -11.90430       -2.16500
H        -10.25780      -10.74130       -3.83670
H        -11.61720      -12.22890       -2.15000
H        -11.71700      -10.95670        0.17990
H        -10.42110       -8.68530       -0.07240
H        -11.44990       -8.78640       -2.50880
H         -9.72170       -8.39170       -2.65060
H         -8.63790      -10.65720        0.11840
