183

C         -1.08660        6.87120       -2.66010
C         -1.46140        7.87290       -1.83120
C         -2.27550        7.70630       -0.59620
O         -3.08620        6.83400       -0.35540
C         -2.08490        8.95300        0.16900
C         -2.53170        9.22610        1.46070
C         -2.19110       10.47460        1.92100
C         -1.46910       11.39430        1.14680
C         -1.05310       11.15320       -0.13970
C         -1.38590        9.88420       -0.62600
C         -1.10310        9.28030       -1.92500
C         -0.59210        9.92660       -3.01610
C         -0.35140        9.32880       -4.27300
N         -0.12490        8.91760       -5.32010
C         -0.26810       11.30000       -3.04890
N          0.01100       12.40950       -3.14290
C         -1.44910       12.42480        2.24660
C         -0.13890       12.58240        3.05820
C          0.56760       11.25040        3.00500
C         -0.12720       10.39350        3.74130
C         -1.31930       11.12910        4.30090
C         -0.71120       12.52870        4.48390
C         -2.26400       11.40670        3.10510
C         -1.10350        5.48180       -2.29380
C         -1.17480        4.48190       -3.25080
F         -1.38870        4.81280       -4.53040
C         -1.05970        3.12860       -2.92540
F         -1.16850        2.22660       -3.91450
C         -0.88530        2.69730       -1.62200
C         -0.77650        3.69860       -0.61410
N         -0.54060        3.33370        0.65830
C         -0.35830        4.25100        1.57320
C         -0.14890        3.77740        2.97980
C         -1.43490        3.89580        3.80180
C         -0.32960        5.63040        1.21520
N         -0.57860        5.99610       -0.01560
C         -0.85230        5.07300       -0.95030
C          0.08730        6.72090        2.15600
C          1.59970        6.94000        2.05970
C         -0.78010        1.29570       -1.28610
C         -1.44580        0.63220       -0.26970
N         -2.47070        1.18170        0.47550
C         -2.59390        0.86030        1.82500
C         -1.46970        0.51680        2.57470
C         -1.58170        0.18570        3.91050
C         -2.82490        0.19530        4.52680
S         -3.08650       -0.18880        6.23080
C         -1.51900       -0.94870        6.74350
C         -3.95210        0.54600        3.78500
C         -3.84240        0.86880        2.45170
C         -3.33520        2.10160       -0.14480
C         -3.74930        3.25850        0.50520
C         -4.56080        4.17730       -0.13110
C         -4.95860        3.96160       -1.44320
S         -5.95390        5.07690       -2.37400
C         -6.12860        6.51440       -1.28290
C         -4.56860        2.79010       -2.09120
C         -3.77440        1.86860       -1.44910
C         -1.01890       -0.71800       -0.18710
S         -1.43270       -2.06730        0.81800
C         -0.29070       -3.06240       -0.03150
C          0.35740       -2.40390       -1.05030
N          1.29180       -3.02920       -1.89700
C          2.65610       -2.93740       -1.64260
C          3.57500       -3.44670       -2.56370
C          4.92100       -3.44600       -2.27970
C          5.38280       -2.91570       -1.08130
S          7.11620       -3.02650       -0.72720
C          7.09220       -3.36050        1.06240
C          4.48930       -2.31120       -0.21060
C          3.13840       -2.31790       -0.49080
C          0.77010       -4.05890       -2.70290
C         -0.30160       -3.77750       -3.54340
C         -0.84300       -4.76230       -4.34600
C         -0.33160       -6.05110       -4.30090
S         -0.98790       -7.38980       -5.25320
C         -1.79900       -6.54800       -6.64660
C          0.73000       -6.34190       -3.44800
C          1.28120       -5.35620       -2.65970
C         -0.06600       -1.05770       -1.13620
S          0.30910        0.25710       -2.18510
C          0.06710       -4.43150        0.34150
C          1.16840       -4.64540        1.14260
F          1.71620       -3.61880        1.81280
C          1.76750       -5.90420        1.25570
F          2.83420       -6.02490        2.06120
C          1.29160       -6.99460        0.55360
C          0.06040       -6.83860       -0.13770
N         -0.47530       -7.88880       -0.77910
C         -1.63540       -7.75440       -1.37200
C         -2.16670       -8.97490       -2.05490
C         -2.77460       -9.93250       -1.02600
C         -2.34870       -6.52000       -1.29150
N         -1.78170       -5.45490       -0.78210
C         -0.56650       -5.56770       -0.21980
C         -3.77120       -6.36850       -1.73730
C         -3.86360       -5.93850       -3.20140
C          2.01020       -8.24990        0.49660
C          3.34310       -8.32180        0.27900
C          4.19140       -7.16740       -0.15560
O          3.82050       -6.06200       -0.48260
C          5.56760       -7.68610       -0.20480
C          6.72880       -6.99380       -0.48150
C          7.93130       -7.69770       -0.44420
C          9.23430       -7.02620       -0.70820
O         10.28390       -7.60980       -0.82090
O          9.10370       -5.70190       -0.80000
C         10.28460       -4.96440       -1.07710
C          7.93880       -9.06370       -0.15770
C          6.77030       -9.75850        0.10850
C          5.56760       -9.06350        0.09090
C          4.19830       -9.49960        0.34500
C          3.80320      -10.77930        0.62640
C          4.67960      -11.88390        0.70080
N          5.33310      -12.82390        0.77960
C          2.47370      -11.18580        0.87180
N          1.42260      -11.59710        1.08140
H         -0.65130        7.09500       -3.62560
H         -3.08420        8.48940        2.02370
H         -0.50930       11.87500       -0.72580
H         -1.90910       13.38290        2.01440
H          0.45580       13.45080        2.78910
H          1.44230       11.06020        2.41070
H          0.05080        9.34440        3.88880
H         -1.80210       10.67660        5.16320
H          0.06220       12.55490        5.25000
H         -1.45230       13.30130        4.68300
H         -3.26380       11.69540        3.42300
H          0.64570        4.35520        3.45350
H          0.15140        2.73080        2.94350
H         -1.83250        4.90790        3.76850
H         -2.18940        3.21400        3.41900
H         -1.23930        3.63320        4.83840
H         -0.18910        6.47670        3.18100
H         -0.41980        7.64010        1.86080
H          1.90460        7.74720        2.72110
H          2.14290        6.03870        2.33630
H          1.87090        7.20530        1.04080
H         -0.49660        0.52990        2.10880
H         -0.68930       -0.06690        4.46010
H         -1.26290       -1.75330        6.06090
H         -0.73210       -0.20100        6.78590
H         -1.69780       -1.34800        7.73700
H         -4.91670        0.55070        4.26880
H         -4.72410        1.12190        1.88280
H         -3.42590        3.44890        1.51690
H         -4.85160        5.06650        0.40030
H         -6.59870        7.28690       -1.88370
H         -6.76420        6.26420       -0.43800
H         -5.14410        6.83640       -0.95750
H         -4.89910        2.61410       -3.10340
H         -3.48260        0.96250       -1.95910
H          3.22520       -3.86440       -3.49500
H          5.62540       -3.86940       -2.97930
H          8.01500       -3.88520        1.28850
H          6.23680       -3.98840        1.29130
H          7.04940       -2.42960        1.62090
H          4.83650       -1.84760        0.69990
H          2.45410       -1.85530        0.20340
H         -0.70460       -2.77630       -3.57520
H         -1.65800       -4.51270       -5.00640
H         -1.11970       -5.81300       -7.06680
H         -2.00730       -7.32290       -7.37750
H         -2.72900       -6.08600       -6.32730
H          1.11270       -7.35040       -3.40620
H          2.10780       -5.58310       -2.00320
H         -2.90780       -8.70770       -2.80580
H         -1.33290       -9.47370       -2.55020
H         -3.59870       -9.46110       -0.49400
H         -3.14720      -10.82380       -1.52350
H         -2.01900      -10.22630       -0.30240
H         -4.23260       -5.59900       -1.11630
H         -4.30650       -7.30730       -1.59290
H         -3.37320       -6.66290       -3.84690
H         -3.38180       -4.97310       -3.32810
H         -4.90640       -5.85440       -3.49810
H          1.40710       -9.14060        0.59870
H          6.70370       -5.94150       -0.71710
H         10.77780       -5.35910       -1.96740
H          9.96360       -3.93790       -1.23560
H         10.97770       -5.02840       -0.23540
H          8.89080       -9.57330       -0.14680
H          6.81040      -10.81310        0.32630
