
  xtb     02092209463D
 energy: -358.219969729923 gnorm: 0.000661771623 xtb: 6.4.1 (unknown)
215237  0     0  0            999 V2000
   -6.4326    3.5271    4.2088 C   0  0  0  0  0  0  0  0  0  0  0  0
   -7.5483    3.3864    3.4288 C   0  0  0  0  0  0  0  0  0  0  0  0
   -8.8494    3.9455    3.8716 C   0  0  0  0  0  0  0  0  0  0  0  0
   -9.0297    4.7732    4.7380 O   0  0  0  0  0  0  0  0  0  0  0  0
   -9.8690    3.2243    3.0789 C   0  0  0  0  0  0  0  0  0  0  0  0
  -11.2519    3.2621    3.2376 C   0  0  0  0  0  0  0  0  0  0  0  0
  -11.9381    2.4397    2.3747 C   0  0  0  0  0  0  0  0  0  0  0  0
  -11.2997    1.6306    1.4254 C   0  0  0  0  0  0  0  0  0  0  0  0
   -9.9373    1.5893    1.2486 C   0  0  0  0  0  0  0  0  0  0  0  0
   -9.2253    2.4222    2.1131 C   0  0  0  0  0  0  0  0  0  0  0  0
   -7.7857    2.6372    2.2174 C   0  0  0  0  0  0  0  0  0  0  0  0
   -6.8791    2.3876    1.2157 C   0  0  0  0  0  0  0  0  0  0  0  0
   -5.5336    2.7968    1.2608 C   0  0  0  0  0  0  0  0  0  0  0  0
   -4.4358    3.1370    1.2319 N   0  0  0  0  0  0  0  0  0  0  0  0
   -7.1877    1.7456    0.0024 C   0  0  0  0  0  0  0  0  0  0  0  0
   -7.3609    1.2187   -1.0037 N   0  0  0  0  0  0  0  0  0  0  0  0
  -12.5995    1.0643    0.9134 C   0  0  0  0  0  0  0  0  0  0  0  0
  -13.1354    1.6059   -0.4343 C   0  0  0  0  0  0  0  0  0  0  0  0
  -12.5788    2.9998   -0.5858 C   0  0  0  0  0  0  0  0  0  0  0  0
  -13.1828    3.7756    0.3044 C   0  0  0  0  0  0  0  0  0  0  0  0
  -14.1588    2.9202    1.0739 C   0  0  0  0  0  0  0  0  0  0  0  0
  -14.5806    1.9341   -0.0271 C   0  0  0  0  0  0  0  0  0  0  0  0
  -13.3133    1.9744    1.9629 C   0  0  0  0  0  0  0  0  0  0  0  0
   -5.3134    2.6737    4.1924 C   0  0  0  0  0  0  0  0  0  0  0  0
   -3.9847    2.9047    4.5717 C   0  0  0  0  0  0  0  0  0  0  0  0
   -3.4356    4.0899    4.9892 N   0  0  0  0  0  0  0  0  0  0  0  0
   -2.1472    4.3815    4.4811 C   0  0  0  0  0  0  0  0  0  0  0  0
   -1.9163    4.2352    3.1153 C   0  0  0  0  0  0  0  0  0  0  0  0
   -0.6379    4.3398    2.6091 C   0  0  0  0  0  0  0  0  0  0  0  0
    0.4263    4.5923    3.4658 C   0  0  0  0  0  0  0  0  0  0  0  0
    2.1014    4.5975    2.9145 S   0  0  0  0  0  0  0  0  0  0  0  0
    2.0219    3.5778    1.4116 C   0  0  0  0  0  0  0  0  0  0  0  0
    0.1824    4.8345    4.8156 C   0  0  0  0  0  0  0  0  0  0  0  0
   -1.0958    4.7305    5.3239 C   0  0  0  0  0  0  0  0  0  0  0  0
   -4.0780    4.9698    5.8581 C   0  0  0  0  0  0  0  0  0  0  0  0
   -3.8431    6.3396    5.7690 C   0  0  0  0  0  0  0  0  0  0  0  0
   -4.4616    7.2180    6.6360 C   0  0  0  0  0  0  0  0  0  0  0  0
   -5.3332    6.7421    7.6080 C   0  0  0  0  0  0  0  0  0  0  0  0
   -6.1759    7.7618    8.7714 S   0  0  0  0  0  0  0  0  0  0  0  0
   -5.7898    9.4521    8.2336 C   0  0  0  0  0  0  0  0  0  0  0  0
   -5.5643    5.3701    7.7056 C   0  0  0  0  0  0  0  0  0  0  0  0
   -4.9432    4.4932    6.8462 C   0  0  0  0  0  0  0  0  0  0  0  0
   -3.1766    1.7748    4.2762 C   0  0  0  0  0  0  0  0  0  0  0  0
   -1.4830    1.4446    4.4067 S   0  0  0  0  0  0  0  0  0  0  0  0
   -1.6933   -0.0654    3.5427 C   0  0  0  0  0  0  0  0  0  0  0  0
   -3.0092   -0.2963    3.1715 C   0  0  0  0  0  0  0  0  0  0  0  0
   -3.4033   -1.2472    2.2405 N   0  0  0  0  0  0  0  0  0  0  0  0
   -4.7723   -1.5379    2.1477 C   0  0  0  0  0  0  0  0  0  0  0  0
   -5.4445   -1.4783    0.9268 C   0  0  0  0  0  0  0  0  0  0  0  0
   -6.8162   -1.5976    0.8871 C   0  0  0  0  0  0  0  0  0  0  0  0
   -7.5393   -1.7852    2.0615 C   0  0  0  0  0  0  0  0  0  0  0  0
   -9.3063   -1.7802    1.9586 S   0  0  0  0  0  0  0  0  0  0  0  0
   -9.7685   -1.0777    3.5717 C   0  0  0  0  0  0  0  0  0  0  0  0
   -6.8667   -1.9544    3.2633 C   0  0  0  0  0  0  0  0  0  0  0  0
   -5.4916   -1.8286    3.3057 C   0  0  0  0  0  0  0  0  0  0  0  0
   -2.5729   -1.4157    1.1059 C   0  0  0  0  0  0  0  0  0  0  0  0
   -2.3365   -2.6892    0.5967 C   0  0  0  0  0  0  0  0  0  0  0  0
   -1.4555   -2.8630   -0.4505 C   0  0  0  0  0  0  0  0  0  0  0  0
   -0.7955   -1.7699   -1.0072 C   0  0  0  0  0  0  0  0  0  0  0  0
    0.3714   -2.0889   -2.2934 S   0  0  0  0  0  0  0  0  0  0  0  0
    0.5417   -0.4768   -3.1157 C   0  0  0  0  0  0  0  0  0  0  0  0
   -1.0600   -0.4942   -0.5270 C   0  0  0  0  0  0  0  0  0  0  0  0
   -1.9491   -0.3211    0.5142 C   0  0  0  0  0  0  0  0  0  0  0  0
   -3.8492    0.7245    3.6770 C   0  0  0  0  0  0  0  0  0  0  0  0
   -5.5384    1.0346    3.5722 S   0  0  0  0  0  0  0  0  0  0  0  0
   -0.5381   -0.7771    3.0958 C   0  0  0  0  0  0  0  0  0  0  0  0
   -0.3497   -2.1238    2.9431 C   0  0  0  0  0  0  0  0  0  0  0  0
    0.8450   -2.4280    2.2695 C   0  0  0  0  0  0  0  0  0  0  0  0
    1.2931   -4.0248    1.8421 Cl  0  0  0  0  0  0  0  0  0  0  0  0
    1.5851   -1.3305    1.9051 C   0  0  0  0  0  0  0  0  0  0  0  0
    0.7955    0.1219    2.4346 S   0  0  0  0  0  0  0  0  0  0  0  0
    2.7939   -1.2748    1.1408 C   0  0  0  0  0  0  0  0  0  0  0  0
    3.9731   -1.9751    1.3333 C   0  0  0  0  0  0  0  0  0  0  0  0
    4.2410   -2.7750    2.4246 N   0  0  0  0  0  0  0  0  0  0  0  0
    3.6289   -2.4994    3.6577 C   0  0  0  0  0  0  0  0  0  0  0  0
    3.1434   -3.5306    4.4548 C   0  0  0  0  0  0  0  0  0  0  0  0
    2.4582   -3.2568    5.6230 C   0  0  0  0  0  0  0  0  0  0  0  0
    2.2468   -1.9422    6.0145 C   0  0  0  0  0  0  0  0  0  0  0  0
    1.3214   -1.4638    7.4396 S   0  0  0  0  0  0  0  0  0  0  0  0
    0.9632   -3.0353    8.2759 C   0  0  0  0  0  0  0  0  0  0  0  0
    2.7745   -0.9072    5.2454 C   0  0  0  0  0  0  0  0  0  0  0  0
    3.4639   -1.1814    4.0864 C   0  0  0  0  0  0  0  0  0  0  0  0
    5.0555   -3.9054    2.2686 C   0  0  0  0  0  0  0  0  0  0  0  0
    5.9367   -4.2816    3.2825 C   0  0  0  0  0  0  0  0  0  0  0  0
    6.7502   -5.3792    3.1190 C   0  0  0  0  0  0  0  0  0  0  0  0
    6.7101   -6.1221    1.9396 C   0  0  0  0  0  0  0  0  0  0  0  0
    7.8092   -7.5002    1.8431 S   0  0  0  0  0  0  0  0  0  0  0  0
    7.6126   -8.0957    0.1397 C   0  0  0  0  0  0  0  0  0  0  0  0
    5.8263   -5.7581    0.9340 C   0  0  0  0  0  0  0  0  0  0  0  0
    5.0032   -4.6611    1.1015 C   0  0  0  0  0  0  0  0  0  0  0  0
    4.8941   -1.6919    0.2910 C   0  0  0  0  0  0  0  0  0  0  0  0
    6.4960   -2.2034   -0.1103 S   0  0  0  0  0  0  0  0  0  0  0  0
    6.4705   -1.2506   -1.5858 C   0  0  0  0  0  0  0  0  0  0  0  0
    5.2746   -0.5540   -1.7380 C   0  0  0  0  0  0  0  0  0  0  0  0
    4.9906    0.3921   -2.7193 N   0  0  0  0  0  0  0  0  0  0  0  0
    4.6694    1.6840   -2.2949 C   0  0  0  0  0  0  0  0  0  0  0  0
    5.3022    2.2258   -1.1772 C   0  0  0  0  0  0  0  0  0  0  0  0
    4.9938    3.4970   -0.7343 C   0  0  0  0  0  0  0  0  0  0  0  0
    4.0487    4.2588   -1.4087 C   0  0  0  0  0  0  0  0  0  0  0  0
    3.5591    5.8884   -0.9373 S   0  0  0  0  0  0  0  0  0  0  0  0
    4.6191    6.2842    0.4805 C   0  0  0  0  0  0  0  0  0  0  0  0
    3.4189    3.7236   -2.5312 C   0  0  0  0  0  0  0  0  0  0  0  0
    3.7192    2.4538   -2.9685 C   0  0  0  0  0  0  0  0  0  0  0  0
    4.6793   -0.0270   -4.0245 C   0  0  0  0  0  0  0  0  0  0  0  0
    3.8684   -1.1376   -4.2282 C   0  0  0  0  0  0  0  0  0  0  0  0
    3.5766   -1.5665   -5.5100 C   0  0  0  0  0  0  0  0  0  0  0  0
    4.0991   -0.8893   -6.6015 C   0  0  0  0  0  0  0  0  0  0  0  0
    3.8197   -1.3537   -8.2810 S   0  0  0  0  0  0  0  0  0  0  0  0
    2.8090   -2.8573   -8.1572 C   0  0  0  0  0  0  0  0  0  0  0  0
    4.9031    0.2323   -6.3985 C   0  0  0  0  0  0  0  0  0  0  0  0
    5.1894    0.6625   -5.1226 C   0  0  0  0  0  0  0  0  0  0  0  0
    4.4142   -0.7911   -0.6458 C   0  0  0  0  0  0  0  0  0  0  0  0
    2.8420   -0.2071   -0.2491 S   0  0  0  0  0  0  0  0  0  0  0  0
    7.6546   -1.0698   -2.3529 C   0  0  0  0  0  0  0  0  0  0  0  0
    7.6930   -1.1621   -3.7121 C   0  0  0  0  0  0  0  0  0  0  0  0
    6.7993   -2.0676   -4.4700 C   0  0  0  0  0  0  0  0  0  0  0  0
    5.8975   -2.7448   -4.0213 O   0  0  0  0  0  0  0  0  0  0  0  0
    7.3295   -2.0895   -5.8438 C   0  0  0  0  0  0  0  0  0  0  0  0
    6.8300   -2.8170   -6.9216 C   0  0  0  0  0  0  0  0  0  0  0  0
    7.5128   -2.6209   -8.0974 C   0  0  0  0  0  0  0  0  0  0  0  0
    8.6300   -1.7795   -8.1913 C   0  0  0  0  0  0  0  0  0  0  0  0
    9.1487   -1.0732   -7.1324 C   0  0  0  0  0  0  0  0  0  0  0  0
    8.4571   -1.2473   -5.9298 C   0  0  0  0  0  0  0  0  0  0  0  0
    8.6957   -0.6536   -4.6193 C   0  0  0  0  0  0  0  0  0  0  0  0
    9.6120    0.3192   -4.3121 C   0  0  0  0  0  0  0  0  0  0  0  0
   10.5617    0.8379   -5.2141 C   0  0  0  0  0  0  0  0  0  0  0  0
   11.3636    1.2896   -5.9011 N   0  0  0  0  0  0  0  0  0  0  0  0
    9.6759    0.9511   -3.0529 C   0  0  0  0  0  0  0  0  0  0  0  0
    9.7474    1.5225   -2.0592 N   0  0  0  0  0  0  0  0  0  0  0  0
    8.8170   -2.0583   -9.6616 C   0  0  0  0  0  0  0  0  0  0  0  0
    8.3406   -0.9598  -10.6356 C   0  0  0  0  0  0  0  0  0  0  0  0
    8.2004   -1.6831  -11.9555 C   0  0  0  0  0  0  0  0  0  0  0  0
    7.1423   -2.4791  -11.8684 C   0  0  0  0  0  0  0  0  0  0  0  0
    6.5494   -2.3063  -10.4893 C   0  0  0  0  0  0  0  0  0  0  0  0
    6.8622   -0.8243  -10.2504 C   0  0  0  0  0  0  0  0  0  0  0  0
    7.5699   -2.9942   -9.5579 C   0  0  0  0  0  0  0  0  0  0  0  0
   -6.4688    4.3143    4.9543 H   0  0  0  0  0  0  0  0  0  0  0  0
  -11.7087    3.8931    3.9840 H   0  0  0  0  0  0  0  0  0  0  0  0
   -9.4535    0.9538    0.5258 H   0  0  0  0  0  0  0  0  0  0  0  0
  -12.7172   -0.0138    1.0045 H   0  0  0  0  0  0  0  0  0  0  0  0
  -12.9910    0.9368   -1.2781 H   0  0  0  0  0  0  0  0  0  0  0  0
  -11.7854    3.2568   -1.2629 H   0  0  0  0  0  0  0  0  0  0  0  0
  -12.9955    4.8114    0.5196 H   0  0  0  0  0  0  0  0  0  0  0  0
  -14.9482    3.4491    1.6017 H   0  0  0  0  0  0  0  0  0  0  0  0
  -15.1316    1.0730    0.3490 H   0  0  0  0  0  0  0  0  0  0  0  0
  -15.1455    2.4118   -0.8262 H   0  0  0  0  0  0  0  0  0  0  0  0
  -13.9086    1.4931    2.7369 H   0  0  0  0  0  0  0  0  0  0  0  0
   -2.7403    4.0103    2.4544 H   0  0  0  0  0  0  0  0  0  0  0  0
   -0.4816    4.2142    1.5503 H   0  0  0  0  0  0  0  0  0  0  0  0
    3.0369    3.2504    1.2075 H   0  0  0  0  0  0  0  0  0  0  0  0
    1.3917    2.7145    1.6003 H   0  0  0  0  0  0  0  0  0  0  0  0
    1.6556    4.1645    0.5740 H   0  0  0  0  0  0  0  0  0  0  0  0
    1.0101    5.0673    5.4674 H   0  0  0  0  0  0  0  0  0  0  0  0
   -1.2785    4.8774    6.3778 H   0  0  0  0  0  0  0  0  0  0  0  0
   -3.1745    6.7161    5.0093 H   0  0  0  0  0  0  0  0  0  0  0  0
   -4.2585    8.2719    6.5381 H   0  0  0  0  0  0  0  0  0  0  0  0
   -6.3588   10.1034    8.8898 H   0  0  0  0  0  0  0  0  0  0  0  0
   -4.7283    9.6506    8.3501 H   0  0  0  0  0  0  0  0  0  0  0  0
   -6.1101    9.5930    7.2056 H   0  0  0  0  0  0  0  0  0  0  0  0
   -6.2351    5.0042    8.4672 H   0  0  0  0  0  0  0  0  0  0  0  0
   -5.1135    3.4309    6.9399 H   0  0  0  0  0  0  0  0  0  0  0  0
   -4.8927   -1.2850    0.0195 H   0  0  0  0  0  0  0  0  0  0  0  0
   -7.3411   -1.5002   -0.0502 H   0  0  0  0  0  0  0  0  0  0  0  0
   -9.0920   -0.2627    3.8118 H   0  0  0  0  0  0  0  0  0  0  0  0
  -10.7793   -0.6983    3.4595 H   0  0  0  0  0  0  0  0  0  0  0  0
   -9.7466   -1.8436    4.3416 H   0  0  0  0  0  0  0  0  0  0  0  0
   -7.4057   -2.1633    4.1736 H   0  0  0  0  0  0  0  0  0  0  0  0
   -4.9684   -1.9317    4.2452 H   0  0  0  0  0  0  0  0  0  0  0  0
   -2.8418   -3.5386    1.0311 H   0  0  0  0  0  0  0  0  0  0  0  0
   -1.2573   -3.8505   -0.8377 H   0  0  0  0  0  0  0  0  0  0  0  0
    1.0741   -0.6712   -4.0418 H   0  0  0  0  0  0  0  0  0  0  0  0
   -0.4446   -0.0766   -3.3293 H   0  0  0  0  0  0  0  0  0  0  0  0
    1.1216    0.2053   -2.4995 H   0  0  0  0  0  0  0  0  0  0  0  0
   -0.5730    0.3708   -0.9471 H   0  0  0  0  0  0  0  0  0  0  0  0
   -2.1554    0.6755    0.8767 H   0  0  0  0  0  0  0  0  0  0  0  0
   -1.0436   -2.8670    3.2877 H   0  0  0  0  0  0  0  0  0  0  0  0
    3.2836   -4.5554    4.1456 H   0  0  0  0  0  0  0  0  0  0  0  0
    2.0791   -4.0810    6.2051 H   0  0  0  0  0  0  0  0  0  0  0  0
    1.8907   -3.5529    8.5022 H   0  0  0  0  0  0  0  0  0  0  0  0
    0.4567   -2.7665    9.1977 H   0  0  0  0  0  0  0  0  0  0  0  0
    0.3085   -3.6465    7.6613 H   0  0  0  0  0  0  0  0  0  0  0  0
    2.6299    0.1134    5.5651 H   0  0  0  0  0  0  0  0  0  0  0  0
    3.8708   -0.3705    3.5009 H   0  0  0  0  0  0  0  0  0  0  0  0
    5.9805   -3.7024    4.1927 H   0  0  0  0  0  0  0  0  0  0  0  0
    7.4368   -5.6708    3.8987 H   0  0  0  0  0  0  0  0  0  0  0  0
    6.6112   -8.4905   -0.0060 H   0  0  0  0  0  0  0  0  0  0  0  0
    8.3415   -8.8917    0.0229 H   0  0  0  0  0  0  0  0  0  0  0  0
    7.8269   -7.2920   -0.5585 H   0  0  0  0  0  0  0  0  0  0  0  0
    5.7582   -6.3204    0.0172 H   0  0  0  0  0  0  0  0  0  0  0  0
    4.3035   -4.3983    0.3220 H   0  0  0  0  0  0  0  0  0  0  0  0
    6.0534    1.6508   -0.6561 H   0  0  0  0  0  0  0  0  0  0  0  0
    5.5073    3.8838    0.1313 H   0  0  0  0  0  0  0  0  0  0  0  0
    4.3794    7.3102    0.7418 H   0  0  0  0  0  0  0  0  0  0  0  0
    5.6634    6.2114    0.1919 H   0  0  0  0  0  0  0  0  0  0  0  0
    4.3866    5.6328    1.3181 H   0  0  0  0  0  0  0  0  0  0  0  0
    2.6836    4.3176   -3.0523 H   0  0  0  0  0  0  0  0  0  0  0  0
    3.2155    2.0485   -3.8332 H   0  0  0  0  0  0  0  0  0  0  0  0
    3.4706   -1.6759   -3.3819 H   0  0  0  0  0  0  0  0  0  0  0  0
    2.9494   -2.4341   -5.6330 H   0  0  0  0  0  0  0  0  0  0  0  0
    1.8557   -2.6295   -7.6896 H   0  0  0  0  0  0  0  0  0  0  0  0
    2.6457   -3.1855   -9.1792 H   0  0  0  0  0  0  0  0  0  0  0  0
    3.3452   -3.6229   -7.6044 H   0  0  0  0  0  0  0  0  0  0  0  0
    5.3040    0.7542   -7.2544 H   0  0  0  0  0  0  0  0  0  0  0  0
    5.8155    1.5282   -4.9629 H   0  0  0  0  0  0  0  0  0  0  0  0
    8.5523   -0.8291   -1.7954 H   0  0  0  0  0  0  0  0  0  0  0  0
    5.9765   -3.4651   -6.8009 H   0  0  0  0  0  0  0  0  0  0  0  0
   10.0194   -0.4435   -7.2133 H   0  0  0  0  0  0  0  0  0  0  0  0
    9.7736   -2.4935   -9.9445 H   0  0  0  0  0  0  0  0  0  0  0  0
    8.9457   -0.0573  -10.6336 H   0  0  0  0  0  0  0  0  0  0  0  0
    8.8944   -1.5858  -12.7698 H   0  0  0  0  0  0  0  0  0  0  0  0
    6.7764   -3.1794  -12.5965 H   0  0  0  0  0  0  0  0  0  0  0  0
    5.5199   -2.6232  -10.3530 H   0  0  0  0  0  0  0  0  0  0  0  0
    6.6945   -0.5009   -9.2255 H   0  0  0  0  0  0  0  0  0  0  0  0
    6.3137   -0.1751  -10.9300 H   0  0  0  0  0  0  0  0  0  0  0  0
    7.6951   -4.0543   -9.7718 H   0  0  0  0  0  0  0  0  0  0  0  0
  1  2  2  0  0  0  0
  2  3  1  0  0  0  0
  3  4  2  0  0  0  0
  3  5  1  0  0  0  0
  5  6  2  0  0  0  0
  6  7  1  0  0  0  0
  7  8  2  0  0  0  0
  8  9  1  0  0  0  0
  9 10  2  0  0  0  0
 10 11  1  0  0  0  0
 11 12  2  0  0  0  0
 12 13  1  0  0  0  0
 13 14  3  0  0  0  0
 12 15  1  0  0  0  0
 15 16  3  0  0  0  0
  8 17  1  0  0  0  0
 17 18  1  0  0  0  0
 18 19  1  0  0  0  0
 19 20  2  0  0  0  0
 20 21  1  0  0  0  0
 21 22  1  0  0  0  0
 21 23  1  0  0  0  0
  1 24  1  0  0  0  0
 24 25  2  0  0  0  0
 25 26  1  0  0  0  0
 26 27  1  0  0  0  0
 27 28  2  0  0  0  0
 28 29  1  0  0  0  0
 29 30  2  0  0  0  0
 30 31  1  0  0  0  0
 31 32  1  0  0  0  0
 30 33  1  0  0  0  0
 33 34  2  0  0  0  0
 26 35  1  0  0  0  0
 35 36  2  0  0  0  0
 36 37  1  0  0  0  0
 37 38  2  0  0  0  0
 38 39  1  0  0  0  0
 39 40  1  0  0  0  0
 38 41  1  0  0  0  0
 41 42  2  0  0  0  0
 25 43  1  0  0  0  0
 43 44  1  0  0  0  0
 44 45  1  0  0  0  0
 45 46  2  0  0  0  0
 46 47  1  0  0  0  0
 47 48  1  0  0  0  0
 48 49  2  0  0  0  0
 49 50  1  0  0  0  0
 50 51  2  0  0  0  0
 51 52  1  0  0  0  0
 52 53  1  0  0  0  0
 51 54  1  0  0  0  0
 54 55  2  0  0  0  0
 47 56  1  0  0  0  0
 56 57  2  0  0  0  0
 57 58  1  0  0  0  0
 58 59  2  0  0  0  0
 59 60  1  0  0  0  0
 60 61  1  0  0  0  0
 59 62  1  0  0  0  0
 62 63  2  0  0  0  0
 46 64  1  0  0  0  0
 64 65  1  0  0  0  0
 45 66  1  0  0  0  0
 66 67  2  0  0  0  0
 67 68  1  0  0  0  0
 68 69  1  0  0  0  0
 68 70  2  0  0  0  0
 70 71  1  0  0  0  0
 70 72  1  0  0  0  0
 72 73  2  0  0  0  0
 73 74  1  0  0  0  0
 74 75  1  0  0  0  0
 75 76  2  0  0  0  0
 76 77  1  0  0  0  0
 77 78  2  0  0  0  0
 78 79  1  0  0  0  0
 79 80  1  0  0  0  0
 78 81  1  0  0  0  0
 81 82  2  0  0  0  0
 74 83  1  0  0  0  0
 83 84  2  0  0  0  0
 84 85  1  0  0  0  0
 85 86  2  0  0  0  0
 86 87  1  0  0  0  0
 87 88  1  0  0  0  0
 86 89  1  0  0  0  0
 89 90  2  0  0  0  0
 73 91  1  0  0  0  0
 91 92  1  0  0  0  0
 92 93  1  0  0  0  0
 93 94  2  0  0  0  0
 94 95  1  0  0  0  0
 95 96  1  0  0  0  0
 96 97  2  0  0  0  0
 97 98  1  0  0  0  0
 98 99  2  0  0  0  0
 99100  1  0  0  0  0
100101  1  0  0  0  0
 99102  1  0  0  0  0
102103  2  0  0  0  0
 95104  1  0  0  0  0
104105  2  0  0  0  0
105106  1  0  0  0  0
106107  2  0  0  0  0
107108  1  0  0  0  0
108109  1  0  0  0  0
107110  1  0  0  0  0
110111  2  0  0  0  0
 94112  1  0  0  0  0
112113  1  0  0  0  0
 93114  1  0  0  0  0
114115  2  0  0  0  0
115116  1  0  0  0  0
116117  2  0  0  0  0
116118  1  0  0  0  0
118119  2  0  0  0  0
119120  1  0  0  0  0
120121  2  0  0  0  0
121122  1  0  0  0  0
122123  2  0  0  0  0
123124  1  0  0  0  0
124125  2  0  0  0  0
125126  1  0  0  0  0
126127  3  0  0  0  0
125128  1  0  0  0  0
128129  3  0  0  0  0
121130  1  0  0  0  0
130131  1  0  0  0  0
131132  1  0  0  0  0
132133  2  0  0  0  0
133134  1  0  0  0  0
134135  1  0  0  0  0
134136  1  0  0  0  0
 11  2  1  0  0  0  0
 23 17  1  0  0  0  0
 65 24  1  0  0  0  0
 71 66  1  0  0  0  0
113 72  1  0  0  0  0
124115  1  0  0  0  0
136130  1  0  0  0  0
 10  5  1  0  0  0  0
 22 18  1  0  0  0  0
 34 27  1  0  0  0  0
 42 35  1  0  0  0  0
 64 43  2  0  0  0  0
 82 75  1  0  0  0  0
 90 83  1  0  0  0  0
112 91  2  0  0  0  0
123118  1  0  0  0  0
135131  1  0  0  0  0
 23  7  1  0  0  0  0
 55 48  1  0  0  0  0
 63 56  1  0  0  0  0
103 96  1  0  0  0  0
111104  1  0  0  0  0
136120  1  0  0  0  0
  1137  1  0  0  0  0
  6138  1  0  0  0  0
  9139  1  0  0  0  0
 17140  1  0  0  0  0
 18141  1  0  0  0  0
 19142  1  0  0  0  0
 20143  1  0  0  0  0
 21144  1  0  0  0  0
 22145  1  0  0  0  0
 22146  1  0  0  0  0
 23147  1  0  0  0  0
 28148  1  0  0  0  0
 29149  1  0  0  0  0
 32150  1  0  0  0  0
 32151  1  0  0  0  0
 32152  1  0  0  0  0
 33153  1  0  0  0  0
 34154  1  0  0  0  0
 36155  1  0  0  0  0
 37156  1  0  0  0  0
 40157  1  0  0  0  0
 40158  1  0  0  0  0
 40159  1  0  0  0  0
 41160  1  0  0  0  0
 42161  1  0  0  0  0
 49162  1  0  0  0  0
 50163  1  0  0  0  0
 53164  1  0  0  0  0
 53165  1  0  0  0  0
 53166  1  0  0  0  0
 54167  1  0  0  0  0
 55168  1  0  0  0  0
 57169  1  0  0  0  0
 58170  1  0  0  0  0
 61171  1  0  0  0  0
 61172  1  0  0  0  0
 61173  1  0  0  0  0
 62174  1  0  0  0  0
 63175  1  0  0  0  0
 67176  1  0  0  0  0
 76177  1  0  0  0  0
 77178  1  0  0  0  0
 80179  1  0  0  0  0
 80180  1  0  0  0  0
 80181  1  0  0  0  0
 81182  1  0  0  0  0
 82183  1  0  0  0  0
 84184  1  0  0  0  0
 85185  1  0  0  0  0
 88186  1  0  0  0  0
 88187  1  0  0  0  0
 88188  1  0  0  0  0
 89189  1  0  0  0  0
 90190  1  0  0  0  0
 97191  1  0  0  0  0
 98192  1  0  0  0  0
101193  1  0  0  0  0
101194  1  0  0  0  0
101195  1  0  0  0  0
102196  1  0  0  0  0
103197  1  0  0  0  0
105198  1  0  0  0  0
106199  1  0  0  0  0
109200  1  0  0  0  0
109201  1  0  0  0  0
109202  1  0  0  0  0
110203  1  0  0  0  0
111204  1  0  0  0  0
114205  1  0  0  0  0
119206  1  0  0  0  0
122207  1  0  0  0  0
130208  1  0  0  0  0
131209  1  0  0  0  0
132210  1  0  0  0  0
133211  1  0  0  0  0
134212  1  0  0  0  0
135213  1  0  0  0  0
135214  1  0  0  0  0
136215  1  0  0  0  0
M  END
