
  xtb     02152207193D
 energy: -316.862873807521 gnorm: 0.000295670360 xtb: 6.4.1 (unknown)
194215  0     0  0            999 V2000
   -2.0342    7.6242   -0.9268 C   0  0  0  0  0  0  0  0  0  0  0  0
   -3.1794    7.4680   -1.6364 C   0  0  0  0  0  0  0  0  0  0  0  0
   -3.7885    6.1684   -2.0377 C   0  0  0  0  0  0  0  0  0  0  0  0
   -3.5725    5.0618   -1.5952 O   0  0  0  0  0  0  0  0  0  0  0  0
   -4.6939    6.4889   -3.1565 C   0  0  0  0  0  0  0  0  0  0  0  0
   -5.4186    5.5743   -3.9192 C   0  0  0  0  0  0  0  0  0  0  0  0
   -6.1761    6.1497   -4.9095 C   0  0  0  0  0  0  0  0  0  0  0  0
   -6.2094    7.5341   -5.1311 C   0  0  0  0  0  0  0  0  0  0  0  0
   -5.5060    8.4470   -4.3826 C   0  0  0  0  0  0  0  0  0  0  0  0
   -4.7287    7.8820   -3.3648 C   0  0  0  0  0  0  0  0  0  0  0  0
   -3.8565    8.5182   -2.3851 C   0  0  0  0  0  0  0  0  0  0  0  0
   -3.7443    9.8620   -2.1543 C   0  0  0  0  0  0  0  0  0  0  0  0
   -2.9637   10.4379   -1.1276 C   0  0  0  0  0  0  0  0  0  0  0  0
   -2.3805   10.9855   -0.3044 N   0  0  0  0  0  0  0  0  0  0  0  0
   -4.4324   10.8547   -2.8828 C   0  0  0  0  0  0  0  0  0  0  0  0
   -4.9583   11.7087   -3.4416 N   0  0  0  0  0  0  0  0  0  0  0  0
   -7.1576    7.4037   -6.2975 C   0  0  0  0  0  0  0  0  0  0  0  0
   -6.5403    7.5325   -7.7064 C   0  0  0  0  0  0  0  0  0  0  0  0
   -7.5706    6.8972   -8.6122 C   0  0  0  0  0  0  0  0  0  0  0  0
   -7.5431    5.5878   -8.3989 C   0  0  0  0  0  0  0  0  0  0  0  0
   -6.4938    5.3160   -7.3454 C   0  0  0  0  0  0  0  0  0  0  0  0
   -5.4844    6.4195   -7.6877 C   0  0  0  0  0  0  0  0  0  0  0  0
   -7.1241    5.8620   -6.0464 C   0  0  0  0  0  0  0  0  0  0  0  0
   -1.3113    6.5932   -0.2346 C   0  0  0  0  0  0  0  0  0  0  0  0
   -1.8988    5.5554    0.4690 C   0  0  0  0  0  0  0  0  0  0  0  0
   -1.1383    4.5112    0.9876 C   0  0  0  0  0  0  0  0  0  0  0  0
    0.2293    4.4500    0.8023 C   0  0  0  0  0  0  0  0  0  0  0  0
    0.8827    5.5596    0.2098 C   0  0  0  0  0  0  0  0  0  0  0  0
    2.2189    5.5709    0.0788 N   0  0  0  0  0  0  0  0  0  0  0  0
    2.8034    6.6124   -0.4621 C   0  0  0  0  0  0  0  0  0  0  0  0
    4.2432    6.4974   -0.7123 C   0  0  0  0  0  0  0  0  0  0  0  0
    4.8193    7.0199   -1.8684 C   0  0  0  0  0  0  0  0  0  0  0  0
    6.1752    6.8761   -2.0919 C   0  0  0  0  0  0  0  0  0  0  0  0
    6.9688    6.2122   -1.1704 C   0  0  0  0  0  0  0  0  0  0  0  0
    6.3979    5.6723   -0.0294 C   0  0  0  0  0  0  0  0  0  0  0  0
    5.0416    5.8065    0.1964 C   0  0  0  0  0  0  0  0  0  0  0  0
    2.0384    7.7776   -0.7953 C   0  0  0  0  0  0  0  0  0  0  0  0
    0.7268    7.7470   -0.7413 N   0  0  0  0  0  0  0  0  0  0  0  0
    0.1128    6.6507   -0.2726 C   0  0  0  0  0  0  0  0  0  0  0  0
    2.6400    9.0677   -1.1463 C   0  0  0  0  0  0  0  0  0  0  0  0
    2.0253    9.8664   -2.1083 C   0  0  0  0  0  0  0  0  0  0  0  0
    2.5601   11.0963   -2.4393 C   0  0  0  0  0  0  0  0  0  0  0  0
    3.7042   11.5494   -1.8031 C   0  0  0  0  0  0  0  0  0  0  0  0
    4.3058   10.7713   -0.8269 C   0  0  0  0  0  0  0  0  0  0  0  0
    3.7803    9.5368   -0.4971 C   0  0  0  0  0  0  0  0  0  0  0  0
    0.9526    3.2242    1.1333 C   0  0  0  0  0  0  0  0  0  0  0  0
    1.7653    2.5795    0.2239 C   0  0  0  0  0  0  0  0  0  0  0  0
    2.0057    3.1163   -0.9803 F   0  0  0  0  0  0  0  0  0  0  0  0
    2.2865    1.2934    0.4454 C   0  0  0  0  0  0  0  0  0  0  0  0
    3.0816    0.8137   -0.5183 F   0  0  0  0  0  0  0  0  0  0  0  0
    1.9927    0.5598    1.5855 C   0  0  0  0  0  0  0  0  0  0  0  0
    1.3216    1.2938    2.6134 C   0  0  0  0  0  0  0  0  0  0  0  0
    1.1996    0.7347    3.8213 N   0  0  0  0  0  0  0  0  0  0  0  0
    0.5588    1.3497    4.7830 C   0  0  0  0  0  0  0  0  0  0  0  0
    0.5463    0.6693    6.1156 C   0  0  0  0  0  0  0  0  0  0  0  0
    1.7699    1.0947    6.9303 C   0  0  0  0  0  0  0  0  0  0  0  0
   -0.0327    2.6217    4.5334 C   0  0  0  0  0  0  0  0  0  0  0  0
    0.0935    3.1969    3.3647 N   0  0  0  0  0  0  0  0  0  0  0  0
    0.7754    2.5797    2.3851 C   0  0  0  0  0  0  0  0  0  0  0  0
   -0.8190    3.3501    5.5823 C   0  0  0  0  0  0  0  0  0  0  0  0
   -1.3289    4.6998    5.0957 C   0  0  0  0  0  0  0  0  0  0  0  0
    2.1589   -0.8579    1.7681 C   0  0  0  0  0  0  0  0  0  0  0  0
    2.1958   -1.8600    0.8034 C   0  0  0  0  0  0  0  0  0  0  0  0
    2.2229   -1.7174   -0.5933 N   0  0  0  0  0  0  0  0  0  0  0  0
    1.0276   -2.1205   -1.2198 C   0  0  0  0  0  0  0  0  0  0  0  0
   -0.1798   -1.6270   -0.7326 C   0  0  0  0  0  0  0  0  0  0  0  0
   -1.3736   -1.9970   -1.3202 C   0  0  0  0  0  0  0  0  0  0  0  0
   -1.3999   -2.8645   -2.4031 C   0  0  0  0  0  0  0  0  0  0  0  0
   -2.6853   -3.2518   -3.0638 C   0  0  0  0  0  0  0  0  0  0  0  0
   -0.1910   -3.3773   -2.8640 C   0  0  0  0  0  0  0  0  0  0  0  0
    1.0082   -3.0212   -2.2822 C   0  0  0  0  0  0  0  0  0  0  0  0
    3.4448   -1.6896   -1.2655 C   0  0  0  0  0  0  0  0  0  0  0  0
    4.6322   -1.9864   -0.6021 C   0  0  0  0  0  0  0  0  0  0  0  0
    5.8410   -1.9209   -1.2686 C   0  0  0  0  0  0  0  0  0  0  0  0
    5.9045   -1.5651   -2.6073 C   0  0  0  0  0  0  0  0  0  0  0  0
    7.2129   -1.4872   -3.3348 C   0  0  0  0  0  0  0  0  0  0  0  0
    4.7149   -1.2586   -3.2610 C   0  0  0  0  0  0  0  0  0  0  0  0
    3.5035   -1.3103   -2.6067 C   0  0  0  0  0  0  0  0  0  0  0  0
    2.0356   -3.1328    1.3844 C   0  0  0  0  0  0  0  0  0  0  0  0
    1.8136   -4.7011    0.7017 S   0  0  0  0  0  0  0  0  0  0  0  0
    1.5290   -5.3702    2.3110 C   0  0  0  0  0  0  0  0  0  0  0  0
    1.6565   -4.4004    3.3167 C   0  0  0  0  0  0  0  0  0  0  0  0
    1.4480   -4.6163    4.6513 N   0  0  0  0  0  0  0  0  0  0  0  0
    0.5414   -5.5989    5.1085 C   0  0  0  0  0  0  0  0  0  0  0  0
    0.8973   -6.4330    6.1624 C   0  0  0  0  0  0  0  0  0  0  0  0
    0.0177   -7.4039    6.6001 C   0  0  0  0  0  0  0  0  0  0  0  0
   -1.2264   -7.5650    6.0024 C   0  0  0  0  0  0  0  0  0  0  0  0
   -2.1547   -8.6513    6.4490 C   0  0  0  0  0  0  0  0  0  0  0  0
   -1.5784   -6.7087    4.9650 C   0  0  0  0  0  0  0  0  0  0  0  0
   -0.7140   -5.7277    4.5225 C   0  0  0  0  0  0  0  0  0  0  0  0
    2.0768   -3.7908    5.5962 C   0  0  0  0  0  0  0  0  0  0  0  0
    1.3981   -3.3840    6.7409 C   0  0  0  0  0  0  0  0  0  0  0  0
    2.0368   -2.6044    7.6857 C   0  0  0  0  0  0  0  0  0  0  0  0
    3.3567   -2.2071    7.5165 C   0  0  0  0  0  0  0  0  0  0  0  0
    4.0653   -1.3864    8.5501 C   0  0  0  0  0  0  0  0  0  0  0  0
    4.0242   -2.6108    6.3651 C   0  0  0  0  0  0  0  0  0  0  0  0
    3.4016   -3.3958    5.4176 C   0  0  0  0  0  0  0  0  0  0  0  0
    1.9437   -3.1309    2.7648 C   0  0  0  0  0  0  0  0  0  0  0  0
    1.9728   -1.5122    3.3858 S   0  0  0  0  0  0  0  0  0  0  0  0
    1.2692   -6.7410    2.4867 C   0  0  0  0  0  0  0  0  0  0  0  0
    0.7850   -7.6317    1.5723 C   0  0  0  0  0  0  0  0  0  0  0  0
    0.9565   -9.0872    1.7947 C   0  0  0  0  0  0  0  0  0  0  0  0
    1.3156   -9.6271    2.8197 O   0  0  0  0  0  0  0  0  0  0  0  0
    0.6304   -9.7253    0.5028 C   0  0  0  0  0  0  0  0  0  0  0  0
    0.7399  -11.0740    0.1705 C   0  0  0  0  0  0  0  0  0  0  0  0
    0.3851  -11.3633   -1.1256 C   0  0  0  0  0  0  0  0  0  0  0  0
   -0.0264  -10.3814   -2.0361 C   0  0  0  0  0  0  0  0  0  0  0  0
   -0.1444   -9.0484   -1.7224 C   0  0  0  0  0  0  0  0  0  0  0  0
    0.1853   -8.7386   -0.4011 C   0  0  0  0  0  0  0  0  0  0  0  0
    0.1156   -7.4597    0.3055 C   0  0  0  0  0  0  0  0  0  0  0  0
   -0.7030   -6.4174   -0.0573 C   0  0  0  0  0  0  0  0  0  0  0  0
   -1.4496   -6.3905   -1.2489 C   0  0  0  0  0  0  0  0  0  0  0  0
   -2.0919   -6.3321   -2.1999 N   0  0  0  0  0  0  0  0  0  0  0  0
   -1.0182   -5.3351    0.7870 C   0  0  0  0  0  0  0  0  0  0  0  0
   -1.3685   -4.4829    1.4740 N   0  0  0  0  0  0  0  0  0  0  0  0
   -0.2151  -11.3793   -3.1515 C   0  0  0  0  0  0  0  0  0  0  0  0
   -1.6707  -11.7807   -3.4709 C   0  0  0  0  0  0  0  0  0  0  0  0
   -1.5306  -13.0814   -4.2277 C   0  0  0  0  0  0  0  0  0  0  0  0
   -1.1509  -14.0128   -3.3621 C   0  0  0  0  0  0  0  0  0  0  0  0
   -1.0279  -13.3568   -2.0057 C   0  0  0  0  0  0  0  0  0  0  0  0
   -2.1486  -12.3148   -2.1145 C   0  0  0  0  0  0  0  0  0  0  0  0
    0.2337  -12.4763   -2.1337 C   0  0  0  0  0  0  0  0  0  0  0  0
   -1.5200    8.5780   -0.9577 H   0  0  0  0  0  0  0  0  0  0  0  0
   -5.3617    4.5167   -3.7148 H   0  0  0  0  0  0  0  0  0  0  0  0
   -5.5405    9.5084   -4.5638 H   0  0  0  0  0  0  0  0  0  0  0  0
   -8.1061    7.9282   -6.1992 H   0  0  0  0  0  0  0  0  0  0  0  0
   -6.2093    8.5337   -7.9685 H   0  0  0  0  0  0  0  0  0  0  0  0
   -8.2299    7.4525   -9.2530 H   0  0  0  0  0  0  0  0  0  0  0  0
   -8.1746    4.8309   -8.8258 H   0  0  0  0  0  0  0  0  0  0  0  0
   -6.1199    4.2980   -7.2775 H   0  0  0  0  0  0  0  0  0  0  0  0
   -5.0273    6.2698   -8.6644 H   0  0  0  0  0  0  0  0  0  0  0  0
   -4.7062    6.5570   -6.9392 H   0  0  0  0  0  0  0  0  0  0  0  0
   -8.0504    5.3576   -5.7776 H   0  0  0  0  0  0  0  0  0  0  0  0
   -2.9661    5.5473    0.6152 H   0  0  0  0  0  0  0  0  0  0  0  0
   -1.6364    3.6935    1.4839 H   0  0  0  0  0  0  0  0  0  0  0  0
    4.2021    7.5215   -2.5992 H   0  0  0  0  0  0  0  0  0  0  0  0
    6.6148    7.2817   -2.9912 H   0  0  0  0  0  0  0  0  0  0  0  0
    8.0293    6.1084   -1.3463 H   0  0  0  0  0  0  0  0  0  0  0  0
    7.0125    5.1426    0.6838 H   0  0  0  0  0  0  0  0  0  0  0  0
    4.5814    5.3866    1.0780 H   0  0  0  0  0  0  0  0  0  0  0  0
    1.1321    9.5031   -2.5934 H   0  0  0  0  0  0  0  0  0  0  0  0
    2.0818   11.7060   -3.1915 H   0  0  0  0  0  0  0  0  0  0  0  0
    4.1220   12.5113   -2.0607 H   0  0  0  0  0  0  0  0  0  0  0  0
    5.1877   11.1303   -0.3171 H   0  0  0  0  0  0  0  0  0  0  0  0
    4.2421    8.9430    0.2780 H   0  0  0  0  0  0  0  0  0  0  0  0
   -0.3669    0.9095    6.6600 H   0  0  0  0  0  0  0  0  0  0  0  0
    0.5962   -0.4076    5.9498 H   0  0  0  0  0  0  0  0  0  0  0  0
    1.7580    0.6059    7.8999 H   0  0  0  0  0  0  0  0  0  0  0  0
    2.6759    0.8044    6.4052 H   0  0  0  0  0  0  0  0  0  0  0  0
    1.7848    2.1719    7.0826 H   0  0  0  0  0  0  0  0  0  0  0  0
   -1.6627    2.7209    5.8818 H   0  0  0  0  0  0  0  0  0  0  0  0
   -0.1884    3.4864    6.4648 H   0  0  0  0  0  0  0  0  0  0  0  0
   -1.8791    5.2001    5.8887 H   0  0  0  0  0  0  0  0  0  0  0  0
   -0.4980    5.3285    4.7892 H   0  0  0  0  0  0  0  0  0  0  0  0
   -1.9830    4.5706    4.2386 H   0  0  0  0  0  0  0  0  0  0  0  0
   -0.1790   -0.9446    0.1056 H   0  0  0  0  0  0  0  0  0  0  0  0
   -2.2990   -1.5985   -0.9305 H   0  0  0  0  0  0  0  0  0  0  0  0
   -2.6711   -2.9689   -4.1158 H   0  0  0  0  0  0  0  0  0  0  0  0
   -2.8198   -4.3314   -3.0102 H   0  0  0  0  0  0  0  0  0  0  0  0
   -3.5315   -2.7682   -2.5826 H   0  0  0  0  0  0  0  0  0  0  0  0
   -0.1952   -4.0775   -3.6870 H   0  0  0  0  0  0  0  0  0  0  0  0
    1.9353   -3.4434   -2.6413 H   0  0  0  0  0  0  0  0  0  0  0  0
    4.6102   -2.2699    0.4406 H   0  0  0  0  0  0  0  0  0  0  0  0
    6.7504   -2.1577   -0.7339 H   0  0  0  0  0  0  0  0  0  0  0  0
    7.4588   -0.4485   -3.5568 H   0  0  0  0  0  0  0  0  0  0  0  0
    8.0166   -1.9096   -2.7366 H   0  0  0  0  0  0  0  0  0  0  0  0
    7.1598   -2.0254   -4.2800 H   0  0  0  0  0  0  0  0  0  0  0  0
    4.7427   -0.9621   -4.3000 H   0  0  0  0  0  0  0  0  0  0  0  0
    2.5949   -1.0414   -3.1232 H   0  0  0  0  0  0  0  0  0  0  0  0
    1.8669   -6.3226    6.6259 H   0  0  0  0  0  0  0  0  0  0  0  0
    0.3077   -8.0549    7.4117 H   0  0  0  0  0  0  0  0  0  0  0  0
   -3.1909   -8.3792    6.2626 H   0  0  0  0  0  0  0  0  0  0  0  0
   -2.0272   -8.8620    7.5084 H   0  0  0  0  0  0  0  0  0  0  0  0
   -1.9406   -9.5663    5.8957 H   0  0  0  0  0  0  0  0  0  0  0  0
   -2.5481   -6.8049    4.4985 H   0  0  0  0  0  0  0  0  0  0  0  0
   -1.0031   -5.0678    3.7181 H   0  0  0  0  0  0  0  0  0  0  0  0
    0.3706   -3.6836    6.8850 H   0  0  0  0  0  0  0  0  0  0  0  0
    1.4962   -2.3013    8.5709 H   0  0  0  0  0  0  0  0  0  0  0  0
    4.8775   -1.9619    8.9936 H   0  0  0  0  0  0  0  0  0  0  0  0
    3.3870   -1.0849    9.3440 H   0  0  0  0  0  0  0  0  0  0  0  0
    4.4992   -0.4945    8.1014 H   0  0  0  0  0  0  0  0  0  0  0  0
    5.0534   -2.3172    6.2180 H   0  0  0  0  0  0  0  0  0  0  0  0
    3.9432   -3.7229    4.5426 H   0  0  0  0  0  0  0  0  0  0  0  0
    1.5526   -7.1733    3.4408 H   0  0  0  0  0  0  0  0  0  0  0  0
    1.0760  -11.7981    0.8961 H   0  0  0  0  0  0  0  0  0  0  0  0
   -0.4511   -8.2987   -2.4329 H   0  0  0  0  0  0  0  0  0  0  0  0
    0.3886  -11.2181   -4.0426 H   0  0  0  0  0  0  0  0  0  0  0  0
   -2.2648  -11.0012   -3.9398 H   0  0  0  0  0  0  0  0  0  0  0  0
   -1.6632  -13.1755   -5.2897 H   0  0  0  0  0  0  0  0  0  0  0  0
   -0.9031  -15.0399   -3.5568 H   0  0  0  0  0  0  0  0  0  0  0  0
   -1.0383  -14.0155   -1.1413 H   0  0  0  0  0  0  0  0  0  0  0  0
   -2.1439  -11.5719   -1.3192 H   0  0  0  0  0  0  0  0  0  0  0  0
   -3.1335  -12.7748   -2.1772 H   0  0  0  0  0  0  0  0  0  0  0  0
    1.1329  -13.0509   -2.3489 H   0  0  0  0  0  0  0  0  0  0  0  0
  1  2  2  0  0  0  0
  2  3  1  0  0  0  0
  3  4  2  0  0  0  0
  3  5  1  0  0  0  0
  5  6  2  0  0  0  0
  6  7  1  0  0  0  0
  7  8  2  0  0  0  0
  8  9  1  0  0  0  0
  9 10  2  0  0  0  0
 10 11  1  0  0  0  0
 11 12  2  0  0  0  0
 12 13  1  0  0  0  0
 13 14  3  0  0  0  0
 12 15  1  0  0  0  0
 15 16  3  0  0  0  0
  8 17  1  0  0  0  0
 17 18  1  0  0  0  0
 18 19  1  0  0  0  0
 19 20  2  0  0  0  0
 20 21  1  0  0  0  0
 21 22  1  0  0  0  0
 21 23  1  0  0  0  0
  1 24  1  0  0  0  0
 24 25  2  0  0  0  0
 25 26  1  0  0  0  0
 26 27  2  0  0  0  0
 27 28  1  0  0  0  0
 28 29  2  0  0  0  0
 29 30  1  0  0  0  0
 30 31  1  0  0  0  0
 31 32  2  0  0  0  0
 32 33  1  0  0  0  0
 33 34  2  0  0  0  0
 34 35  1  0  0  0  0
 35 36  2  0  0  0  0
 30 37  2  0  0  0  0
 37 38  1  0  0  0  0
 38 39  2  0  0  0  0
 37 40  1  0  0  0  0
 40 41  2  0  0  0  0
 41 42  1  0  0  0  0
 42 43  2  0  0  0  0
 43 44  1  0  0  0  0
 44 45  2  0  0  0  0
 27 46  1  0  0  0  0
 46 47  2  0  0  0  0
 47 48  1  0  0  0  0
 47 49  1  0  0  0  0
 49 50  1  0  0  0  0
 49 51  2  0  0  0  0
 51 52  1  0  0  0  0
 52 53  2  0  0  0  0
 53 54  1  0  0  0  0
 54 55  1  0  0  0  0
 55 56  1  0  0  0  0
 54 57  2  0  0  0  0
 57 58  1  0  0  0  0
 58 59  2  0  0  0  0
 57 60  1  0  0  0  0
 60 61  1  0  0  0  0
 51 62  1  0  0  0  0
 62 63  2  0  0  0  0
 63 64  1  0  0  0  0
 64 65  1  0  0  0  0
 65 66  2  0  0  0  0
 66 67  1  0  0  0  0
 67 68  2  0  0  0  0
 68 69  1  0  0  0  0
 68 70  1  0  0  0  0
 70 71  2  0  0  0  0
 64 72  1  0  0  0  0
 72 73  2  0  0  0  0
 73 74  1  0  0  0  0
 74 75  2  0  0  0  0
 75 76  1  0  0  0  0
 75 77  1  0  0  0  0
 77 78  2  0  0  0  0
 63 79  1  0  0  0  0
 79 80  1  0  0  0  0
 80 81  1  0  0  0  0
 81 82  2  0  0  0  0
 82 83  1  0  0  0  0
 83 84  1  0  0  0  0
 84 85  2  0  0  0  0
 85 86  1  0  0  0  0
 86 87  2  0  0  0  0
 87 88  1  0  0  0  0
 87 89  1  0  0  0  0
 89 90  2  0  0  0  0
 83 91  1  0  0  0  0
 91 92  2  0  0  0  0
 92 93  1  0  0  0  0
 93 94  2  0  0  0  0
 94 95  1  0  0  0  0
 94 96  1  0  0  0  0
 96 97  2  0  0  0  0
 82 98  1  0  0  0  0
 98 99  1  0  0  0  0
 81100  1  0  0  0  0
100101  2  0  0  0  0
101102  1  0  0  0  0
102103  2  0  0  0  0
102104  1  0  0  0  0
104105  2  0  0  0  0
105106  1  0  0  0  0
106107  2  0  0  0  0
107108  1  0  0  0  0
108109  2  0  0  0  0
109110  1  0  0  0  0
110111  2  0  0  0  0
111112  1  0  0  0  0
112113  3  0  0  0  0
111114  1  0  0  0  0
114115  3  0  0  0  0
107116  1  0  0  0  0
116117  1  0  0  0  0
117118  1  0  0  0  0
118119  2  0  0  0  0
119120  1  0  0  0  0
120121  1  0  0  0  0
120122  1  0  0  0  0
 11  2  1  0  0  0  0
 23 17  1  0  0  0  0
 39 24  1  0  0  0  0
 45 40  1  0  0  0  0
 59 46  1  0  0  0  0
 99 62  1  0  0  0  0
110101  1  0  0  0  0
122116  1  0  0  0  0
 10  5  1  0  0  0  0
 22 18  1  0  0  0  0
 39 28  1  0  0  0  0
 59 52  1  0  0  0  0
 71 65  1  0  0  0  0
 78 72  1  0  0  0  0
 98 79  2  0  0  0  0
109104  1  0  0  0  0
121117  1  0  0  0  0
 23  7  1  0  0  0  0
 36 31  1  0  0  0  0
 90 84  1  0  0  0  0
 97 91  1  0  0  0  0
122106  1  0  0  0  0
  1123  1  0  0  0  0
  6124  1  0  0  0  0
  9125  1  0  0  0  0
 17126  1  0  0  0  0
 18127  1  0  0  0  0
 19128  1  0  0  0  0
 20129  1  0  0  0  0
 21130  1  0  0  0  0
 22131  1  0  0  0  0
 22132  1  0  0  0  0
 23133  1  0  0  0  0
 25134  1  0  0  0  0
 26135  1  0  0  0  0
 32136  1  0  0  0  0
 33137  1  0  0  0  0
 34138  1  0  0  0  0
 35139  1  0  0  0  0
 36140  1  0  0  0  0
 41141  1  0  0  0  0
 42142  1  0  0  0  0
 43143  1  0  0  0  0
 44144  1  0  0  0  0
 45145  1  0  0  0  0
 55146  1  0  0  0  0
 55147  1  0  0  0  0
 56148  1  0  0  0  0
 56149  1  0  0  0  0
 56150  1  0  0  0  0
 60151  1  0  0  0  0
 60152  1  0  0  0  0
 61153  1  0  0  0  0
 61154  1  0  0  0  0
 61155  1  0  0  0  0
 66156  1  0  0  0  0
 67157  1  0  0  0  0
 69158  1  0  0  0  0
 69159  1  0  0  0  0
 69160  1  0  0  0  0
 70161  1  0  0  0  0
 71162  1  0  0  0  0
 73163  1  0  0  0  0
 74164  1  0  0  0  0
 76165  1  0  0  0  0
 76166  1  0  0  0  0
 76167  1  0  0  0  0
 77168  1  0  0  0  0
 78169  1  0  0  0  0
 85170  1  0  0  0  0
 86171  1  0  0  0  0
 88172  1  0  0  0  0
 88173  1  0  0  0  0
 88174  1  0  0  0  0
 89175  1  0  0  0  0
 90176  1  0  0  0  0
 92177  1  0  0  0  0
 93178  1  0  0  0  0
 95179  1  0  0  0  0
 95180  1  0  0  0  0
 95181  1  0  0  0  0
 96182  1  0  0  0  0
 97183  1  0  0  0  0
100184  1  0  0  0  0
105185  1  0  0  0  0
108186  1  0  0  0  0
116187  1  0  0  0  0
117188  1  0  0  0  0
118189  1  0  0  0  0
119190  1  0  0  0  0
120191  1  0  0  0  0
121192  1  0  0  0  0
121193  1  0  0  0  0
122194  1  0  0  0  0
M  END
