
  xtb     02052223213D
 energy: -439.378929757274 gnorm: 0.000587451605 xtb: 6.4.1 (unknown)
265289  0     0  0            999 V2000
   -6.1935    6.5221   -1.5610 C   0  0  0  0  0  0  0  0  0  0  0  0
   -6.5944    6.6392   -2.8645 C   0  0  0  0  0  0  0  0  0  0  0  0
   -7.9599    7.0942   -3.2183 C   0  0  0  0  0  0  0  0  0  0  0  0
   -8.7590    7.6423   -2.4902 O   0  0  0  0  0  0  0  0  0  0  0  0
   -8.1488    6.6816   -4.6269 C   0  0  0  0  0  0  0  0  0  0  0  0
   -9.3259    6.7156   -5.3710 C   0  0  0  0  0  0  0  0  0  0  0  0
   -9.1980    6.2127   -6.6449 C   0  0  0  0  0  0  0  0  0  0  0  0
   -7.9879    5.7213   -7.1514 C   0  0  0  0  0  0  0  0  0  0  0  0
   -6.8159    5.6883   -6.4342 C   0  0  0  0  0  0  0  0  0  0  0  0
   -6.9297    6.1852   -5.1347 C   0  0  0  0  0  0  0  0  0  0  0  0
   -5.9176    6.2919   -4.0900 C   0  0  0  0  0  0  0  0  0  0  0  0
   -4.5580    6.3188   -4.2940 C   0  0  0  0  0  0  0  0  0  0  0  0
   -3.9288    6.1172   -5.5360 C   0  0  0  0  0  0  0  0  0  0  0  0
   -3.3551    5.9541   -6.5178 N   0  0  0  0  0  0  0  0  0  0  0  0
   -3.6450    6.6462   -3.2788 C   0  0  0  0  0  0  0  0  0  0  0  0
   -2.8820    6.9489   -2.4736 N   0  0  0  0  0  0  0  0  0  0  0  0
   -8.5970    5.3607   -8.4827 C   0  0  0  0  0  0  0  0  0  0  0  0
   -8.8915    3.8648   -8.7173 C   0  0  0  0  0  0  0  0  0  0  0  0
   -9.8973    3.8643   -9.8450 C   0  0  0  0  0  0  0  0  0  0  0  0
  -11.0458    4.3201   -9.3611 C   0  0  0  0  0  0  0  0  0  0  0  0
  -10.8353    4.6363   -7.8977 C   0  0  0  0  0  0  0  0  0  0  0  0
   -9.8182    3.5457   -7.5370 C   0  0  0  0  0  0  0  0  0  0  0  0
   -9.9492    5.9005   -7.9166 C   0  0  0  0  0  0  0  0  0  0  0  0
   -5.1798    5.6459   -1.1231 C   0  0  0  0  0  0  0  0  0  0  0  0
   -4.2535    5.7592   -0.0784 C   0  0  0  0  0  0  0  0  0  0  0  0
   -4.2159    6.7583    0.8546 N   0  0  0  0  0  0  0  0  0  0  0  0
   -5.3857    7.3708    1.3276 C   0  0  0  0  0  0  0  0  0  0  0  0
   -5.3917    8.7361    1.5967 C   0  0  0  0  0  0  0  0  0  0  0  0
   -6.5292    9.3545    2.0770 C   0  0  0  0  0  0  0  0  0  0  0  0
   -7.6848    8.6144    2.2959 C   0  0  0  0  0  0  0  0  0  0  0  0
   -9.1906    9.2889    2.9128 S   0  0  0  0  0  0  0  0  0  0  0  0
   -8.9221   11.0833    2.8493 C   0  0  0  0  0  0  0  0  0  0  0  0
   -7.6782    7.2438    2.0385 C   0  0  0  0  0  0  0  0  0  0  0  0
   -6.5435    6.6271    1.5621 C   0  0  0  0  0  0  0  0  0  0  0  0
   -2.9894    7.0956    1.4609 C   0  0  0  0  0  0  0  0  0  0  0  0
   -1.8502    7.2990    0.6830 C   0  0  0  0  0  0  0  0  0  0  0  0
   -0.6481    7.5863    1.2910 C   0  0  0  0  0  0  0  0  0  0  0  0
   -0.5607    7.6744    2.6793 C   0  0  0  0  0  0  0  0  0  0  0  0
    1.0354    7.9996    3.3569 S   0  0  0  0  0  0  0  0  0  0  0  0
    0.7002    8.3572    5.1053 C   0  0  0  0  0  0  0  0  0  0  0  0
   -1.6997    7.4941    3.4524 C   0  0  0  0  0  0  0  0  0  0  0  0
   -2.9066    7.2114    2.8440 C   0  0  0  0  0  0  0  0  0  0  0  0
   -3.2947    4.7182   -0.1500 C   0  0  0  0  0  0  0  0  0  0  0  0
   -1.8838    4.3183    0.7633 S   0  0  0  0  0  0  0  0  0  0  0  0
   -1.6340    2.8764   -0.2073 C   0  0  0  0  0  0  0  0  0  0  0  0
   -2.6421    2.6769   -1.1376 C   0  0  0  0  0  0  0  0  0  0  0  0
   -2.8246    1.5295   -1.8942 N   0  0  0  0  0  0  0  0  0  0  0  0
   -3.5996    1.6079   -3.0656 C   0  0  0  0  0  0  0  0  0  0  0  0
   -4.6175    0.6885   -3.3042 C   0  0  0  0  0  0  0  0  0  0  0  0
   -5.4175    0.7933   -4.4249 C   0  0  0  0  0  0  0  0  0  0  0  0
   -5.2067    1.8194   -5.3363 C   0  0  0  0  0  0  0  0  0  0  0  0
   -6.1904    2.0873   -6.7769 S   0  0  0  0  0  0  0  0  0  0  0  0
   -7.3779    0.7134   -6.7598 C   0  0  0  0  0  0  0  0  0  0  0  0
   -4.1689    2.7217   -5.1194 C   0  0  0  0  0  0  0  0  0  0  0  0
   -3.3817    2.6271   -3.9927 C   0  0  0  0  0  0  0  0  0  0  0  0
   -2.5118    0.2700   -1.3633 C   0  0  0  0  0  0  0  0  0  0  0  0
   -2.5899    0.0142    0.0053 C   0  0  0  0  0  0  0  0  0  0  0  0
   -2.2032   -1.2066    0.5197 C   0  0  0  0  0  0  0  0  0  0  0  0
   -1.7715   -2.2159   -0.3301 C   0  0  0  0  0  0  0  0  0  0  0  0
   -1.2097   -3.7867    0.2622 S   0  0  0  0  0  0  0  0  0  0  0  0
   -2.2397   -4.0301    1.7455 C   0  0  0  0  0  0  0  0  0  0  0  0
   -1.7528   -1.9925   -1.7031 C   0  0  0  0  0  0  0  0  0  0  0  0
   -2.1121   -0.7609   -2.2134 C   0  0  0  0  0  0  0  0  0  0  0  0
   -3.5421    3.7691   -1.1289 C   0  0  0  0  0  0  0  0  0  0  0  0
   -4.9321    4.1676   -2.0614 S   0  0  0  0  0  0  0  0  0  0  0  0
   -0.5306    2.0223    0.1090 C   0  0  0  0  0  0  0  0  0  0  0  0
    0.3905    1.4193   -0.7331 C   0  0  0  0  0  0  0  0  0  0  0  0
    0.5828    1.7495   -2.0589 N   0  0  0  0  0  0  0  0  0  0  0  0
    1.3679    0.9121   -2.8749 C   0  0  0  0  0  0  0  0  0  0  0  0
    1.1148   -0.4558   -2.9375 C   0  0  0  0  0  0  0  0  0  0  0  0
    1.9130   -1.2785   -3.7008 C   0  0  0  0  0  0  0  0  0  0  0  0
    2.9764   -0.7549   -4.4275 C   0  0  0  0  0  0  0  0  0  0  0  0
    3.9546   -1.9107   -5.3422 S   0  0  0  0  0  0  0  0  0  0  0  0
    5.2166   -0.8939   -6.1512 C   0  0  0  0  0  0  0  0  0  0  0  0
    3.2175    0.6120   -4.3933 C   0  0  0  0  0  0  0  0  0  0  0  0
    2.4219    1.4348   -3.6204 C   0  0  0  0  0  0  0  0  0  0  0  0
    0.3030    3.0394   -2.5541 C   0  0  0  0  0  0  0  0  0  0  0  0
   -0.0926    3.1686   -3.8861 C   0  0  0  0  0  0  0  0  0  0  0  0
   -0.2882    4.4137   -4.4414 C   0  0  0  0  0  0  0  0  0  0  0  0
   -0.1050    5.5662   -3.6775 C   0  0  0  0  0  0  0  0  0  0  0  0
   -0.2955    7.0978   -4.5255 S   0  0  0  0  0  0  0  0  0  0  0  0
   -0.0832    8.3485   -3.2275 C   0  0  0  0  0  0  0  0  0  0  0  0
    0.2554    5.4409   -2.3423 C   0  0  0  0  0  0  0  0  0  0  0  0
    0.4675    4.1909   -1.7909 C   0  0  0  0  0  0  0  0  0  0  0  0
    1.1764    0.4826   -0.0056 C   0  0  0  0  0  0  0  0  0  0  0  0
    2.3065   -0.7562   -0.4173 S   0  0  0  0  0  0  0  0  0  0  0  0
    2.4135   -1.2912    1.2640 C   0  0  0  0  0  0  0  0  0  0  0  0
    1.6456   -0.5036    2.0995 C   0  0  0  0  0  0  0  0  0  0  0  0
    1.5234   -0.5797    3.4813 N   0  0  0  0  0  0  0  0  0  0  0  0
    1.4409    0.6493    4.1585 C   0  0  0  0  0  0  0  0  0  0  0  0
    2.1801    1.7330    3.6878 C   0  0  0  0  0  0  0  0  0  0  0  0
    2.1158    2.9644    4.3024 C   0  0  0  0  0  0  0  0  0  0  0  0
    1.3182    3.1342    5.4242 C   0  0  0  0  0  0  0  0  0  0  0  0
    1.2133    4.6701    6.2883 S   0  0  0  0  0  0  0  0  0  0  0  0
    2.7460    5.5153    5.7910 C   0  0  0  0  0  0  0  0  0  0  0  0
    0.5554    2.0663    5.8884 C   0  0  0  0  0  0  0  0  0  0  0  0
    0.6071    0.8400    5.2594 C   0  0  0  0  0  0  0  0  0  0  0  0
    1.3997   -1.7999    4.1417 C   0  0  0  0  0  0  0  0  0  0  0  0
    1.7854   -1.9317    5.4744 C   0  0  0  0  0  0  0  0  0  0  0  0
    1.6357   -3.1297    6.1430 C   0  0  0  0  0  0  0  0  0  0  0  0
    1.1172   -4.2359    5.4828 C   0  0  0  0  0  0  0  0  0  0  0  0
    0.9416   -5.8350    6.2157 S   0  0  0  0  0  0  0  0  0  0  0  0
    1.4418   -5.5817    7.9414 C   0  0  0  0  0  0  0  0  0  0  0  0
    0.7415   -4.1161    4.1465 C   0  0  0  0  0  0  0  0  0  0  0  0
    0.8709   -2.9142    3.4863 C   0  0  0  0  0  0  0  0  0  0  0  0
    0.9340    0.4736    1.3557 C   0  0  0  0  0  0  0  0  0  0  0  0
   -0.2955    1.5954    1.8013 S   0  0  0  0  0  0  0  0  0  0  0  0
    3.0375   -2.5752    1.4266 C   0  0  0  0  0  0  0  0  0  0  0  0
    3.9842   -3.0904    2.2997 C   0  0  0  0  0  0  0  0  0  0  0  0
    4.5974   -2.4076    3.3340 N   0  0  0  0  0  0  0  0  0  0  0  0
    5.1245   -3.1500    4.4092 C   0  0  0  0  0  0  0  0  0  0  0  0
    4.4046   -4.2137    4.9442 C   0  0  0  0  0  0  0  0  0  0  0  0
    4.9369   -4.9898    5.9536 C   0  0  0  0  0  0  0  0  0  0  0  0
    6.2038   -4.7145    6.4441 C   0  0  0  0  0  0  0  0  0  0  0  0
    6.9624   -5.6999    7.6989 S   0  0  0  0  0  0  0  0  0  0  0  0
    6.2952   -7.3477    7.3121 C   0  0  0  0  0  0  0  0  0  0  0  0
    6.9128   -3.6273    5.9424 C   0  0  0  0  0  0  0  0  0  0  0  0
    6.3832   -2.8555    4.9317 C   0  0  0  0  0  0  0  0  0  0  0  0
    4.8270   -1.0281    3.2936 C   0  0  0  0  0  0  0  0  0  0  0  0
    5.0924   -0.3599    2.1019 C   0  0  0  0  0  0  0  0  0  0  0  0
    5.3490    0.9995    2.0951 C   0  0  0  0  0  0  0  0  0  0  0  0
    5.3525    1.7150    3.2837 C   0  0  0  0  0  0  0  0  0  0  0  0
    5.6386    3.4554    3.4005 S   0  0  0  0  0  0  0  0  0  0  0  0
    5.6374    4.0141    1.6733 C   0  0  0  0  0  0  0  0  0  0  0  0
    5.0997    1.0489    4.4817 C   0  0  0  0  0  0  0  0  0  0  0  0
    4.8357   -0.3003    4.4861 C   0  0  0  0  0  0  0  0  0  0  0  0
    4.2710   -4.4472    1.9829 C   0  0  0  0  0  0  0  0  0  0  0  0
    5.3082   -5.6489    2.6738 S   0  0  0  0  0  0  0  0  0  0  0  0
    4.7505   -6.8408    1.4946 C   0  0  0  0  0  0  0  0  0  0  0  0
    3.7169   -6.3176    0.6701 C   0  0  0  0  0  0  0  0  0  0  0  0
    2.9580   -7.0389   -0.2004 N   0  0  0  0  0  0  0  0  0  0  0  0
    2.6069   -8.3853    0.0156 C   0  0  0  0  0  0  0  0  0  0  0  0
    2.3592   -8.8713    1.2965 C   0  0  0  0  0  0  0  0  0  0  0  0
    2.0087  -10.1923    1.4889 C   0  0  0  0  0  0  0  0  0  0  0  0
    1.8843  -11.0461    0.3988 C   0  0  0  0  0  0  0  0  0  0  0  0
    1.4508  -12.7499    0.5188 S   0  0  0  0  0  0  0  0  0  0  0  0
    1.2686  -13.0370    2.3027 C   0  0  0  0  0  0  0  0  0  0  0  0
    2.1014  -10.5520   -0.8861 C   0  0  0  0  0  0  0  0  0  0  0  0
    2.4603   -9.2370   -1.0787 C   0  0  0  0  0  0  0  0  0  0  0  0
    2.2803   -6.3686   -1.2461 C   0  0  0  0  0  0  0  0  0  0  0  0
    0.8931   -6.4526   -1.3358 C   0  0  0  0  0  0  0  0  0  0  0  0
    0.2315   -5.8200   -2.3633 C   0  0  0  0  0  0  0  0  0  0  0  0
    0.9457   -5.1127   -3.3272 C   0  0  0  0  0  0  0  0  0  0  0  0
    0.0076   -4.3412   -4.6123 S   0  0  0  0  0  0  0  0  0  0  0  0
    1.1637   -4.3441   -6.0140 C   0  0  0  0  0  0  0  0  0  0  0  0
    2.3296   -5.0240   -3.2387 C   0  0  0  0  0  0  0  0  0  0  0  0
    2.9916   -5.6455   -2.1972 C   0  0  0  0  0  0  0  0  0  0  0  0
    3.5282   -4.9493    0.9204 C   0  0  0  0  0  0  0  0  0  0  0  0
    2.5114   -3.7460    0.2196 S   0  0  0  0  0  0  0  0  0  0  0  0
    5.3162   -8.0909    1.2960 C   0  0  0  0  0  0  0  0  0  0  0  0
    6.2864   -8.7635    2.0166 C   0  0  0  0  0  0  0  0  0  0  0  0
    6.8324   -8.3612    3.3061 C   0  0  0  0  0  0  0  0  0  0  0  0
    6.5824   -7.3599    3.9592 O   0  0  0  0  0  0  0  0  0  0  0  0
    7.7359   -9.4564    3.7240 C   0  0  0  0  0  0  0  0  0  0  0  0
    8.5000   -9.5505    4.8671 C   0  0  0  0  0  0  0  0  0  0  0  0
    9.2622  -10.7002    5.0278 C   0  0  0  0  0  0  0  0  0  0  0  0
   10.3265  -10.8931    6.5926 Br  0  0  0  0  0  0  0  0  0  0  0  0
    9.2640  -11.7115    4.0791 C   0  0  0  0  0  0  0  0  0  0  0  0
    8.4955  -11.6016    2.9279 C   0  0  0  0  0  0  0  0  0  0  0  0
    7.7214  -10.4664    2.7467 C   0  0  0  0  0  0  0  0  0  0  0  0
    6.8291  -10.0506    1.6622 C   0  0  0  0  0  0  0  0  0  0  0  0
    6.5879  -10.7768    0.5189 C   0  0  0  0  0  0  0  0  0  0  0  0
    5.8072  -10.3551   -0.5741 C   0  0  0  0  0  0  0  0  0  0  0  0
    5.2099  -10.0800   -1.5178 N   0  0  0  0  0  0  0  0  0  0  0  0
    7.1185  -12.0588    0.2750 C   0  0  0  0  0  0  0  0  0  0  0  0
    7.5102  -13.1089    0.0231 N   0  0  0  0  0  0  0  0  0  0  0  0
   -6.7598    7.0843   -0.8273 H   0  0  0  0  0  0  0  0  0  0  0  0
  -10.2391    7.1059   -4.9495 H   0  0  0  0  0  0  0  0  0  0  0  0
   -5.8940    5.2919   -6.8260 H   0  0  0  0  0  0  0  0  0  0  0  0
   -8.1630    5.8511   -9.3517 H   0  0  0  0  0  0  0  0  0  0  0  0
   -8.0054    3.2486   -8.8421 H   0  0  0  0  0  0  0  0  0  0  0  0
   -9.6633    3.5965  -10.8588 H   0  0  0  0  0  0  0  0  0  0  0  0
  -11.9620    4.5086   -9.8897 H   0  0  0  0  0  0  0  0  0  0  0  0
  -11.7271    4.7134   -7.2812 H   0  0  0  0  0  0  0  0  0  0  0  0
  -10.2485    2.5474   -7.6066 H   0  0  0  0  0  0  0  0  0  0  0  0
   -9.3513    3.6759   -6.5629 H   0  0  0  0  0  0  0  0  0  0  0  0
  -10.4237    6.7449   -8.4132 H   0  0  0  0  0  0  0  0  0  0  0  0
   -4.4968    9.3148    1.4222 H   0  0  0  0  0  0  0  0  0  0  0  0
   -6.5018   10.4141    2.2723 H   0  0  0  0  0  0  0  0  0  0  0  0
   -9.8751   11.5300    3.1150 H   0  0  0  0  0  0  0  0  0  0  0  0
   -8.1654   11.3779    3.5708 H   0  0  0  0  0  0  0  0  0  0  0  0
   -8.6453   11.3757    1.8408 H   0  0  0  0  0  0  0  0  0  0  0  0
   -8.5753    6.6722    2.2187 H   0  0  0  0  0  0  0  0  0  0  0  0
   -6.5437    5.5643    1.3710 H   0  0  0  0  0  0  0  0  0  0  0  0
   -1.9268    7.2275   -0.3908 H   0  0  0  0  0  0  0  0  0  0  0  0
    0.2413    7.7468    0.7007 H   0  0  0  0  0  0  0  0  0  0  0  0
    1.6432    8.7005    5.5196 H   0  0  0  0  0  0  0  0  0  0  0  0
    0.3773    7.4557    5.6188 H   0  0  0  0  0  0  0  0  0  0  0  0
   -0.0425    9.1458    5.1790 H   0  0  0  0  0  0  0  0  0  0  0  0
   -1.6595    7.5501    4.5278 H   0  0  0  0  0  0  0  0  0  0  0  0
   -3.7897    7.0602    3.4472 H   0  0  0  0  0  0  0  0  0  0  0  0
   -4.7955   -0.1075   -2.5959 H   0  0  0  0  0  0  0  0  0  0  0  0
   -6.2078    0.0738   -4.5657 H   0  0  0  0  0  0  0  0  0  0  0  0
   -6.8489   -0.2344   -6.7941 H   0  0  0  0  0  0  0  0  0  0  0  0
   -8.0127    0.7819   -5.8812 H   0  0  0  0  0  0  0  0  0  0  0  0
   -7.9786    0.8327   -7.6559 H   0  0  0  0  0  0  0  0  0  0  0  0
   -3.9846    3.4992   -5.8436 H   0  0  0  0  0  0  0  0  0  0  0  0
   -2.5886    3.3399   -3.8274 H   0  0  0  0  0  0  0  0  0  0  0  0
   -2.9561    0.7766    0.6760 H   0  0  0  0  0  0  0  0  0  0  0  0
   -2.2435   -1.3616    1.5867 H   0  0  0  0  0  0  0  0  0  0  0  0
   -1.8653   -3.4418    2.5784 H   0  0  0  0  0  0  0  0  0  0  0  0
   -3.2670   -3.7691    1.5122 H   0  0  0  0  0  0  0  0  0  0  0  0
   -2.1693   -5.0863    1.9857 H   0  0  0  0  0  0  0  0  0  0  0  0
   -1.4351   -2.7836   -2.3661 H   0  0  0  0  0  0  0  0  0  0  0  0
   -2.0785   -0.5889   -3.2790 H   0  0  0  0  0  0  0  0  0  0  0  0
    0.2889   -0.8735   -2.3876 H   0  0  0  0  0  0  0  0  0  0  0  0
    1.7159   -2.3365   -3.7190 H   0  0  0  0  0  0  0  0  0  0  0  0
    5.8286   -1.5860   -6.7217 H   0  0  0  0  0  0  0  0  0  0  0  0
    5.8247   -0.3943   -5.4026 H   0  0  0  0  0  0  0  0  0  0  0  0
    4.7443   -0.1806   -6.8203 H   0  0  0  0  0  0  0  0  0  0  0  0
    4.0291    1.0518   -4.9506 H   0  0  0  0  0  0  0  0  0  0  0  0
    2.6266    2.4949   -3.5891 H   0  0  0  0  0  0  0  0  0  0  0  0
   -0.2319    2.2809   -4.4856 H   0  0  0  0  0  0  0  0  0  0  0  0
   -0.5881    4.5119   -5.4737 H   0  0  0  0  0  0  0  0  0  0  0  0
    0.9138    8.2824   -2.8020 H   0  0  0  0  0  0  0  0  0  0  0  0
   -0.2090    9.3056   -3.7242 H   0  0  0  0  0  0  0  0  0  0  0  0
   -0.8554    8.2172   -2.4760 H   0  0  0  0  0  0  0  0  0  0  0  0
    0.3946    6.3094   -1.7202 H   0  0  0  0  0  0  0  0  0  0  0  0
    0.7913    4.1195   -0.7632 H   0  0  0  0  0  0  0  0  0  0  0  0
    2.8073    1.6072    2.8197 H   0  0  0  0  0  0  0  0  0  0  0  0
    2.6945    3.7799    3.9015 H   0  0  0  0  0  0  0  0  0  0  0  0
    3.5754    4.8166    5.8367 H   0  0  0  0  0  0  0  0  0  0  0  0
    2.8933    6.3130    6.5124 H   0  0  0  0  0  0  0  0  0  0  0  0
    2.6414    5.9341    4.7938 H   0  0  0  0  0  0  0  0  0  0  0  0
   -0.0859    2.2094    6.7447 H   0  0  0  0  0  0  0  0  0  0  0  0
   -0.0046    0.0264    5.6194 H   0  0  0  0  0  0  0  0  0  0  0  0
    2.2091   -1.0857    5.9932 H   0  0  0  0  0  0  0  0  0  0  0  0
    1.9477   -3.1891    7.1727 H   0  0  0  0  0  0  0  0  0  0  0  0
    1.3257   -6.5475    8.4240 H   0  0  0  0  0  0  0  0  0  0  0  0
    2.4803   -5.2661    7.9886 H   0  0  0  0  0  0  0  0  0  0  0  0
    0.7877   -4.8538    8.4126 H   0  0  0  0  0  0  0  0  0  0  0  0
    0.3431   -4.9772    3.6311 H   0  0  0  0  0  0  0  0  0  0  0  0
    0.5542   -2.8343    2.4580 H   0  0  0  0  0  0  0  0  0  0  0  0
    3.4255   -4.4402    4.5547 H   0  0  0  0  0  0  0  0  0  0  0  0
    4.3627   -5.8189    6.3351 H   0  0  0  0  0  0  0  0  0  0  0  0
    5.3018   -7.4677    7.7356 H   0  0  0  0  0  0  0  0  0  0  0  0
    6.9717   -8.0634    7.7693 H   0  0  0  0  0  0  0  0  0  0  0  0
    6.2796   -7.4636    6.2319 H   0  0  0  0  0  0  0  0  0  0  0  0
    7.8951   -3.4127    6.3340 H   0  0  0  0  0  0  0  0  0  0  0  0
    6.9540   -2.0340    4.5249 H   0  0  0  0  0  0  0  0  0  0  0  0
    5.1255   -0.9058    1.1714 H   0  0  0  0  0  0  0  0  0  0  0  0
    5.5547    1.4810    1.1522 H   0  0  0  0  0  0  0  0  0  0  0  0
    5.6997    5.0971    1.7154 H   0  0  0  0  0  0  0  0  0  0  0  0
    4.7116    3.7149    1.1901 H   0  0  0  0  0  0  0  0  0  0  0  0
    6.5023    3.6169    1.1499 H   0  0  0  0  0  0  0  0  0  0  0  0
    5.1040    1.6070    5.4053 H   0  0  0  0  0  0  0  0  0  0  0  0
    4.6395   -0.8082    5.4177 H   0  0  0  0  0  0  0  0  0  0  0  0
    2.4427   -8.2125    2.1484 H   0  0  0  0  0  0  0  0  0  0  0  0
    1.8246  -10.5380    2.4931 H   0  0  0  0  0  0  0  0  0  0  0  0
    0.4645  -12.4242    2.6997 H   0  0  0  0  0  0  0  0  0  0  0  0
    2.2078  -12.8368    2.8101 H   0  0  0  0  0  0  0  0  0  0  0  0
    1.0138  -14.0875    2.4025 H   0  0  0  0  0  0  0  0  0  0  0  0
    2.0010  -11.2171   -1.7290 H   0  0  0  0  0  0  0  0  0  0  0  0
    2.6428   -8.8648   -2.0740 H   0  0  0  0  0  0  0  0  0  0  0  0
    0.3427   -7.0115   -0.5946 H   0  0  0  0  0  0  0  0  0  0  0  0
   -0.8435   -5.8696   -2.4329 H   0  0  0  0  0  0  0  0  0  0  0  0
    1.6206   -5.3254   -6.0930 H   0  0  0  0  0  0  0  0  0  0  0  0
    1.9162   -3.5698   -5.8976 H   0  0  0  0  0  0  0  0  0  0  0  0
    0.5604   -4.1407   -6.8930 H   0  0  0  0  0  0  0  0  0  0  0  0
    2.9006   -4.4754   -3.9718 H   0  0  0  0  0  0  0  0  0  0  0  0
    4.0670   -5.5804   -2.1248 H   0  0  0  0  0  0  0  0  0  0  0  0
    4.9348   -8.6136    0.4286 H   0  0  0  0  0  0  0  0  0  0  0  0
    8.5064   -8.7575    5.5986 H   0  0  0  0  0  0  0  0  0  0  0  0
    9.8695  -12.5909    4.2363 H   0  0  0  0  0  0  0  0  0  0  0  0
    8.5149  -12.3980    2.2025 H   0  0  0  0  0  0  0  0  0  0  0  0
  1  2  2  0  0  0  0
  2  3  1  0  0  0  0
  3  4  2  0  0  0  0
  3  5  1  0  0  0  0
  5  6  2  0  0  0  0
  6  7  1  0  0  0  0
  7  8  2  0  0  0  0
  8  9  1  0  0  0  0
  9 10  2  0  0  0  0
 10 11  1  0  0  0  0
 11 12  2  0  0  0  0
 12 13  1  0  0  0  0
 13 14  3  0  0  0  0
 12 15  1  0  0  0  0
 15 16  3  0  0  0  0
  8 17  1  0  0  0  0
 17 18  1  0  0  0  0
 18 19  1  0  0  0  0
 19 20  2  0  0  0  0
 20 21  1  0  0  0  0
 21 22  1  0  0  0  0
 21 23  1  0  0  0  0
  1 24  1  0  0  0  0
 24 25  2  0  0  0  0
 25 26  1  0  0  0  0
 26 27  1  0  0  0  0
 27 28  2  0  0  0  0
 28 29  1  0  0  0  0
 29 30  2  0  0  0  0
 30 31  1  0  0  0  0
 31 32  1  0  0  0  0
 30 33  1  0  0  0  0
 33 34  2  0  0  0  0
 26 35  1  0  0  0  0
 35 36  2  0  0  0  0
 36 37  1  0  0  0  0
 37 38  2  0  0  0  0
 38 39  1  0  0  0  0
 39 40  1  0  0  0  0
 38 41  1  0  0  0  0
 41 42  2  0  0  0  0
 25 43  1  0  0  0  0
 43 44  1  0  0  0  0
 44 45  1  0  0  0  0
 45 46  2  0  0  0  0
 46 47  1  0  0  0  0
 47 48  1  0  0  0  0
 48 49  2  0  0  0  0
 49 50  1  0  0  0  0
 50 51  2  0  0  0  0
 51 52  1  0  0  0  0
 52 53  1  0  0  0  0
 51 54  1  0  0  0  0
 54 55  2  0  0  0  0
 47 56  1  0  0  0  0
 56 57  2  0  0  0  0
 57 58  1  0  0  0  0
 58 59  2  0  0  0  0
 59 60  1  0  0  0  0
 60 61  1  0  0  0  0
 59 62  1  0  0  0  0
 62 63  2  0  0  0  0
 46 64  1  0  0  0  0
 64 65  1  0  0  0  0
 45 66  1  0  0  0  0
 66 67  2  0  0  0  0
 67 68  1  0  0  0  0
 68 69  1  0  0  0  0
 69 70  2  0  0  0  0
 70 71  1  0  0  0  0
 71 72  2  0  0  0  0
 72 73  1  0  0  0  0
 73 74  1  0  0  0  0
 72 75  1  0  0  0  0
 75 76  2  0  0  0  0
 68 77  1  0  0  0  0
 77 78  2  0  0  0  0
 78 79  1  0  0  0  0
 79 80  2  0  0  0  0
 80 81  1  0  0  0  0
 81 82  1  0  0  0  0
 80 83  1  0  0  0  0
 83 84  2  0  0  0  0
 67 85  1  0  0  0  0
 85 86  1  0  0  0  0
 86 87  1  0  0  0  0
 87 88  2  0  0  0  0
 88 89  1  0  0  0  0
 89 90  1  0  0  0  0
 90 91  2  0  0  0  0
 91 92  1  0  0  0  0
 92 93  2  0  0  0  0
 93 94  1  0  0  0  0
 94 95  1  0  0  0  0
 93 96  1  0  0  0  0
 96 97  2  0  0  0  0
 89 98  1  0  0  0  0
 98 99  2  0  0  0  0
 99100  1  0  0  0  0
100101  2  0  0  0  0
101102  1  0  0  0  0
102103  1  0  0  0  0
101104  1  0  0  0  0
104105  2  0  0  0  0
 88106  1  0  0  0  0
106107  1  0  0  0  0
 87108  1  0  0  0  0
108109  2  0  0  0  0
109110  1  0  0  0  0
110111  1  0  0  0  0
111112  2  0  0  0  0
112113  1  0  0  0  0
113114  2  0  0  0  0
114115  1  0  0  0  0
115116  1  0  0  0  0
114117  1  0  0  0  0
117118  2  0  0  0  0
110119  1  0  0  0  0
119120  2  0  0  0  0
120121  1  0  0  0  0
121122  2  0  0  0  0
122123  1  0  0  0  0
123124  1  0  0  0  0
122125  1  0  0  0  0
125126  2  0  0  0  0
109127  1  0  0  0  0
127128  1  0  0  0  0
128129  1  0  0  0  0
129130  2  0  0  0  0
130131  1  0  0  0  0
131132  1  0  0  0  0
132133  2  0  0  0  0
133134  1  0  0  0  0
134135  2  0  0  0  0
135136  1  0  0  0  0
136137  1  0  0  0  0
135138  1  0  0  0  0
138139  2  0  0  0  0
131140  1  0  0  0  0
140141  2  0  0  0  0
141142  1  0  0  0  0
142143  2  0  0  0  0
143144  1  0  0  0  0
144145  1  0  0  0  0
143146  1  0  0  0  0
146147  2  0  0  0  0
130148  1  0  0  0  0
148149  1  0  0  0  0
129150  1  0  0  0  0
150151  2  0  0  0  0
151152  1  0  0  0  0
152153  2  0  0  0  0
152154  1  0  0  0  0
154155  2  0  0  0  0
155156  1  0  0  0  0
156157  1  0  0  0  0
156158  2  0  0  0  0
158159  1  0  0  0  0
159160  2  0  0  0  0
160161  1  0  0  0  0
161162  2  0  0  0  0
162163  1  0  0  0  0
163164  3  0  0  0  0
162165  1  0  0  0  0
165166  3  0  0  0  0
 11  2  1  0  0  0  0
 23 17  1  0  0  0  0
 65 24  1  0  0  0  0
107 66  1  0  0  0  0
149108  1  0  0  0  0
161151  1  0  0  0  0
 10  5  1  0  0  0  0
 22 18  1  0  0  0  0
 34 27  1  0  0  0  0
 42 35  1  0  0  0  0
 64 43  2  0  0  0  0
 76 69  1  0  0  0  0
 84 77  1  0  0  0  0
106 85  2  0  0  0  0
118111  1  0  0  0  0
126119  1  0  0  0  0
148127  2  0  0  0  0
160154  1  0  0  0  0
 23  7  1  0  0  0  0
 55 48  1  0  0  0  0
 63 56  1  0  0  0  0
 97 90  1  0  0  0  0
105 98  1  0  0  0  0
139132  1  0  0  0  0
147140  1  0  0  0  0
  1167  1  0  0  0  0
  6168  1  0  0  0  0
  9169  1  0  0  0  0
 17170  1  0  0  0  0
 18171  1  0  0  0  0
 19172  1  0  0  0  0
 20173  1  0  0  0  0
 21174  1  0  0  0  0
 22175  1  0  0  0  0
 22176  1  0  0  0  0
 23177  1  0  0  0  0
 28178  1  0  0  0  0
 29179  1  0  0  0  0
 32180  1  0  0  0  0
 32181  1  0  0  0  0
 32182  1  0  0  0  0
 33183  1  0  0  0  0
 34184  1  0  0  0  0
 36185  1  0  0  0  0
 37186  1  0  0  0  0
 40187  1  0  0  0  0
 40188  1  0  0  0  0
 40189  1  0  0  0  0
 41190  1  0  0  0  0
 42191  1  0  0  0  0
 49192  1  0  0  0  0
 50193  1  0  0  0  0
 53194  1  0  0  0  0
 53195  1  0  0  0  0
 53196  1  0  0  0  0
 54197  1  0  0  0  0
 55198  1  0  0  0  0
 57199  1  0  0  0  0
 58200  1  0  0  0  0
 61201  1  0  0  0  0
 61202  1  0  0  0  0
 61203  1  0  0  0  0
 62204  1  0  0  0  0
 63205  1  0  0  0  0
 70206  1  0  0  0  0
 71207  1  0  0  0  0
 74208  1  0  0  0  0
 74209  1  0  0  0  0
 74210  1  0  0  0  0
 75211  1  0  0  0  0
 76212  1  0  0  0  0
 78213  1  0  0  0  0
 79214  1  0  0  0  0
 82215  1  0  0  0  0
 82216  1  0  0  0  0
 82217  1  0  0  0  0
 83218  1  0  0  0  0
 84219  1  0  0  0  0
 91220  1  0  0  0  0
 92221  1  0  0  0  0
 95222  1  0  0  0  0
 95223  1  0  0  0  0
 95224  1  0  0  0  0
 96225  1  0  0  0  0
 97226  1  0  0  0  0
 99227  1  0  0  0  0
100228  1  0  0  0  0
103229  1  0  0  0  0
103230  1  0  0  0  0
103231  1  0  0  0  0
104232  1  0  0  0  0
105233  1  0  0  0  0
112234  1  0  0  0  0
113235  1  0  0  0  0
116236  1  0  0  0  0
116237  1  0  0  0  0
116238  1  0  0  0  0
117239  1  0  0  0  0
118240  1  0  0  0  0
120241  1  0  0  0  0
121242  1  0  0  0  0
124243  1  0  0  0  0
124244  1  0  0  0  0
124245  1  0  0  0  0
125246  1  0  0  0  0
126247  1  0  0  0  0
133248  1  0  0  0  0
134249  1  0  0  0  0
137250  1  0  0  0  0
137251  1  0  0  0  0
137252  1  0  0  0  0
138253  1  0  0  0  0
139254  1  0  0  0  0
141255  1  0  0  0  0
142256  1  0  0  0  0
145257  1  0  0  0  0
145258  1  0  0  0  0
145259  1  0  0  0  0
146260  1  0  0  0  0
147261  1  0  0  0  0
150262  1  0  0  0  0
155263  1  0  0  0  0
158264  1  0  0  0  0
159265  1  0  0  0  0
M  END
