
  xtb     02052210493D
 energy: -271.132912194504 gnorm: 0.000833302666 xtb: 6.4.1 (unknown)
148165  0     0  0            999 V2000
    6.7947   -0.2354    1.9803 C   0  0  0  0  0  0  0  0  0  0  0  0
    7.7400    0.6018    1.4691 C   0  0  0  0  0  0  0  0  0  0  0  0
    7.6979    1.2435    0.1312 C   0  0  0  0  0  0  0  0  0  0  0  0
    6.9050    1.0423   -0.7636 O   0  0  0  0  0  0  0  0  0  0  0  0
    8.9202    2.0675    0.0472 C   0  0  0  0  0  0  0  0  0  0  0  0
    9.2990    2.8955   -1.0062 C   0  0  0  0  0  0  0  0  0  0  0  0
   10.5006    3.5341   -0.8141 C   0  0  0  0  0  0  0  0  0  0  0  0
   11.2716    3.3623    0.3435 C   0  0  0  0  0  0  0  0  0  0  0  0
   10.9154    2.5409    1.3856 C   0  0  0  0  0  0  0  0  0  0  0  0
    9.6982    1.8761    1.2068 C   0  0  0  0  0  0  0  0  0  0  0  0
    9.0149    0.9241    2.0781 C   0  0  0  0  0  0  0  0  0  0  0  0
    9.4984    0.4469    3.2700 C   0  0  0  0  0  0  0  0  0  0  0  0
   10.7410    0.8056    3.8332 C   0  0  0  0  0  0  0  0  0  0  0  0
   11.7354    1.0411    4.3576 N   0  0  0  0  0  0  0  0  0  0  0  0
    8.8548   -0.4814    4.1110 C   0  0  0  0  0  0  0  0  0  0  0  0
    8.4266   -1.2366    4.8651 N   0  0  0  0  0  0  0  0  0  0  0  0
   12.3528    4.2956   -0.1410 C   0  0  0  0  0  0  0  0  0  0  0  0
   13.6596    3.6635   -0.6802 C   0  0  0  0  0  0  0  0  0  0  0  0
   13.2928    2.2903   -1.1858 C   0  0  0  0  0  0  0  0  0  0  0  0
   12.5645    2.4447   -2.2835 C   0  0  0  0  0  0  0  0  0  0  0  0
   12.4269    3.9250   -2.5407 C   0  0  0  0  0  0  0  0  0  0  0  0
   13.7835    4.4186   -2.0131 C   0  0  0  0  0  0  0  0  0  0  0  0
   11.4971    4.4818   -1.4336 C   0  0  0  0  0  0  0  0  0  0  0  0
    5.4530   -0.3847    1.5404 C   0  0  0  0  0  0  0  0  0  0  0  0
    4.6577    0.6324    0.9738 C   0  0  0  0  0  0  0  0  0  0  0  0
    3.2571    0.4324    0.6508 C   0  0  0  0  0  0  0  0  0  0  0  0
    2.6861    1.5519    0.1959 N   0  0  0  0  0  0  0  0  0  0  0  0
    3.7802    2.7227    0.1906 S   0  0  0  0  0  4  0  0  0  0  0  0
    5.0212    1.8995    0.7743 N   0  0  0  0  0  0  0  0  0  0  0  0
    2.5719   -0.7549    0.9606 C   0  0  0  0  0  0  0  0  0  0  0  0
    3.3743   -1.7890    1.4796 C   0  0  0  0  0  0  0  0  0  0  0  0
    2.9722   -3.0347    1.7489 N   0  0  0  0  0  0  0  0  0  0  0  0
    4.2159   -3.8674    2.3249 S   0  0  0  0  0  0  0  0  0  0  0  0
    5.3272   -2.7131    2.2637 N   0  0  0  0  0  0  0  0  0  0  0  0
    4.7755   -1.6001    1.7750 C   0  0  0  0  0  0  0  0  0  0  0  0
    1.1494   -0.8704    0.9041 C   0  0  0  0  0  0  0  0  0  0  0  0
    0.3433   -1.4172    1.9018 C   0  0  0  0  0  0  0  0  0  0  0  0
    0.7760   -1.7714    3.1643 N   0  0  0  0  0  0  0  0  0  0  0  0
    0.1709   -2.8568    3.8051 C   0  0  0  0  0  0  0  0  0  0  0  0
   -0.2395   -3.9677    3.0654 C   0  0  0  0  0  0  0  0  0  0  0  0
   -0.8575   -5.0253    3.6909 C   0  0  0  0  0  0  0  0  0  0  0  0
   -1.0724   -5.0063    5.0685 C   0  0  0  0  0  0  0  0  0  0  0  0
   -1.8748   -6.4195    5.7528 S   0  0  0  0  0  0  0  0  0  0  0  0
   -1.9434   -6.0712    7.5330 C   0  0  0  0  0  0  0  0  0  0  0  0
   -0.6520   -3.9092    5.8097 C   0  0  0  0  0  0  0  0  0  0  0  0
   -0.0395   -2.8432    5.1812 C   0  0  0  0  0  0  0  0  0  0  0  0
    1.8366   -1.0775    3.7643 C   0  0  0  0  0  0  0  0  0  0  0  0
    1.9755    0.2992    3.5689 C   0  0  0  0  0  0  0  0  0  0  0  0
    3.0776    0.9635    4.0537 C   0  0  0  0  0  0  0  0  0  0  0  0
    4.0662    0.2782    4.7601 C   0  0  0  0  0  0  0  0  0  0  0  0
    5.4698    1.2130    5.2700 S   0  0  0  0  0  0  0  0  0  0  0  0
    6.1880    0.2024    6.5972 C   0  0  0  0  0  0  0  0  0  0  0  0
    3.9036   -1.0782    5.0098 C   0  0  0  0  0  0  0  0  0  0  0  0
    2.7953   -1.7450    4.5222 C   0  0  0  0  0  0  0  0  0  0  0  0
   -1.0144   -1.4081    1.5064 C   0  0  0  0  0  0  0  0  0  0  0  0
   -2.4935   -1.9293    2.2408 S   0  0  0  0  0  0  0  0  0  0  0  0
   -3.3915   -1.3256    0.8788 C   0  0  0  0  0  0  0  0  0  0  0  0
   -2.5926   -0.7704   -0.0941 C   0  0  0  0  0  0  0  0  0  0  0  0
   -3.0986   -0.3541   -1.3461 N   0  0  0  0  0  0  0  0  0  0  0  0
   -3.6299    0.9249   -1.4686 C   0  0  0  0  0  0  0  0  0  0  0  0
   -3.0609    1.9890   -0.7590 C   0  0  0  0  0  0  0  0  0  0  0  0
   -3.6101    3.2462   -0.8305 C   0  0  0  0  0  0  0  0  0  0  0  0
   -4.7532    3.4823   -1.5975 C   0  0  0  0  0  0  0  0  0  0  0  0
   -5.3764    5.1264   -1.5984 S   0  0  0  0  0  0  0  0  0  0  0  0
   -6.6645    5.1206   -2.8741 C   0  0  0  0  0  0  0  0  0  0  0  0
   -5.3320    2.4245   -2.2970 C   0  0  0  0  0  0  0  0  0  0  0  0
   -4.7665    1.1666   -2.2433 C   0  0  0  0  0  0  0  0  0  0  0  0
   -3.1566   -1.2997   -2.3710 C   0  0  0  0  0  0  0  0  0  0  0  0
   -3.2022   -2.6659   -2.0967 C   0  0  0  0  0  0  0  0  0  0  0  0
   -3.2454   -3.5950   -3.1190 C   0  0  0  0  0  0  0  0  0  0  0  0
   -3.2353   -3.1799   -4.4425 C   0  0  0  0  0  0  0  0  0  0  0  0
   -3.3047   -4.2675   -5.8314 S   0  0  0  0  0  0  0  0  0  0  0  0
   -3.3095   -5.9252   -5.0921 C   0  0  0  0  0  0  0  0  0  0  0  0
   -3.1596   -1.8162   -4.7243 C   0  0  0  0  0  0  0  0  0  0  0  0
   -3.1140   -0.8910   -3.7081 C   0  0  0  0  0  0  0  0  0  0  0  0
   -1.2301   -0.8188    0.2660 C   0  0  0  0  0  0  0  0  0  0  0  0
    0.2356   -0.2437   -0.4489 S   0  0  0  0  0  0  0  0  0  0  0  0
   -4.8344   -1.4196    0.7718 C   0  0  0  0  0  0  0  0  0  0  0  0
   -5.6167   -0.2714    0.6309 C   0  0  0  0  0  0  0  0  0  0  0  0
   -7.0227   -0.3196    0.2943 C   0  0  0  0  0  0  0  0  0  0  0  0
   -7.5383    0.9089    0.2105 N   0  0  0  0  0  0  0  0  0  0  0  0
   -6.3974    1.9966    0.5362 S   0  0  0  0  0  4  0  0  0  0  0  0
   -5.1874    0.9895    0.7981 N   0  0  0  0  0  0  0  0  0  0  0  0
   -7.7161   -1.5348    0.1307 C   0  0  0  0  0  0  0  0  0  0  0  0
   -6.9436   -2.6908    0.3977 C   0  0  0  0  0  0  0  0  0  0  0  0
   -7.3783   -3.9495    0.3390 N   0  0  0  0  0  0  0  0  0  0  0  0
   -6.1550   -4.9463    0.6341 S   0  0  0  0  0  0  0  0  0  0  0  0
   -4.9977   -3.8549    0.8397 N   0  0  0  0  0  0  0  0  0  0  0  0
   -5.5274   -2.6341    0.7035 C   0  0  0  0  0  0  0  0  0  0  0  0
   -9.0686   -1.6693   -0.2724 C   0  0  0  0  0  0  0  0  0  0  0  0
   -9.9053   -0.7485   -0.8165 C   0  0  0  0  0  0  0  0  0  0  0  0
   -9.5779    0.9055   -1.2590 S   0  0  0  0  0  0  0  0  0  0  0  0
  -11.1493    1.0383   -2.0355 C   0  0  0  0  0  0  0  0  0  0  0  0
  -11.4780    2.2080   -2.6787 C   0  0  0  0  0  0  0  0  0  0  0  0
  -12.6876    2.5085   -3.3255 C   0  0  0  0  0  0  0  0  0  0  0  0
  -13.6503    2.8125   -3.8738 N   0  0  0  0  0  0  0  0  0  0  0  0
  -10.5118    3.2301   -2.7281 C   0  0  0  0  0  0  0  0  0  0  0  0
   -9.7140    4.0546   -2.7781 N   0  0  0  0  0  0  0  0  0  0  0  0
  -11.8953   -0.0796   -1.8737 N   0  0  0  0  0  0  0  0  0  0  0  0
  -13.2391   -0.2770   -2.3855 C   0  0  0  0  0  0  0  0  0  0  0  0
  -13.2240   -0.7063   -3.8478 C   0  0  0  0  0  0  0  0  0  0  0  0
  -11.2648   -1.1264   -1.2103 C   0  0  0  0  0  0  0  0  0  0  0  0
  -11.7978   -2.1927   -1.0050 O   0  0  0  0  0  0  0  0  0  0  0  0
    7.0588   -0.8869    2.8035 H   0  0  0  0  0  0  0  0  0  0  0  0
    8.6736    3.0015   -1.8788 H   0  0  0  0  0  0  0  0  0  0  0  0
   11.5233    2.4158    2.2660 H   0  0  0  0  0  0  0  0  0  0  0  0
   12.5389    5.1716    0.4771 H   0  0  0  0  0  0  0  0  0  0  0  0
   14.5016    3.7138    0.0049 H   0  0  0  0  0  0  0  0  0  0  0  0
   13.5429    1.3783   -0.6762 H   0  0  0  0  0  0  0  0  0  0  0  0
   12.0841    1.6869   -2.8743 H   0  0  0  0  0  0  0  0  0  0  0  0
   12.1481    4.2125   -3.5512 H   0  0  0  0  0  0  0  0  0  0  0  0
   14.6213    4.0727   -2.6167 H   0  0  0  0  0  0  0  0  0  0  0  0
   13.8362    5.5002   -1.8959 H   0  0  0  0  0  0  0  0  0  0  0  0
   11.1307    5.4804   -1.6641 H   0  0  0  0  0  0  0  0  0  0  0  0
   -0.0486   -3.9980    2.0040 H   0  0  0  0  0  0  0  0  0  0  0  0
   -1.1760   -5.8857    3.1231 H   0  0  0  0  0  0  0  0  0  0  0  0
   -2.5484   -5.1882    7.7168 H   0  0  0  0  0  0  0  0  0  0  0  0
   -0.9385   -5.9530    7.9276 H   0  0  0  0  0  0  0  0  0  0  0  0
   -2.4147   -6.9400    7.9820 H   0  0  0  0  0  0  0  0  0  0  0  0
   -0.8036   -3.8650    6.8760 H   0  0  0  0  0  0  0  0  0  0  0  0
    0.2729   -1.9866    5.7599 H   0  0  0  0  0  0  0  0  0  0  0  0
    1.2171    0.8412    3.0239 H   0  0  0  0  0  0  0  0  0  0  0  0
    3.1897    2.0249    3.8929 H   0  0  0  0  0  0  0  0  0  0  0  0
    6.8885    0.8527    7.1120 H   0  0  0  0  0  0  0  0  0  0  0  0
    5.4012   -0.1091    7.2771 H   0  0  0  0  0  0  0  0  0  0  0  0
    6.7238   -0.6452    6.1779 H   0  0  0  0  0  0  0  0  0  0  0  0
    4.6495   -1.6323    5.5565 H   0  0  0  0  0  0  0  0  0  0  0  0
    2.6874   -2.8050    4.7023 H   0  0  0  0  0  0  0  0  0  0  0  0
   -2.1843    1.8161   -0.1554 H   0  0  0  0  0  0  0  0  0  0  0  0
   -3.1646    4.0678   -0.2916 H   0  0  0  0  0  0  0  0  0  0  0  0
   -6.2481    4.7576   -3.8089 H   0  0  0  0  0  0  0  0  0  0  0  0
   -6.9653    6.1578   -2.9848 H   0  0  0  0  0  0  0  0  0  0  0  0
   -7.5210    4.5304   -2.5611 H   0  0  0  0  0  0  0  0  0  0  0  0
   -6.2309    2.5698   -2.8748 H   0  0  0  0  0  0  0  0  0  0  0  0
   -5.2361    0.3504   -2.7729 H   0  0  0  0  0  0  0  0  0  0  0  0
   -3.2131   -3.0185   -1.0768 H   0  0  0  0  0  0  0  0  0  0  0  0
   -3.2899   -4.6409   -2.8611 H   0  0  0  0  0  0  0  0  0  0  0  0
   -3.3198   -6.6172   -5.9284 H   0  0  0  0  0  0  0  0  0  0  0  0
   -4.2029   -6.0631   -4.4898 H   0  0  0  0  0  0  0  0  0  0  0  0
   -2.4085   -6.0710   -4.5037 H   0  0  0  0  0  0  0  0  0  0  0  0
   -3.1264   -1.4947   -5.7540 H   0  0  0  0  0  0  0  0  0  0  0  0
   -3.0293    0.1591   -3.9423 H   0  0  0  0  0  0  0  0  0  0  0  0
   -9.4839   -2.6661   -0.1708 H   0  0  0  0  0  0  0  0  0  0  0  0
  -13.8114    0.6429   -2.2551 H   0  0  0  0  0  0  0  0  0  0  0  0
  -13.6781   -1.0696   -1.7733 H   0  0  0  0  0  0  0  0  0  0  0  0
  -12.6602   -1.6294   -3.9608 H   0  0  0  0  0  0  0  0  0  0  0  0
  -14.2428   -0.8752   -4.1828 H   0  0  0  0  0  0  0  0  0  0  0  0
  -12.7807    0.0622   -4.4767 H   0  0  0  0  0  0  0  0  0  0  0  0
  1  2  2  0  0  0  0
  2  3  1  0  0  0  0
  3  4  2  0  0  0  0
  3  5  1  0  0  0  0
  5  6  2  0  0  0  0
  6  7  1  0  0  0  0
  7  8  2  0  0  0  0
  8  9  1  0  0  0  0
  9 10  2  0  0  0  0
 10 11  1  0  0  0  0
 11 12  2  0  0  0  0
 12 13  1  0  0  0  0
 13 14  3  0  0  0  0
 12 15  1  0  0  0  0
 15 16  3  0  0  0  0
  8 17  1  0  0  0  0
 17 18  1  0  0  0  0
 18 19  1  0  0  0  0
 19 20  2  0  0  0  0
 20 21  1  0  0  0  0
 21 22  1  0  0  0  0
 21 23  1  0  0  0  0
  1 24  1  0  0  0  0
 24 25  2  0  0  0  0
 25 26  1  0  0  0  0
 26 27  1  0  0  0  0
 27 28  2  0  0  0  0
 28 29  2  0  0  0  0
 26 30  2  0  0  0  0
 30 31  1  0  0  0  0
 31 32  2  0  0  0  0
 32 33  1  0  0  0  0
 33 34  1  0  0  0  0
 34 35  2  0  0  0  0
 30 36  1  0  0  0  0
 36 37  2  0  0  0  0
 37 38  1  0  0  0  0
 38 39  1  0  0  0  0
 39 40  2  0  0  0  0
 40 41  1  0  0  0  0
 41 42  2  0  0  0  0
 42 43  1  0  0  0  0
 43 44  1  0  0  0  0
 42 45  1  0  0  0  0
 45 46  2  0  0  0  0
 38 47  1  0  0  0  0
 47 48  2  0  0  0  0
 48 49  1  0  0  0  0
 49 50  2  0  0  0  0
 50 51  1  0  0  0  0
 51 52  1  0  0  0  0
 50 53  1  0  0  0  0
 53 54  2  0  0  0  0
 37 55  1  0  0  0  0
 55 56  1  0  0  0  0
 56 57  1  0  0  0  0
 57 58  2  0  0  0  0
 58 59  1  0  0  0  0
 59 60  1  0  0  0  0
 60 61  2  0  0  0  0
 61 62  1  0  0  0  0
 62 63  2  0  0  0  0
 63 64  1  0  0  0  0
 64 65  1  0  0  0  0
 63 66  1  0  0  0  0
 66 67  2  0  0  0  0
 59 68  1  0  0  0  0
 68 69  2  0  0  0  0
 69 70  1  0  0  0  0
 70 71  2  0  0  0  0
 71 72  1  0  0  0  0
 72 73  1  0  0  0  0
 71 74  1  0  0  0  0
 74 75  2  0  0  0  0
 58 76  1  0  0  0  0
 76 77  1  0  0  0  0
 57 78  1  0  0  0  0
 78 79  2  0  0  0  0
 79 80  1  0  0  0  0
 80 81  1  0  0  0  0
 81 82  2  0  0  0  0
 82 83  2  0  0  0  0
 80 84  2  0  0  0  0
 84 85  1  0  0  0  0
 85 86  2  0  0  0  0
 86 87  1  0  0  0  0
 87 88  1  0  0  0  0
 88 89  2  0  0  0  0
 84 90  1  0  0  0  0
 90 91  2  0  0  0  0
 91 92  1  0  0  0  0
 92 93  1  0  0  0  0
 93 94  2  0  0  0  0
 94 95  1  0  0  0  0
 95 96  3  0  0  0  0
 94 97  1  0  0  0  0
 97 98  3  0  0  0  0
 93 99  1  0  0  0  0
 99100  1  0  0  0  0
100101  1  0  0  0  0
 99102  1  0  0  0  0
102103  2  0  0  0  0
 11  2  1  0  0  0  0
 23 17  1  0  0  0  0
 35 24  1  0  0  0  0
 77 36  1  0  0  0  0
 89 78  1  0  0  0  0
102 91  1  0  0  0  0
 10  5  1  0  0  0  0
 22 18  1  0  0  0  0
 29 25  1  0  0  0  0
 35 31  1  0  0  0  0
 46 39  1  0  0  0  0
 54 47  1  0  0  0  0
 76 55  2  0  0  0  0
 83 79  1  0  0  0  0
 89 85  1  0  0  0  0
 23  7  1  0  0  0  0
 67 60  1  0  0  0  0
 75 68  1  0  0  0  0
  1104  1  0  0  0  0
  6105  1  0  0  0  0
  9106  1  0  0  0  0
 17107  1  0  0  0  0
 18108  1  0  0  0  0
 19109  1  0  0  0  0
 20110  1  0  0  0  0
 21111  1  0  0  0  0
 22112  1  0  0  0  0
 22113  1  0  0  0  0
 23114  1  0  0  0  0
 40115  1  0  0  0  0
 41116  1  0  0  0  0
 44117  1  0  0  0  0
 44118  1  0  0  0  0
 44119  1  0  0  0  0
 45120  1  0  0  0  0
 46121  1  0  0  0  0
 48122  1  0  0  0  0
 49123  1  0  0  0  0
 52124  1  0  0  0  0
 52125  1  0  0  0  0
 52126  1  0  0  0  0
 53127  1  0  0  0  0
 54128  1  0  0  0  0
 61129  1  0  0  0  0
 62130  1  0  0  0  0
 65131  1  0  0  0  0
 65132  1  0  0  0  0
 65133  1  0  0  0  0
 66134  1  0  0  0  0
 67135  1  0  0  0  0
 69136  1  0  0  0  0
 70137  1  0  0  0  0
 73138  1  0  0  0  0
 73139  1  0  0  0  0
 73140  1  0  0  0  0
 74141  1  0  0  0  0
 75142  1  0  0  0  0
 90143  1  0  0  0  0
100144  1  0  0  0  0
100145  1  0  0  0  0
101146  1  0  0  0  0
101147  1  0  0  0  0
101148  1  0  0  0  0
M  END
