229

C         -5.81330       -6.76050       -3.66870
C         -5.63130       -7.99840       -3.14070
C         -4.92540       -8.26420       -1.85590
O         -4.38440       -7.46750       -1.11900
C         -5.14920       -9.69330       -1.57020
C         -4.68780      -10.40140       -0.46180
C         -5.06880      -11.72100       -0.44090
C         -5.86650      -12.29460       -1.44090
C         -6.33760      -11.60670       -2.53300
C         -5.94890      -10.26330       -2.58110
C         -6.23270       -9.24180       -3.58260
C         -6.86090       -9.44680       -4.78340
C         -7.41350      -10.67560       -5.19970
N         -7.88960      -11.64210       -5.59680
C         -7.00000       -8.47210       -5.79190
N         -7.12520       -7.75250       -6.67850
C         -5.85910      -13.65080       -0.78020
C         -4.92490      -14.71220       -1.39910
C         -4.76100      -15.73560       -0.29860
C         -4.00430      -15.19360        0.64700
C         -3.64410      -13.79460        0.20160
C         -3.56160      -14.01360       -1.31460
C         -4.96820      -13.01200        0.33300
C         -5.01730       -5.62070       -3.30780
C         -3.61420       -5.76690       -3.12390
N         -3.01480       -6.94140       -3.41670
C         -1.75440       -7.07490       -3.15360
C         -1.00190       -6.02480       -2.54680
O          0.25020       -6.30020       -2.20010
C          0.98770       -5.31480       -1.48090
C          0.54960       -5.23620       -0.02600
N         -1.53190       -4.83490       -2.39740
C         -2.83180       -4.66560       -2.70860
C         -3.41210       -3.36830       -2.60620
C         -4.79320       -3.27060       -2.76690
C         -5.56810       -4.35950       -3.12750
C         -2.57920       -2.23760       -2.34180
C         -2.80790       -0.88750       -2.62400
N         -3.82220       -0.35900       -3.40140
C         -4.36050       -1.05840       -4.48920
C         -3.59350       -1.96220       -5.21970
C         -4.17450       -2.76200       -6.18210
C         -5.53650       -2.66700       -6.43810
S         -6.39000       -3.73490       -7.55050
C         -5.32920       -5.20720       -7.58260
C         -6.28640       -1.69350       -5.78120
C         -5.70890       -0.89960       -4.81740
C         -4.23820        0.96010       -3.14980
C         -4.50740        1.37680       -1.84570
C         -4.90620        2.67150       -1.60030
C         -5.05020        3.57730       -2.64910
S         -5.60750        5.19360       -2.22540
C         -5.39930        6.14790       -3.75240
C         -4.78610        3.16490       -3.94900
C         -4.38280        1.86760       -4.19470
C         -1.78230       -0.08100       -2.08150
S         -1.49180        1.62950       -2.04760
C          0.00670        1.36350       -1.17530
C          0.29350        0.01410       -1.01690
N          1.55440       -0.40350       -0.58140
C          2.61280       -0.02400       -1.42600
C          2.41040       -0.01790       -2.80520
C          3.40610        0.39300       -3.66510
C          4.63070        0.80090       -3.15540
S          5.94120        1.36800       -4.20310
C          5.66500        0.40940       -5.72550
C          4.83900        0.80370       -1.77970
C          3.84070        0.39540       -0.91950
C          1.69310       -1.26770        0.49260
C          0.69200       -1.32100        1.46310
C          0.80250       -2.16590        2.54640
C          1.91380       -2.98700        2.67400
S          2.13270       -4.08930        4.04870
C          0.42490       -4.57380        4.43270
C          2.91470       -2.94340        1.70900
C          2.80900       -2.09410        0.62930
C         -0.75370       -0.79890       -1.48570
S         -1.01860       -2.50530       -1.58340
C          0.64260        2.42360       -0.48900
C          0.40280        3.78120       -0.66400
N         -0.16050        4.27270       -1.83560
C          0.50300        3.93070       -3.02620
C         -0.20190        3.67740       -4.20130
C          0.47540        3.31700       -5.34860
C          1.86230        3.21230       -5.34360
S          2.68330        2.72840       -6.83810
C          4.20510        3.72580       -6.76680
C          2.56880        3.46000       -4.17520
C          1.89230        3.81500       -3.02880
C         -1.11840        5.28550       -1.76990
C         -1.19620        6.28190       -2.74230
C         -2.12820        7.28880       -2.62630
C         -2.99420        7.33470       -1.53570
S         -4.12740        8.68790       -1.48660
C         -5.15280        8.34380       -0.03070
C         -2.92600        6.34000       -0.57060
C         -2.00300        5.32190       -0.69480
C          0.87960        4.53000        0.43120
S          0.75640        6.18050        0.91070
C          1.62950        5.83880        2.41700
C          1.94020        4.46810        2.54180
N          2.43590        3.81600        3.63890
C          3.16440        2.62470        3.43220
C          4.19510        2.59100        2.49440
C          4.91860        1.43420        2.31170
C          4.61760        0.28770        3.04630
S          5.60510       -1.13820        2.73140
C          5.37690       -2.14890        4.22100
C          3.57970        0.31560        3.96890
C          2.86550        1.48170        4.16640
C          2.23940        4.25740        4.94960
C          1.04580        4.86090        5.34190
C          0.88430        5.34400        6.62460
C          1.92000        5.23550        7.54580
S          1.86670        5.88630        9.17950
C          0.21610        6.62300        9.32260
C          3.09550        4.58310        7.17490
C          3.25410        4.09740        5.89740
C          1.53130        3.76270        1.38980
S          1.58790        2.08630        0.95050
C          1.82410        6.91100        3.28980
C          2.76920        6.97190        4.29290
C          4.06250        6.27130        4.24960
O          4.47030        5.53090        3.37320
C          4.81560        6.74820        5.42870
C          6.09330        6.36400        5.82120
C          6.51170        6.93300        7.00160
C          5.71920        7.82480        7.73370
C          4.46440        8.23140        7.34450
C          4.02210        7.66180        6.14980
C          2.74510        7.80980        5.45650
C          1.64340        8.48590        5.92580
C          0.37200        8.42450        5.32370
N         -0.70630        8.37290        4.92820
C          1.60880        9.24200        7.11080
N          1.49230        9.86520        8.06970
C          6.75260        7.97720        8.82060
C          6.52600        7.20460       10.14350
C          5.69910        5.98920        9.80340
C          6.46910        5.15810        9.11330
C          7.82620        5.79980        8.96750
C          7.91070        6.55610       10.30270
C          7.64380        6.99380        7.99830
H         -6.59920       -6.59260       -4.39510
H         -4.08440       -9.91780        0.29050
H         -6.96170      -12.05720       -3.28670
H         -6.83300      -14.05000       -0.50360
H         -5.23900      -15.08350       -2.37070
H         -5.24200      -16.69600       -0.29590
H         -3.72720      -15.61070        1.59750
H         -2.79050      -13.33060        0.68850
H         -3.49730      -13.09400       -1.89320
H         -2.74250      -14.67570       -1.59060
H         -5.34740      -12.98560        1.35300
H         -1.27530       -8.00830       -3.41130
H          0.87140       -4.34150       -1.96550
H          2.02650       -5.64340       -1.55570
H         -0.48960       -4.92280        0.03350
H          0.65570       -6.20830        0.45010
H          1.16550       -4.51030        0.49590
H         -5.28180       -2.33000       -2.57340
H         -6.63570       -4.23320       -3.23170
H         -2.53580       -2.05180       -5.02210
H         -3.55850       -3.46170       -6.72440
H         -4.96880       -5.41050       -6.57830
H         -5.96330       -6.02360       -7.91400
H         -4.50460       -5.06660       -8.27600
H         -7.33540       -1.59500       -6.01340
H         -6.30670       -0.17680       -4.28190
H         -4.40380        0.67610       -1.03020
H         -5.11990        2.99640       -0.59380
H         -4.36890        6.07200       -4.08750
H         -6.09620        5.80150       -4.51000
H         -5.62120        7.17750       -3.48850
H         -4.88950        3.84420       -4.77970
H         -4.17600        1.54990       -5.20610
H          1.46300       -0.33900       -3.21170
H          3.21600        0.39350       -4.72630
H          4.81200        0.79270       -6.27820
H          6.56790        0.52580       -6.31650
H          5.52110       -0.63430       -5.46410
H          5.79000        1.13340       -1.39060
H          4.00280        0.40400        0.14700
H         -0.17090       -0.67880        1.37100
H          0.02250       -2.17410        3.29140
H         -0.07050       -3.79550        5.00620
H          0.49610       -5.47810        5.02900
H         -0.10350       -4.77450        3.50580
H          3.77380       -3.58900        1.80640
H          3.58640       -2.08170       -0.11800
H         -1.27840        3.76110       -4.20490
H         -0.06640        3.11240       -6.25930
H          4.64410        3.67030       -7.75800
H          3.94200        4.75210       -6.53090
H          4.89960        3.32670       -6.03340
H          3.64380        3.38480       -4.14930
H          2.45050        4.01120       -2.12560
H         -0.51390        6.27180       -3.57890
H         -2.18540        8.06550       -3.37410
H         -4.54390        8.37980        0.86790
H         -5.89620        9.13450       -0.00330
H         -5.63870        7.37940       -0.14810
H         -3.58960        6.33950        0.27770
H         -1.96630        4.54050        0.04970
H          4.44340        3.49060        1.95390
H          5.74140        1.40920        1.61360
H          4.39370       -2.61030        4.22610
H          5.52850       -1.53060        5.10030
H          6.14010       -2.91940        4.17320
H          3.31740       -0.56560        4.53180
H          2.06500        1.50740        4.89120
H          0.23550        4.96280        4.63570
H         -0.04960        5.81530        6.88580
H          0.10710        7.44090        8.61680
H         -0.54420        5.86190        9.17410
H          0.16000        7.00950       10.33550
H          3.89040        4.49020        7.89770
H          4.17470        3.61220        5.61130
H          1.17680        7.76620        3.13420
H          6.66970        5.66780        5.23180
H          3.87010        8.92930        7.91080
H          7.12620        8.98520        8.99030
H          6.16060        7.81510       10.96470
H          4.65630        5.89040       10.04370
H          6.20600        4.21700        8.66550
H          8.64840        5.13440        8.71620
H          7.96790        5.88890       11.16150
H          8.72580        7.27750       10.34220
H          8.59220        7.36760        7.61650
