234

C         -8.09140        1.46240        2.37930
C         -9.14480        1.46770        1.49020
C         -9.09880        1.02000        0.10080
O         -8.12770        0.62240       -0.52800
C        -10.48160        1.07550       -0.40220
C        -10.92250        0.75220       -1.68340
C        -12.27590        0.91110       -1.86330
C        -13.12650        1.35380       -0.84300
C        -12.70290        1.67490        0.42590
C        -11.32900        1.52420        0.63030
C        -10.51400        1.78200        1.81970
C        -10.99030        2.25310        3.02040
C        -10.20440        2.59280        4.13860
N         -9.63870        2.92150        5.08460
C        -12.35130        2.48610        3.30090
N        -13.44180        2.68310        3.60430
C        -14.34890        1.29320       -1.72530
C        -14.87090        2.63870       -2.27170
C        -15.73220        2.24190       -3.44890
C        -14.92570        1.82490       -4.41650
C        -13.50560        1.93220       -3.90940
C        -13.63850        3.17120       -3.01430
C        -13.39940        0.80130       -2.86450
C         -6.73830        1.21710        2.16460
C         -5.77960        1.15480        3.20870
N         -6.05650        1.10580        4.54640
C         -7.18300        0.44880        5.07130
C         -7.80360        0.94760        6.21630
C         -8.91010        0.31260        6.73380
C         -9.42550       -0.82650        6.11880
S        -10.86220       -1.53450        6.85580
C        -11.34130       -2.85640        5.70650
C         -8.79270       -1.34040        4.99300
C         -7.67610       -0.71180        4.48040
C         -5.08790        1.59100        5.44980
C         -4.67730        0.81320        6.53150
C         -3.70790        1.28220        7.38690
C         -3.13330        2.53970        7.19270
S         -1.87930        3.00740        8.33490
C         -1.42140        4.68950        7.84380
C         -3.56380        3.32670        6.13110
C         -4.52930        2.85170        5.26530
C         -4.47680        1.11110        2.68520
S         -2.90800        1.02980        3.40150
C         -2.15210        0.94210        1.81130
C         -3.09840        1.00420        0.78190
N         -2.84910        0.97030       -0.57940
C         -1.76760        1.60070       -1.18860
C         -1.32140        1.14410       -2.42970
C         -0.22570        1.70900       -3.04500
C          0.44820        2.75800       -2.43520
S          1.88400        3.50750       -3.14270
C          1.64090        3.23310       -4.92350
C         -0.00050        3.23470       -1.20650
C         -1.09700        2.67080       -0.59140
C         -3.83080        0.33120       -1.36450
C         -4.34090       -0.89550       -0.94800
C         -5.38460       -1.48590       -1.62850
C         -5.91420       -0.86880       -2.75330
S         -7.26880       -1.57250       -3.64710
C         -8.27980       -2.21730       -2.28030
C         -5.36900        0.32620       -3.20810
C         -4.34350        0.93020       -2.51270
C         -4.41300        1.09740        1.29830
S         -5.98430        1.09650        0.57320
C         -0.76930        0.65850        1.73020
S         -0.14020       -0.22930        0.35480
C          1.42680       -0.46430        1.08720
C          1.42610        0.12640        2.33870
S          2.65030        0.23360        3.55920
C          1.61630        1.27720        4.52860
C          2.11880        1.77420        5.76420
C          3.28750        1.36680        6.38030
C          3.52860        2.02340        7.58520
C          2.55230        2.94200        7.89440
C          2.45110        3.82980        9.04340
O          1.56740        4.64300        9.19890
O          3.45560        3.63640        9.91150
C          3.46190        4.46620       11.07290
C          4.07410        5.82940       10.78350
S          1.31170        2.99160        6.69510
C          0.40040        1.49600        3.92850
C          0.22970        0.79890        2.69950
Cl        -0.70550        2.62270        4.58270
C          2.53370       -1.05180        0.43680
C          2.69480       -1.51390       -0.86980
N          1.73180       -1.57530       -1.87230
C          0.50890       -2.21830       -1.71640
C         -0.50760       -2.01170       -2.65070
C         -1.72880       -2.63760       -2.52530
C         -1.96280       -3.49910       -1.46180
S         -3.49450       -4.35250       -1.23970
C         -4.14500       -4.46120       -2.93390
C         -0.96210       -3.70260       -0.51770
C          0.25830       -3.07320       -0.64010
C          2.20300       -1.21440       -3.15230
C          2.93700       -0.03800       -3.28660
C          3.53190        0.28330       -4.48930
C          3.38550       -0.56130       -5.58160
S          4.16020       -0.22270       -7.13510
C          5.77380        0.41050       -6.58450
C          2.60800       -1.70750       -5.46810
C          2.03110       -2.04010       -4.26150
C          4.04060       -1.87560       -1.11850
S          4.88600       -2.35380       -2.54590
C          6.39430       -2.46130       -1.63600
C          6.23480       -2.02220       -0.29600
N          7.25020       -1.82310        0.60000
C          8.56100       -1.49950        0.19390
C          8.78980       -0.62910       -0.87340
C         10.07190       -0.41740       -1.32460
C         11.15210       -1.04650       -0.70480
S         12.74350       -0.79540       -1.42200
C         13.70990       -2.18910       -0.77510
C         10.93360       -1.82760        0.42160
C          9.64460       -2.05880        0.86220
C          6.95490       -1.75690        1.97470
C          6.16280       -2.73140        2.58130
C          5.84610       -2.62950        3.91780
C          6.31550       -1.55840        4.67560
S          5.80080       -1.50240        6.36070
C          6.77900       -0.14770        7.07480
C          7.13230       -0.60500        4.08120
C          7.45050       -0.70780        2.74220
C          4.88870       -1.72380       -0.02870
S          4.03340       -1.13430        1.35910
C          7.58350       -2.97220       -2.15540
C          7.95650       -3.19810       -3.46200
C          7.18260       -2.84970       -4.65360
O          6.03410       -2.43660       -4.70830
C          8.07700       -3.05050       -5.80570
C          7.77460       -2.84190       -7.14840
C          8.81940       -3.10730       -8.00140
C         10.06870       -3.55300       -7.55160
C         10.37510       -3.77190       -6.22830
C          9.32960       -3.50070       -5.34330
C          9.26850       -3.62340       -3.88670
C         10.29720       -4.05950       -3.08660
C         10.21450       -4.31240       -1.70520
N         10.25080       -4.57410       -0.58540
C         11.60530       -4.33130       -3.53320
N         12.70330       -4.54570       -3.79510
C         10.64120       -3.60420       -8.94610
C         11.58930       -2.45790       -9.37740
C         11.20730       -1.25280       -8.55440
C         10.02430       -0.83080       -8.98040
C          9.58440       -1.74320      -10.09850
C         10.94750       -2.08210      -10.72260
C          9.24830       -3.10780       -9.44710
H         -8.34020        1.68490        3.40860
H        -10.23160        0.41880       -2.44210
H        -13.37260        2.01400        1.19820
H        -15.14580        0.63240       -1.38910
H        -15.32660        3.28600       -1.52730
H        -16.80630        2.25230       -3.43680
H        -15.19150        1.41730       -5.37430
H        -12.71760        1.93660       -4.65770
H        -12.77720        3.35020       -2.37350
H        -13.85970        4.07050       -3.58670
H        -13.56450       -0.18730       -3.28960
H         -7.42410        1.84200        6.68390
H         -9.40130        0.70530        7.60970
H        -11.50680       -2.44300        4.71600
H        -12.27060       -3.25820        6.09780
H        -10.58340       -3.63420        5.69000
H         -9.15110       -2.23560        4.51100
H         -7.18580       -1.12170        3.60950
H         -5.11500       -0.16190        6.68390
H         -3.37320        0.67890        8.21630
H         -2.25370        5.36480        8.01970
H         -1.11030        4.69980        6.80380
H         -0.57690        4.95210        8.47510
H         -3.15610        4.31100        5.96770
H         -4.85990        3.46440        4.43920
H         -1.83660        0.32440       -2.90270
H          0.10710        1.31550       -3.99270
H          1.85190        2.19960       -5.18390
H          0.62500        3.50660       -5.19100
H          2.34600        3.88970       -5.42380
H          0.51830        4.05830       -0.74030
H         -1.43950        3.06330        0.35390
H         -3.92340       -1.37970       -0.07750
H         -5.78030       -2.42340       -1.27190
H         -9.28050       -2.35590       -2.67770
H         -7.88980       -3.16890       -1.93070
H         -8.28240       -1.47470       -1.48780
H         -5.78090        0.79310       -4.08920
H         -3.95450        1.88350       -2.83830
H          3.91680        0.60060        5.96350
H          4.37660        1.84550        8.22060
H          4.05250        3.91590       11.80820
H          2.43350        4.58240       11.43080
H          5.07840        5.71430       10.38250
H          3.46320        6.36390       10.06020
H          4.12110        6.40890       11.70080
H         -0.33150       -1.35250       -3.48560
H         -2.49650       -2.44430       -3.25830
H         -4.94720       -5.19190       -2.89780
H         -4.53690       -3.50100       -3.25740
H         -3.35820       -4.80720       -3.59690
H         -1.14650       -4.37020        0.31000
H          1.03140       -3.26180        0.08920
H          3.05460        0.61670       -2.43520
H          4.11730        1.18670       -4.56370
H          6.12120       -0.21770       -5.77030
H          6.44110        0.33000       -7.43690
H          5.69560        1.44950       -6.27750
H          2.49540       -2.35510       -6.32340
H          1.47860       -2.96240       -4.16310
H          7.95560       -0.14960       -1.36340
H         10.25540        0.23030       -2.16810
H         13.98190       -2.01250        0.26160
H         13.13870       -3.10620       -0.88410
H         14.60420       -2.23670       -1.38830
H         11.75390       -2.28880        0.94570
H          9.47430       -2.70320        1.71050
H          5.80410       -3.56680        1.99940
H          5.22880       -3.37710        4.39090
H          6.54120       -0.14720        8.13400
H          7.83750       -0.34560        6.93530
H          6.49150        0.80150        6.63180
H          7.51590        0.23050        4.64360
H          8.07520        0.04170        2.27940
H          8.33600       -3.18930       -1.40880
H          6.79490       -2.50810       -7.45330
H         11.33990       -4.12100       -5.89950
H         10.98770       -4.57850       -9.28490
H         12.64350       -2.72140       -9.38100
H         11.79130       -0.87840       -7.73410
H          9.42370       -0.03140       -8.58680
H          8.81310       -1.35620      -10.75940
H         10.90690       -2.90920      -11.43010
H         11.42270       -1.22100      -11.19020
H          8.68470       -3.75800      -10.11340
