
  xtb     02052222403D
 energy: -384.022890270086 gnorm: 0.000206653182 xtb: 6.4.1 (unknown)
220240  0     0  0            999 V2000
   -6.4774    3.1682    1.0333 C   0  0  0  0  0  0  0  0  0  0  0  0
   -6.9644    3.9980    2.0118 C   0  0  0  0  0  0  0  0  0  0  0  0
   -6.2269    4.5110    3.1703 C   0  0  0  0  0  0  0  0  0  0  0  0
   -5.1637    4.1096    3.6147 O   0  0  0  0  0  0  0  0  0  0  0  0
   -7.0324    5.6266    3.7042 C   0  0  0  0  0  0  0  0  0  0  0  0
   -6.7141    6.4705    4.7661 C   0  0  0  0  0  0  0  0  0  0  0  0
   -7.6636    7.4298    5.0260 C   0  0  0  0  0  0  0  0  0  0  0  0
   -8.8490    7.5424    4.2890 C   0  0  0  0  0  0  0  0  0  0  0  0
   -9.1780    6.7161    3.2404 C   0  0  0  0  0  0  0  0  0  0  0  0
   -8.2215    5.7383    2.9548 C   0  0  0  0  0  0  0  0  0  0  0  0
   -8.2212    4.7042    1.9231 C   0  0  0  0  0  0  0  0  0  0  0  0
   -9.2344    4.4772    1.0241 C   0  0  0  0  0  0  0  0  0  0  0  0
  -10.3897    5.2722    0.8900 C   0  0  0  0  0  0  0  0  0  0  0  0
  -11.3473    5.8731    0.6846 N   0  0  0  0  0  0  0  0  0  0  0  0
   -9.2926    3.4141    0.1031 C   0  0  0  0  0  0  0  0  0  0  0  0
   -9.4507    2.5749   -0.6676 N   0  0  0  0  0  0  0  0  0  0  0  0
   -9.3291    8.7276    5.0890 C   0  0  0  0  0  0  0  0  0  0  0  0
   -9.1879   10.1118    4.4210 C   0  0  0  0  0  0  0  0  0  0  0  0
   -9.2729   11.0815    5.5774 C   0  0  0  0  0  0  0  0  0  0  0  0
   -8.1496   10.9761    6.2758 C   0  0  0  0  0  0  0  0  0  0  0  0
   -7.2865    9.9332    5.6030 C   0  0  0  0  0  0  0  0  0  0  0  0
   -7.6809   10.1690    4.1393 C   0  0  0  0  0  0  0  0  0  0  0  0
   -8.0061    8.6028    5.9110 C   0  0  0  0  0  0  0  0  0  0  0  0
   -5.2217    2.5738    0.8823 C   0  0  0  0  0  0  0  0  0  0  0  0
   -4.7545    2.0540   -0.3457 C   0  0  0  0  0  0  0  0  0  0  0  0
   -5.3523    2.2361   -1.5663 N   0  0  0  0  0  0  0  0  0  0  0  0
   -5.1188    1.2969   -2.5878 C   0  0  0  0  0  0  0  0  0  0  0  0
   -4.8115    1.7229   -3.8795 C   0  0  0  0  0  0  0  0  0  0  0  0
   -4.5709    0.8011   -4.8721 C   0  0  0  0  0  0  0  0  0  0  0  0
   -4.6333   -0.5657   -4.6000 C   0  0  0  0  0  0  0  0  0  0  0  0
   -4.2830   -1.6510   -5.9429 S   0  0  0  0  0  0  0  0  0  0  0  0
   -4.7440   -3.2865   -5.3099 C   0  0  0  0  0  0  0  0  0  0  0  0
   -4.9541   -0.9931   -3.3183 C   0  0  0  0  0  0  0  0  0  0  0  0
   -5.1983   -0.0671   -2.3232 C   0  0  0  0  0  0  0  0  0  0  0  0
   -6.1460    3.3609   -1.8640 C   0  0  0  0  0  0  0  0  0  0  0  0
   -5.8170    4.6236   -1.3659 C   0  0  0  0  0  0  0  0  0  0  0  0
   -6.6581    5.6898   -1.5809 C   0  0  0  0  0  0  0  0  0  0  0  0
   -7.8351    5.5276   -2.3126 C   0  0  0  0  0  0  0  0  0  0  0  0
   -8.8898    6.9347   -2.4506 S   0  0  0  0  0  0  0  0  0  0  0  0
  -10.4863    6.2134   -2.9226 C   0  0  0  0  0  0  0  0  0  0  0  0
   -8.1169    4.2945   -2.8836 C   0  0  0  0  0  0  0  0  0  0  0  0
   -7.2822    3.2175   -2.6537 C   0  0  0  0  0  0  0  0  0  0  0  0
   -3.5283    1.3874   -0.1679 C   0  0  0  0  0  0  0  0  0  0  0  0
   -2.4732    0.5347   -1.2399 S   0  0  0  0  0  0  0  0  0  0  0  0
   -1.3247    0.2897    0.0687 C   0  0  0  0  0  0  0  0  0  0  0  0
   -1.7891    0.7611    1.2854 C   0  0  0  0  0  0  0  0  0  0  0  0
   -1.1526    0.5206    2.4875 N   0  0  0  0  0  0  0  0  0  0  0  0
   -0.4277   -0.6740    2.6541 C   0  0  0  0  0  0  0  0  0  0  0  0
   -0.9025   -1.8791    2.1473 C   0  0  0  0  0  0  0  0  0  0  0  0
   -0.1627   -3.0392    2.2671 C   0  0  0  0  0  0  0  0  0  0  0  0
    1.0687   -3.0121    2.9054 C   0  0  0  0  0  0  0  0  0  0  0  0
    2.1304   -4.4154    3.0572 S   0  0  0  0  0  0  0  0  0  0  0  0
    1.2838   -5.7002    2.0947 C   0  0  0  0  0  0  0  0  0  0  0  0
    1.5200   -1.8204    3.4708 C   0  0  0  0  0  0  0  0  0  0  0  0
    0.7793   -0.6645    3.3517 C   0  0  0  0  0  0  0  0  0  0  0  0
   -1.4301    1.3031    3.6191 C   0  0  0  0  0  0  0  0  0  0  0  0
   -1.6025    0.6992    4.8648 C   0  0  0  0  0  0  0  0  0  0  0  0
   -1.9405    1.4593    5.9621 C   0  0  0  0  0  0  0  0  0  0  0  0
   -2.1201    2.8332    5.8366 C   0  0  0  0  0  0  0  0  0  0  0  0
   -2.6335    3.7360    7.2650 S   0  0  0  0  0  0  0  0  0  0  0  0
   -3.6293    5.0576    6.5098 C   0  0  0  0  0  0  0  0  0  0  0  0
   -1.8949    3.4459    4.6130 C   0  0  0  0  0  0  0  0  0  0  0  0
   -1.5517    2.6852    3.5131 C   0  0  0  0  0  0  0  0  0  0  0  0
   -3.0406    1.4199    1.1336 C   0  0  0  0  0  0  0  0  0  0  0  0
   -4.0677    2.3238    2.1899 S   0  0  0  0  0  0  0  0  0  0  0  0
   -0.0715   -0.3506   -0.2327 C   0  0  0  0  0  0  0  0  0  0  0  0
    1.2001    0.1886   -0.1582 C   0  0  0  0  0  0  0  0  0  0  0  0
    1.4857    1.4879    0.2206 N   0  0  0  0  0  0  0  0  0  0  0  0
    0.5998    2.5189   -0.1250 C   0  0  0  0  0  0  0  0  0  0  0  0
    0.3430    3.5593    0.7675 C   0  0  0  0  0  0  0  0  0  0  0  0
   -0.5653    4.5429    0.4424 C   0  0  0  0  0  0  0  0  0  0  0  0
   -1.2368    4.5121   -0.7786 C   0  0  0  0  0  0  0  0  0  0  0  0
   -2.4267    5.7869   -1.0617 S   0  0  0  0  0  0  0  0  0  0  0  0
   -2.8601    5.5939   -2.8134 C   0  0  0  0  0  0  0  0  0  0  0  0
   -0.9539    3.5027   -1.6866 C   0  0  0  0  0  0  0  0  0  0  0  0
   -0.0362    2.5228   -1.3629 C   0  0  0  0  0  0  0  0  0  0  0  0
    2.7144    1.7909    0.8263 C   0  0  0  0  0  0  0  0  0  0  0  0
    3.3680    2.9862    0.5401 C   0  0  0  0  0  0  0  0  0  0  0  0
    4.5792    3.2890    1.1311 C   0  0  0  0  0  0  0  0  0  0  0  0
    5.1694    2.3926    2.0122 C   0  0  0  0  0  0  0  0  0  0  0  0
    6.7097    2.6629    2.8268 S   0  0  0  0  0  0  0  0  0  0  0  0
    7.2764    4.2610    2.1772 C   0  0  0  0  0  0  0  0  0  0  0  0
    4.5215    1.1929    2.2973 C   0  0  0  0  0  0  0  0  0  0  0  0
    3.3087    0.8967    1.7174 C   0  0  0  0  0  0  0  0  0  0  0  0
    2.1760   -0.7472   -0.5895 C   0  0  0  0  0  0  0  0  0  0  0  0
    3.8979   -0.6920   -0.7361 S   0  0  0  0  0  0  0  0  0  0  0  0
    3.9024   -2.3174   -1.3885 C   0  0  0  0  0  0  0  0  0  0  0  0
    2.6355   -2.9008   -1.4066 C   0  0  0  0  0  0  0  0  0  0  0  0
    2.4053   -4.2442   -1.6444 N   0  0  0  0  0  0  0  0  0  0  0  0
    3.3330   -5.1906   -1.1635 C   0  0  0  0  0  0  0  0  0  0  0  0
    3.6690   -6.3088   -1.9253 C   0  0  0  0  0  0  0  0  0  0  0  0
    4.5931   -7.2181   -1.4558 C   0  0  0  0  0  0  0  0  0  0  0  0
    5.2000   -7.0318   -0.2163 C   0  0  0  0  0  0  0  0  0  0  0  0
    6.3821   -8.2383    0.2995 S   0  0  0  0  0  0  0  0  0  0  0  0
    6.3875   -8.0600    2.1073 C   0  0  0  0  0  0  0  0  0  0  0  0
    4.8657   -5.9208    0.5487 C   0  0  0  0  0  0  0  0  0  0  0  0
    3.9431   -5.0114    0.0759 C   0  0  0  0  0  0  0  0  0  0  0  0
    1.2067   -4.6700   -2.2193 C   0  0  0  0  0  0  0  0  0  0  0  0
    0.6440   -5.8936   -1.8584 C   0  0  0  0  0  0  0  0  0  0  0  0
   -0.5363   -6.3279   -2.4266 C   0  0  0  0  0  0  0  0  0  0  0  0
   -1.1857   -5.5436   -3.3701 C   0  0  0  0  0  0  0  0  0  0  0  0
   -2.7017   -6.0010   -4.1537 S   0  0  0  0  0  0  0  0  0  0  0  0
   -2.9359   -7.7371   -3.6830 C   0  0  0  0  0  0  0  0  0  0  0  0
   -0.6347   -4.3167   -3.7316 C   0  0  0  0  0  0  0  0  0  0  0  0
    0.5455   -3.8860   -3.1678 C   0  0  0  0  0  0  0  0  0  0  0  0
    1.6540   -1.9667   -0.9926 C   0  0  0  0  0  0  0  0  0  0  0  0
   -0.0710   -1.9826   -0.8926 S   0  0  0  0  0  0  0  0  0  0  0  0
    5.1435   -2.9516   -1.7194 C   0  0  0  0  0  0  0  0  0  0  0  0
    6.2733   -2.7422   -0.8877 C   0  0  0  0  0  0  0  0  0  0  0  0
    7.3835   -3.6537   -0.9048 C   0  0  0  0  0  0  0  0  0  0  0  0
    8.2687   -3.1993   -0.0425 N   0  0  0  0  0  0  0  0  0  0  0  0
    7.7413   -2.0981    0.4896 O   0  0  0  0  0  0  0  0  0  0  0  0
    6.5333   -1.8115    0.0031 N   0  0  0  0  0  0  0  0  0  0  0  0
    7.3927   -4.7631   -1.7823 C   0  0  0  0  0  0  0  0  0  0  0  0
    6.3926   -4.7952   -2.7758 C   0  0  0  0  0  0  0  0  0  0  0  0
    6.4998   -5.8519   -3.5990 O   0  0  0  0  0  0  0  0  0  0  0  0
    5.9655   -5.9135   -4.9141 C   0  0  0  0  0  0  0  0  0  0  0  0
    6.6620   -4.9327   -5.8490 C   0  0  0  0  0  0  0  0  0  0  0  0
    5.2922   -3.8825   -2.7489 C   0  0  0  0  0  0  0  0  0  0  0  0
    4.3464   -4.0018   -3.7338 O   0  0  0  0  0  0  0  0  0  0  0  0
    3.9091   -2.8110   -4.3809 C   0  0  0  0  0  0  0  0  0  0  0  0
    3.2157   -3.2158   -5.6718 C   0  0  0  0  0  0  0  0  0  0  0  0
    8.3664   -5.8001   -1.7683 C   0  0  0  0  0  0  0  0  0  0  0  0
    9.0330   -6.2974   -0.6919 C   0  0  0  0  0  0  0  0  0  0  0  0
    8.7517   -6.0035    0.7256 C   0  0  0  0  0  0  0  0  0  0  0  0
    7.8162   -5.3951    1.1953 O   0  0  0  0  0  0  0  0  0  0  0  0
    9.8213   -6.6926    1.4897 C   0  0  0  0  0  0  0  0  0  0  0  0
   10.0934   -6.6258    2.8441 C   0  0  0  0  0  0  0  0  0  0  0  0
    9.0662   -5.7857    3.9194 Cl  0  0  0  0  0  0  0  0  0  0  0  0
   11.2529   -7.2523    3.3206 C   0  0  0  0  0  0  0  0  0  0  0  0
   11.6177   -7.2177    4.9910 Cl  0  0  0  0  0  0  0  0  0  0  0  0
   12.1318   -7.8651    2.4288 C   0  0  0  0  0  0  0  0  0  0  0  0
   13.5916   -8.5337    3.0197 Cl  0  0  0  0  0  0  0  0  0  0  0  0
   11.8487   -7.9321    1.0555 C   0  0  0  0  0  0  0  0  0  0  0  0
   13.0564   -8.5461    0.0042 Cl  0  0  0  0  0  0  0  0  0  0  0  0
   10.6472   -7.4047    0.5980 C   0  0  0  0  0  0  0  0  0  0  0  0
   10.0425   -7.3457   -0.7302 C   0  0  0  0  0  0  0  0  0  0  0  0
   10.2334   -8.2436   -1.7451 C   0  0  0  0  0  0  0  0  0  0  0  0
   10.9147   -9.4757   -1.6250 C   0  0  0  0  0  0  0  0  0  0  0  0
   11.3517  -10.5364   -1.6006 N   0  0  0  0  0  0  0  0  0  0  0  0
    9.6484   -8.1665   -3.0292 C   0  0  0  0  0  0  0  0  0  0  0  0
    9.2554   -8.1856   -4.1083 N   0  0  0  0  0  0  0  0  0  0  0  0
   -7.1465    2.9874    0.2021 H   0  0  0  0  0  0  0  0  0  0  0  0
   -5.7927    6.3560    5.3147 H   0  0  0  0  0  0  0  0  0  0  0  0
  -10.0936    6.8128    2.6812 H   0  0  0  0  0  0  0  0  0  0  0  0
  -10.2779    8.5991    5.6063 H   0  0  0  0  0  0  0  0  0  0  0  0
   -9.8609   10.2846    3.5857 H   0  0  0  0  0  0  0  0  0  0  0  0
  -10.1356   11.6841    5.7931 H   0  0  0  0  0  0  0  0  0  0  0  0
   -7.8868   11.4727    7.1914 H   0  0  0  0  0  0  0  0  0  0  0  0
   -6.2270    9.9452    5.8450 H   0  0  0  0  0  0  0  0  0  0  0  0
   -7.3665   11.1478    3.7809 H   0  0  0  0  0  0  0  0  0  0  0  0
   -7.3280    9.4002    3.4544 H   0  0  0  0  0  0  0  0  0  0  0  0
   -8.0732    8.3917    6.9767 H   0  0  0  0  0  0  0  0  0  0  0  0
   -4.7667    2.7800   -4.0977 H   0  0  0  0  0  0  0  0  0  0  0  0
   -4.3269    1.1256   -5.8719 H   0  0  0  0  0  0  0  0  0  0  0  0
   -5.7817   -3.2754   -4.9905 H   0  0  0  0  0  0  0  0  0  0  0  0
   -4.6203   -3.9706   -6.1433 H   0  0  0  0  0  0  0  0  0  0  0  0
   -4.0812   -3.5812   -4.5021 H   0  0  0  0  0  0  0  0  0  0  0  0
   -5.0168   -2.0422   -3.0804 H   0  0  0  0  0  0  0  0  0  0  0  0
   -5.4604   -0.4019   -1.3305 H   0  0  0  0  0  0  0  0  0  0  0  0
   -4.9210    4.7580   -0.7797 H   0  0  0  0  0  0  0  0  0  0  0  0
   -6.4195    6.6610   -1.1750 H   0  0  0  0  0  0  0  0  0  0  0  0
  -11.2181    7.0018   -2.7776 H   0  0  0  0  0  0  0  0  0  0  0  0
  -10.4712    5.9097   -3.9655 H   0  0  0  0  0  0  0  0  0  0  0  0
  -10.7132    5.3770   -2.2682 H   0  0  0  0  0  0  0  0  0  0  0  0
   -8.9993    4.1485   -3.4840 H   0  0  0  0  0  0  0  0  0  0  0  0
   -7.5311    2.2514   -3.0645 H   0  0  0  0  0  0  0  0  0  0  0  0
   -1.8594   -1.9100    1.6470 H   0  0  0  0  0  0  0  0  0  0  0  0
   -0.5614   -3.9513    1.8541 H   0  0  0  0  0  0  0  0  0  0  0  0
    1.9741   -6.5372    2.0524 H   0  0  0  0  0  0  0  0  0  0  0  0
    0.3678   -6.0002    2.5958 H   0  0  0  0  0  0  0  0  0  0  0  0
    1.0839   -5.3374    1.0907 H   0  0  0  0  0  0  0  0  0  0  0  0
    2.4650   -1.8119    3.9925 H   0  0  0  0  0  0  0  0  0  0  0  0
    1.1319    0.2576    3.7891 H   0  0  0  0  0  0  0  0  0  0  0  0
   -1.4969   -0.3711    4.9620 H   0  0  0  0  0  0  0  0  0  0  0  0
   -2.0962    0.9920    6.9223 H   0  0  0  0  0  0  0  0  0  0  0  0
   -4.1469    4.6462    5.6473 H   0  0  0  0  0  0  0  0  0  0  0  0
   -4.3366    5.3733    7.2714 H   0  0  0  0  0  0  0  0  0  0  0  0
   -2.9946    5.8937    6.2273 H   0  0  0  0  0  0  0  0  0  0  0  0
   -1.9920    4.5135    4.5023 H   0  0  0  0  0  0  0  0  0  0  0  0
   -1.3773    3.1644    2.5633 H   0  0  0  0  0  0  0  0  0  0  0  0
    0.8595    3.5839    1.7155 H   0  0  0  0  0  0  0  0  0  0  0  0
   -0.7767    5.3428    1.1358 H   0  0  0  0  0  0  0  0  0  0  0  0
   -1.9667    5.6867   -3.4240 H   0  0  0  0  0  0  0  0  0  0  0  0
   -3.3540    4.6402   -2.9760 H   0  0  0  0  0  0  0  0  0  0  0  0
   -3.5495    6.4027   -3.0350 H   0  0  0  0  0  0  0  0  0  0  0  0
   -1.4405    3.4587   -2.6474 H   0  0  0  0  0  0  0  0  0  0  0  0
    0.1832    1.7448   -2.0791 H   0  0  0  0  0  0  0  0  0  0  0  0
    2.9265    3.6850   -0.1553 H   0  0  0  0  0  0  0  0  0  0  0  0
    5.0543    4.2248    0.8852 H   0  0  0  0  0  0  0  0  0  0  0  0
    8.2390    4.4404    2.6459 H   0  0  0  0  0  0  0  0  0  0  0  0
    7.3972    4.2018    1.0995 H   0  0  0  0  0  0  0  0  0  0  0  0
    6.5801    5.0467    2.4559 H   0  0  0  0  0  0  0  0  0  0  0  0
    4.9824    0.4961    2.9796 H   0  0  0  0  0  0  0  0  0  0  0  0
    2.8109   -0.0295    1.9568 H   0  0  0  0  0  0  0  0  0  0  0  0
    3.2050   -6.4542   -2.8890 H   0  0  0  0  0  0  0  0  0  0  0  0
    4.8625   -8.0774   -2.0498 H   0  0  0  0  0  0  0  0  0  0  0  0
    7.0013   -8.8731    2.4822 H   0  0  0  0  0  0  0  0  0  0  0  0
    5.3720   -8.1543    2.4797 H   0  0  0  0  0  0  0  0  0  0  0  0
    6.8210   -7.1057    2.3887 H   0  0  0  0  0  0  0  0  0  0  0  0
    5.3258   -5.7437    1.5056 H   0  0  0  0  0  0  0  0  0  0  0  0
    3.6949   -4.1525    0.6811 H   0  0  0  0  0  0  0  0  0  0  0  0
    1.1351   -6.5146   -1.1237 H   0  0  0  0  0  0  0  0  0  0  0  0
   -0.9412   -7.2775   -2.1159 H   0  0  0  0  0  0  0  0  0  0  0  0
   -2.0579   -8.3139   -3.9583 H   0  0  0  0  0  0  0  0  0  0  0  0
   -3.7961   -8.0791   -4.2501 H   0  0  0  0  0  0  0  0  0  0  0  0
   -3.1438   -7.8144   -2.6196 H   0  0  0  0  0  0  0  0  0  0  0  0
   -1.1363   -3.7081   -4.4683 H   0  0  0  0  0  0  0  0  0  0  0  0
    0.9649   -2.9412   -3.4749 H   0  0  0  0  0  0  0  0  0  0  0  0
    4.8849   -5.7594   -4.9096 H   0  0  0  0  0  0  0  0  0  0  0  0
    6.1861   -6.9398   -5.2195 H   0  0  0  0  0  0  0  0  0  0  0  0
    7.7342   -5.1141   -5.8426 H   0  0  0  0  0  0  0  0  0  0  0  0
    6.2909   -5.0648   -6.8615 H   0  0  0  0  0  0  0  0  0  0  0  0
    6.4812   -3.9064   -5.5371 H   0  0  0  0  0  0  0  0  0  0  0  0
    4.7721   -2.1635   -4.5842 H   0  0  0  0  0  0  0  0  0  0  0  0
    3.2154   -2.2526   -3.7423 H   0  0  0  0  0  0  0  0  0  0  0  0
    2.8223   -2.3321   -6.1659 H   0  0  0  0  0  0  0  0  0  0  0  0
    2.3951   -3.8937   -5.4505 H   0  0  0  0  0  0  0  0  0  0  0  0
    3.9113   -3.7155   -6.3399 H   0  0  0  0  0  0  0  0  0  0  0  0
    8.5406   -6.2570   -2.7330 H   0  0  0  0  0  0  0  0  0  0  0  0
  1  2  2  0  0  0  0
  2  3  1  0  0  0  0
  3  4  2  0  0  0  0
  3  5  1  0  0  0  0
  5  6  2  0  0  0  0
  6  7  1  0  0  0  0
  7  8  2  0  0  0  0
  8  9  1  0  0  0  0
  9 10  2  0  0  0  0
 10 11  1  0  0  0  0
 11 12  2  0  0  0  0
 12 13  1  0  0  0  0
 13 14  3  0  0  0  0
 12 15  1  0  0  0  0
 15 16  3  0  0  0  0
  8 17  1  0  0  0  0
 17 18  1  0  0  0  0
 18 19  1  0  0  0  0
 19 20  2  0  0  0  0
 20 21  1  0  0  0  0
 21 22  1  0  0  0  0
 21 23  1  0  0  0  0
  1 24  1  0  0  0  0
 24 25  2  0  0  0  0
 25 26  1  0  0  0  0
 26 27  1  0  0  0  0
 27 28  2  0  0  0  0
 28 29  1  0  0  0  0
 29 30  2  0  0  0  0
 30 31  1  0  0  0  0
 31 32  1  0  0  0  0
 30 33  1  0  0  0  0
 33 34  2  0  0  0  0
 26 35  1  0  0  0  0
 35 36  2  0  0  0  0
 36 37  1  0  0  0  0
 37 38  2  0  0  0  0
 38 39  1  0  0  0  0
 39 40  1  0  0  0  0
 38 41  1  0  0  0  0
 41 42  2  0  0  0  0
 25 43  1  0  0  0  0
 43 44  1  0  0  0  0
 44 45  1  0  0  0  0
 45 46  2  0  0  0  0
 46 47  1  0  0  0  0
 47 48  1  0  0  0  0
 48 49  2  0  0  0  0
 49 50  1  0  0  0  0
 50 51  2  0  0  0  0
 51 52  1  0  0  0  0
 52 53  1  0  0  0  0
 51 54  1  0  0  0  0
 54 55  2  0  0  0  0
 47 56  1  0  0  0  0
 56 57  2  0  0  0  0
 57 58  1  0  0  0  0
 58 59  2  0  0  0  0
 59 60  1  0  0  0  0
 60 61  1  0  0  0  0
 59 62  1  0  0  0  0
 62 63  2  0  0  0  0
 46 64  1  0  0  0  0
 64 65  1  0  0  0  0
 45 66  1  0  0  0  0
 66 67  2  0  0  0  0
 67 68  1  0  0  0  0
 68 69  1  0  0  0  0
 69 70  2  0  0  0  0
 70 71  1  0  0  0  0
 71 72  2  0  0  0  0
 72 73  1  0  0  0  0
 73 74  1  0  0  0  0
 72 75  1  0  0  0  0
 75 76  2  0  0  0  0
 68 77  1  0  0  0  0
 77 78  2  0  0  0  0
 78 79  1  0  0  0  0
 79 80  2  0  0  0  0
 80 81  1  0  0  0  0
 81 82  1  0  0  0  0
 80 83  1  0  0  0  0
 83 84  2  0  0  0  0
 67 85  1  0  0  0  0
 85 86  1  0  0  0  0
 86 87  1  0  0  0  0
 87 88  2  0  0  0  0
 88 89  1  0  0  0  0
 89 90  1  0  0  0  0
 90 91  2  0  0  0  0
 91 92  1  0  0  0  0
 92 93  2  0  0  0  0
 93 94  1  0  0  0  0
 94 95  1  0  0  0  0
 93 96  1  0  0  0  0
 96 97  2  0  0  0  0
 89 98  1  0  0  0  0
 98 99  2  0  0  0  0
 99100  1  0  0  0  0
100101  2  0  0  0  0
101102  1  0  0  0  0
102103  1  0  0  0  0
101104  1  0  0  0  0
104105  2  0  0  0  0
 88106  1  0  0  0  0
106107  1  0  0  0  0
 87108  1  0  0  0  0
108109  1  0  0  0  0
109110  1  0  0  0  0
110111  2  0  0  0  0
111112  1  0  0  0  0
112113  1  0  0  0  0
110114  1  0  0  0  0
114115  2  0  0  0  0
115116  1  0  0  0  0
116117  1  0  0  0  0
117118  1  0  0  0  0
115119  1  0  0  0  0
119120  1  0  0  0  0
120121  1  0  0  0  0
121122  1  0  0  0  0
114123  1  0  0  0  0
123124  2  0  0  0  0
124125  1  0  0  0  0
125126  2  0  0  0  0
125127  1  0  0  0  0
127128  2  0  0  0  0
128129  1  0  0  0  0
128130  1  0  0  0  0
130131  1  0  0  0  0
130132  2  0  0  0  0
132133  1  0  0  0  0
132134  1  0  0  0  0
134135  1  0  0  0  0
134136  2  0  0  0  0
136137  1  0  0  0  0
137138  2  0  0  0  0
138139  1  0  0  0  0
139140  3  0  0  0  0
138141  1  0  0  0  0
141142  3  0  0  0  0
 11  2  1  0  0  0  0
 23 17  1  0  0  0  0
 65 24  1  0  0  0  0
107 66  1  0  0  0  0
119108  2  0  0  0  0
137124  1  0  0  0  0
 10  5  1  0  0  0  0
 22 18  1  0  0  0  0
 34 27  1  0  0  0  0
 42 35  1  0  0  0  0
 64 43  2  0  0  0  0
 76 69  1  0  0  0  0
 84 77  1  0  0  0  0
106 85  2  0  0  0  0
113109  2  0  0  0  0
136127  1  0  0  0  0
 23  7  1  0  0  0  0
 55 48  1  0  0  0  0
 63 56  1  0  0  0  0
 97 90  1  0  0  0  0
105 98  1  0  0  0  0
  1143  1  0  0  0  0
  6144  1  0  0  0  0
  9145  1  0  0  0  0
 17146  1  0  0  0  0
 18147  1  0  0  0  0
 19148  1  0  0  0  0
 20149  1  0  0  0  0
 21150  1  0  0  0  0
 22151  1  0  0  0  0
 22152  1  0  0  0  0
 23153  1  0  0  0  0
 28154  1  0  0  0  0
 29155  1  0  0  0  0
 32156  1  0  0  0  0
 32157  1  0  0  0  0
 32158  1  0  0  0  0
 33159  1  0  0  0  0
 34160  1  0  0  0  0
 36161  1  0  0  0  0
 37162  1  0  0  0  0
 40163  1  0  0  0  0
 40164  1  0  0  0  0
 40165  1  0  0  0  0
 41166  1  0  0  0  0
 42167  1  0  0  0  0
 49168  1  0  0  0  0
 50169  1  0  0  0  0
 53170  1  0  0  0  0
 53171  1  0  0  0  0
 53172  1  0  0  0  0
 54173  1  0  0  0  0
 55174  1  0  0  0  0
 57175  1  0  0  0  0
 58176  1  0  0  0  0
 61177  1  0  0  0  0
 61178  1  0  0  0  0
 61179  1  0  0  0  0
 62180  1  0  0  0  0
 63181  1  0  0  0  0
 70182  1  0  0  0  0
 71183  1  0  0  0  0
 74184  1  0  0  0  0
 74185  1  0  0  0  0
 74186  1  0  0  0  0
 75187  1  0  0  0  0
 76188  1  0  0  0  0
 78189  1  0  0  0  0
 79190  1  0  0  0  0
 82191  1  0  0  0  0
 82192  1  0  0  0  0
 82193  1  0  0  0  0
 83194  1  0  0  0  0
 84195  1  0  0  0  0
 91196  1  0  0  0  0
 92197  1  0  0  0  0
 95198  1  0  0  0  0
 95199  1  0  0  0  0
 95200  1  0  0  0  0
 96201  1  0  0  0  0
 97202  1  0  0  0  0
 99203  1  0  0  0  0
100204  1  0  0  0  0
103205  1  0  0  0  0
103206  1  0  0  0  0
103207  1  0  0  0  0
104208  1  0  0  0  0
105209  1  0  0  0  0
117210  1  0  0  0  0
117211  1  0  0  0  0
118212  1  0  0  0  0
118213  1  0  0  0  0
118214  1  0  0  0  0
121215  1  0  0  0  0
121216  1  0  0  0  0
122217  1  0  0  0  0
122218  1  0  0  0  0
122219  1  0  0  0  0
123220  1  0  0  0  0
M  END
