
  xtb     02132217263D
 energy: -394.997913079304 gnorm: 0.000965035045 xtb: 6.4.1 (unknown)
238262  0     0  0            999 V2000
    1.6029   -2.8043   -6.6933 C   0  0  0  0  0  0  0  0  0  0  0  0
    1.1140   -4.0706   -6.4593 C   0  0  0  0  0  0  0  0  0  0  0  0
    0.0604   -4.4184   -5.4909 C   0  0  0  0  0  0  0  0  0  0  0  0
   -0.6157   -3.6725   -4.8012 O   0  0  0  0  0  0  0  0  0  0  0  0
    0.0418   -5.8917   -5.4166 C   0  0  0  0  0  0  0  0  0  0  0  0
   -0.7677   -6.6810   -4.6024 C   0  0  0  0  0  0  0  0  0  0  0  0
   -0.5819   -8.0324   -4.7664 C   0  0  0  0  0  0  0  0  0  0  0  0
    0.3448   -8.5618   -5.6725 C   0  0  0  0  0  0  0  0  0  0  0  0
    1.1664   -7.7945   -6.4641 C   0  0  0  0  0  0  0  0  0  0  0  0
    0.9984   -6.4164   -6.3053 C   0  0  0  0  0  0  0  0  0  0  0  0
    1.7047   -5.3001   -6.9338 C   0  0  0  0  0  0  0  0  0  0  0  0
    2.7456   -5.4344   -7.8192 C   0  0  0  0  0  0  0  0  0  0  0  0
    3.2924   -6.6662   -8.2337 C   0  0  0  0  0  0  0  0  0  0  0  0
    3.8052   -7.6215   -8.6137 N   0  0  0  0  0  0  0  0  0  0  0  0
    3.4495   -4.3909   -8.4482 C   0  0  0  0  0  0  0  0  0  0  0  0
    4.0900   -3.6337   -9.0297 N   0  0  0  0  0  0  0  0  0  0  0  0
    0.0053   -9.9866   -5.3122 C   0  0  0  0  0  0  0  0  0  0  0  0
    1.0059  -10.7209   -4.3954 C   0  0  0  0  0  0  0  0  0  0  0  0
    0.2042  -11.8720   -3.8329 C   0  0  0  0  0  0  0  0  0  0  0  0
   -0.6712  -11.3707   -2.9712 C   0  0  0  0  0  0  0  0  0  0  0  0
   -0.4758   -9.8721   -2.9368 C   0  0  0  0  0  0  0  0  0  0  0  0
    1.0385   -9.7986   -3.1700 C   0  0  0  0  0  0  0  0  0  0  0  0
   -1.0261   -9.3961   -4.2979 C   0  0  0  0  0  0  0  0  0  0  0  0
    1.0010   -1.5835   -6.3525 C   0  0  0  0  0  0  0  0  0  0  0  0
    1.6846   -0.4109   -5.9736 C   0  0  0  0  0  0  0  0  0  0  0  0
    3.0505   -0.2629   -5.8866 N   0  0  0  0  0  0  0  0  0  0  0  0
    3.8757   -0.5596   -6.9777 C   0  0  0  0  0  0  0  0  0  0  0  0
    5.1608   -1.0569   -6.7788 C   0  0  0  0  0  0  0  0  0  0  0  0
    5.9730   -1.3343   -7.8589 C   0  0  0  0  0  0  0  0  0  0  0  0
    5.5135   -1.1173   -9.1526 C   0  0  0  0  0  0  0  0  0  0  0  0
    6.4948   -1.4488  -10.5782 S   0  0  0  0  0  0  0  0  0  0  0  0
    7.4512   -2.8965  -10.0396 C   0  0  0  0  0  0  0  0  0  0  0  0
    4.2360   -0.6024   -9.3527 C   0  0  0  0  0  0  0  0  0  0  0  0
    3.4209   -0.3327   -8.2777 C   0  0  0  0  0  0  0  0  0  0  0  0
    3.5400    0.3988   -4.7479 C   0  0  0  0  0  0  0  0  0  0  0  0
    2.9811    0.0990   -3.5060 C   0  0  0  0  0  0  0  0  0  0  0  0
    3.3111    0.8351   -2.3885 C   0  0  0  0  0  0  0  0  0  0  0  0
    4.2221    1.8788   -2.4950 C   0  0  0  0  0  0  0  0  0  0  0  0
    4.6331    2.9314   -1.1404 S   0  0  0  0  0  0  0  0  0  0  0  0
    3.1748    2.7849   -0.0683 C   0  0  0  0  0  0  0  0  0  0  0  0
    4.8499    2.1215   -3.7150 C   0  0  0  0  0  0  0  0  0  0  0  0
    4.5128    1.3925   -4.8350 C   0  0  0  0  0  0  0  0  0  0  0  0
    0.7845    0.5617   -5.5046 C   0  0  0  0  0  0  0  0  0  0  0  0
    1.0106    2.1126   -4.7731 S   0  0  0  0  0  0  0  0  0  0  0  0
   -0.7151    2.1965   -4.4170 C   0  0  0  0  0  0  0  0  0  0  0  0
   -1.4374    1.1783   -5.0416 C   0  0  0  0  0  0  0  0  0  0  0  0
   -2.8067    1.1401   -5.1392 N   0  0  0  0  0  0  0  0  0  0  0  0
   -3.5830    2.3021   -5.2179 C   0  0  0  0  0  0  0  0  0  0  0  0
   -4.9256    2.2662   -4.8363 C   0  0  0  0  0  0  0  0  0  0  0  0
   -5.7325    3.3700   -4.9982 C   0  0  0  0  0  0  0  0  0  0  0  0
   -5.2220    4.5514   -5.5313 C   0  0  0  0  0  0  0  0  0  0  0  0
   -6.3643    5.8751   -5.7736 S   0  0  0  0  0  0  0  0  0  0  0  0
   -5.3095    7.2996   -6.1541 C   0  0  0  0  0  0  0  0  0  0  0  0
   -3.8793    4.6068   -5.8784 C   0  0  0  0  0  0  0  0  0  0  0  0
   -3.0744    3.4951   -5.7276 C   0  0  0  0  0  0  0  0  0  0  0  0
   -3.4233   -0.1176   -5.2733 C   0  0  0  0  0  0  0  0  0  0  0  0
   -4.3658   -0.3525   -6.2734 C   0  0  0  0  0  0  0  0  0  0  0  0
   -4.9087   -1.6087   -6.4261 C   0  0  0  0  0  0  0  0  0  0  0  0
   -4.5206   -2.6526   -5.5887 C   0  0  0  0  0  0  0  0  0  0  0  0
   -5.2346   -4.2385   -5.8915 S   0  0  0  0  0  0  0  0  0  0  0  0
   -4.0158   -5.3561   -5.1395 C   0  0  0  0  0  0  0  0  0  0  0  0
   -3.6133   -2.4130   -4.5661 C   0  0  0  0  0  0  0  0  0  0  0  0
   -3.0668   -1.1541   -4.4168 C   0  0  0  0  0  0  0  0  0  0  0  0
   -0.5582    0.2172   -5.6065 C   0  0  0  0  0  0  0  0  0  0  0  0
   -0.7430   -1.3722   -6.2524 S   0  0  0  0  0  0  0  0  0  0  0  0
   -1.0859    2.9404   -3.2541 C   0  0  0  0  0  0  0  0  0  0  0  0
   -0.3356    4.0355   -2.7859 C   0  0  0  0  0  0  0  0  0  0  0  0
    0.5137    4.8757   -3.5482 C   0  0  0  0  0  0  0  0  0  0  0  0
    1.2152    5.7652   -2.7937 C   0  0  0  0  0  0  0  0  0  0  0  0
    2.1561    6.7974   -3.2306 C   0  0  0  0  0  0  0  0  0  0  0  0
    2.7014    7.5734   -2.4846 O   0  0  0  0  0  0  0  0  0  0  0  0
    2.3372    6.7635   -4.5586 O   0  0  0  0  0  0  0  0  0  0  0  0
    3.2288    7.7370   -5.1037 C   0  0  0  0  0  0  0  0  0  0  0  0
    2.5355    9.0764   -5.3083 C   0  0  0  0  0  0  0  0  0  0  0  0
    0.9024    5.6159   -1.0876 S   0  0  0  0  0  0  0  0  0  0  0  0
   -0.2408    4.3394   -1.3960 C   0  0  0  0  0  0  0  0  0  0  0  0
   -0.8667    3.5873   -0.4180 C   0  0  0  0  0  0  0  0  0  0  0  0
   -1.7845    2.6396   -0.9056 C   0  0  0  0  0  0  0  0  0  0  0  0
   -1.9288    2.3383   -2.2953 C   0  0  0  0  0  0  0  0  0  0  0  0
   -2.7854    1.3092   -2.3852 N   0  0  0  0  0  0  0  0  0  0  0  0
   -3.1281    1.0593   -1.1510 N   0  0  0  0  0  0  0  0  0  0  0  0
   -4.0319   -0.0019   -0.7998 C   0  0  0  0  0  0  0  0  0  0  0  0
   -5.2757    0.0156   -1.6743 C   0  0  0  0  0  0  0  0  0  0  0  0
   -2.5739    1.7929   -0.2289 N   0  0  0  0  0  0  0  0  0  0  0  0
   -0.4452    3.4919    0.9671 C   0  0  0  0  0  0  0  0  0  0  0  0
   -0.4925    4.3653    2.0295 C   0  0  0  0  0  0  0  0  0  0  0  0
   -0.9985    5.6480    1.9576 N   0  0  0  0  0  0  0  0  0  0  0  0
   -0.4631    6.6686    2.7514 C   0  0  0  0  0  0  0  0  0  0  0  0
    0.8888    6.6804    3.0949 C   0  0  0  0  0  0  0  0  0  0  0  0
    1.3906    7.6781    3.8999 C   0  0  0  0  0  0  0  0  0  0  0  0
    0.5609    8.6939    4.3695 C   0  0  0  0  0  0  0  0  0  0  0  0
    1.3204    9.9145    5.3939 S   0  0  0  0  0  0  0  0  0  0  0  0
   -0.0468   11.0181    5.8506 C   0  0  0  0  0  0  0  0  0  0  0  0
   -0.7804    8.6989    4.0103 C   0  0  0  0  0  0  0  0  0  0  0  0
   -1.2860    7.6919    3.2123 C   0  0  0  0  0  0  0  0  0  0  0  0
   -1.9375    5.9390    0.9546 C   0  0  0  0  0  0  0  0  0  0  0  0
   -3.0009    5.0697    0.7273 C   0  0  0  0  0  0  0  0  0  0  0  0
   -3.8782    5.2899   -0.3154 C   0  0  0  0  0  0  0  0  0  0  0  0
   -3.7124    6.3948   -1.1386 C   0  0  0  0  0  0  0  0  0  0  0  0
   -4.7456    6.7308   -2.5302 S   0  0  0  0  0  0  0  0  0  0  0  0
   -6.1950    5.6784   -2.2449 C   0  0  0  0  0  0  0  0  0  0  0  0
   -2.6752    7.2897   -0.8877 C   0  0  0  0  0  0  0  0  0  0  0  0
   -1.7950    7.0668    0.1486 C   0  0  0  0  0  0  0  0  0  0  0  0
   -0.0239    3.7328    3.2126 C   0  0  0  0  0  0  0  0  0  0  0  0
    0.0961    4.2095    4.8613 S   0  0  0  0  0  0  0  0  0  0  0  0
    0.6295    2.5848    5.3268 C   0  0  0  0  0  0  0  0  0  0  0  0
    0.8295    1.7586    4.2048 C   0  0  0  0  0  0  0  0  0  0  0  0
    1.4197    0.5179    4.1729 N   0  0  0  0  0  0  0  0  0  0  0  0
    1.3451   -0.2251    2.9606 C   0  0  0  0  0  0  0  0  0  0  0  0
    0.1340   -0.7117    2.4823 C   0  0  0  0  0  0  0  0  0  0  0  0
    0.0749   -1.3607    1.2610 C   0  0  0  0  0  0  0  0  0  0  0  0
    1.2255   -1.5264    0.5026 C   0  0  0  0  0  0  0  0  0  0  0  0
    1.2644   -2.2622   -1.1023 S   0  0  0  0  0  0  0  0  0  0  0  0
   -0.4676   -2.2408   -1.6447 C   0  0  0  0  0  0  0  0  0  0  0  0
    2.4503   -1.0954    1.0136 C   0  0  0  0  0  0  0  0  0  0  0  0
    2.5106   -0.4542    2.2300 C   0  0  0  0  0  0  0  0  0  0  0  0
    2.3803    0.0715    5.0935 C   0  0  0  0  0  0  0  0  0  0  0  0
    3.2071    0.9382    5.8089 C   0  0  0  0  0  0  0  0  0  0  0  0
    4.1044    0.4412    6.7277 C   0  0  0  0  0  0  0  0  0  0  0  0
    4.2167   -0.9311    6.9443 C   0  0  0  0  0  0  0  0  0  0  0  0
    5.3461   -1.4402    8.1929 S   0  0  0  0  0  0  0  0  0  0  0  0
    5.3187   -3.2523    8.0919 C   0  0  0  0  0  0  0  0  0  0  0  0
    3.4435   -1.8020    6.1861 C   0  0  0  0  0  0  0  0  0  0  0  0
    2.5356   -1.3032    5.2760 C   0  0  0  0  0  0  0  0  0  0  0  0
    0.3939    2.4215    3.0332 C   0  0  0  0  0  0  0  0  0  0  0  0
    0.1834    1.9193    1.3967 S   0  0  0  0  0  0  0  0  0  0  0  0
    0.7630    2.3657    6.7042 C   0  0  0  0  0  0  0  0  0  0  0  0
    0.8228    1.1963    7.4184 C   0  0  0  0  0  0  0  0  0  0  0  0
    1.4743    1.1943    8.7500 C   0  0  0  0  0  0  0  0  0  0  0  0
    1.8208    2.1591    9.3950 O   0  0  0  0  0  0  0  0  0  0  0  0
    1.6570   -0.2317    9.0939 C   0  0  0  0  0  0  0  0  0  0  0  0
    2.3177   -0.7528   10.2032 C   0  0  0  0  0  0  0  0  0  0  0  0
    2.3044   -2.1256   10.2687 C   0  0  0  0  0  0  0  0  0  0  0  0
    1.6748   -2.9243    9.3054 C   0  0  0  0  0  0  0  0  0  0  0  0
    1.0286   -2.4231    8.2003 C   0  0  0  0  0  0  0  0  0  0  0  0
    1.0388   -1.0289    8.1110 C   0  0  0  0  0  0  0  0  0  0  0  0
    0.4433   -0.1508    7.1047 C   0  0  0  0  0  0  0  0  0  0  0  0
   -0.4912   -0.5283    6.1642 C   0  0  0  0  0  0  0  0  0  0  0  0
   -0.8008   -1.8585    5.8350 C   0  0  0  0  0  0  0  0  0  0  0  0
   -1.0623   -2.9178    5.4718 N   0  0  0  0  0  0  0  0  0  0  0  0
   -1.2910    0.3818    5.4546 C   0  0  0  0  0  0  0  0  0  0  0  0
   -2.0054    1.0700    4.8730 N   0  0  0  0  0  0  0  0  0  0  0  0
    2.0200   -4.2059   10.0254 C   0  0  0  0  0  0  0  0  0  0  0  0
    0.8830   -4.8654   10.8348 C   0  0  0  0  0  0  0  0  0  0  0  0
    1.6084   -5.7907   11.7853 C   0  0  0  0  0  0  0  0  0  0  0  0
    2.2178   -5.0387   12.6930 C   0  0  0  0  0  0  0  0  0  0  0  0
    1.9131   -3.5932   12.3721 C   0  0  0  0  0  0  0  0  0  0  0  0
    0.4954   -3.7421   11.8046 C   0  0  0  0  0  0  0  0  0  0  0  0
    2.7321   -3.3150   11.0943 C   0  0  0  0  0  0  0  0  0  0  0  0
    2.5940   -2.7251   -7.1279 H   0  0  0  0  0  0  0  0  0  0  0  0
   -1.4672   -6.2372   -3.9118 H   0  0  0  0  0  0  0  0  0  0  0  0
    1.8816   -8.2191   -7.1479 H   0  0  0  0  0  0  0  0  0  0  0  0
   -0.3622  -10.6081   -6.1261 H   0  0  0  0  0  0  0  0  0  0  0  0
    1.9550  -10.9671   -4.8632 H   0  0  0  0  0  0  0  0  0  0  0  0
    0.3152  -12.8922   -4.1500 H   0  0  0  0  0  0  0  0  0  0  0  0
   -1.4375  -11.8885   -2.4249 H   0  0  0  0  0  0  0  0  0  0  0  0
   -0.8759   -9.3465   -2.0739 H   0  0  0  0  0  0  0  0  0  0  0  0
    1.4075   -8.7962   -3.3785 H   0  0  0  0  0  0  0  0  0  0  0  0
    1.6032  -10.2301   -2.3454 H   0  0  0  0  0  0  0  0  0  0  0  0
   -2.0811   -9.6267   -4.4347 H   0  0  0  0  0  0  0  0  0  0  0  0
    5.5148   -1.2269   -5.7725 H   0  0  0  0  0  0  0  0  0  0  0  0
    6.9638   -1.7232   -7.6858 H   0  0  0  0  0  0  0  0  0  0  0  0
    6.7789   -3.5765   -9.5257 H   0  0  0  0  0  0  0  0  0  0  0  0
    7.8334   -3.3586  -10.9441 H   0  0  0  0  0  0  0  0  0  0  0  0
    8.2789   -2.5972   -9.4031 H   0  0  0  0  0  0  0  0  0  0  0  0
    3.8900   -0.4290  -10.3593 H   0  0  0  0  0  0  0  0  0  0  0  0
    2.4257    0.0582   -8.4321 H   0  0  0  0  0  0  0  0  0  0  0  0
    2.2685   -0.7084   -3.4208 H   0  0  0  0  0  0  0  0  0  0  0  0
    2.8499    0.5910   -1.4449 H   0  0  0  0  0  0  0  0  0  0  0  0
    2.2767    2.8535   -0.6741 H   0  0  0  0  0  0  0  0  0  0  0  0
    3.2233    3.6264    0.6156 H   0  0  0  0  0  0  0  0  0  0  0  0
    3.1950    1.8526    0.4898 H   0  0  0  0  0  0  0  0  0  0  0  0
    5.5799    2.9132   -3.7803 H   0  0  0  0  0  0  0  0  0  0  0  0
    4.9701    1.6131   -5.7877 H   0  0  0  0  0  0  0  0  0  0  0  0
   -5.3409    1.3590   -4.4271 H   0  0  0  0  0  0  0  0  0  0  0  0
   -6.7756    3.3256   -4.7227 H   0  0  0  0  0  0  0  0  0  0  0  0
   -5.9763    8.1555   -6.1879 H   0  0  0  0  0  0  0  0  0  0  0  0
   -4.8336    7.1663   -7.1213 H   0  0  0  0  0  0  0  0  0  0  0  0
   -4.5810    7.4290   -5.3594 H   0  0  0  0  0  0  0  0  0  0  0  0
   -3.4490    5.5061   -6.2881 H   0  0  0  0  0  0  0  0  0  0  0  0
   -2.0431    3.5545   -6.0402 H   0  0  0  0  0  0  0  0  0  0  0  0
   -4.6518    0.4478   -6.9392 H   0  0  0  0  0  0  0  0  0  0  0  0
   -5.6239   -1.8030   -7.2103 H   0  0  0  0  0  0  0  0  0  0  0  0
   -4.1658   -5.4080   -4.0646 H   0  0  0  0  0  0  0  0  0  0  0  0
   -3.0199   -5.0009   -5.3835 H   0  0  0  0  0  0  0  0  0  0  0  0
   -4.1850   -6.3333   -5.5809 H   0  0  0  0  0  0  0  0  0  0  0  0
   -3.3142   -3.1950   -3.8890 H   0  0  0  0  0  0  0  0  0  0  0  0
   -2.3578   -0.9613   -3.6275 H   0  0  0  0  0  0  0  0  0  0  0  0
    0.5828    4.8494   -4.6203 H   0  0  0  0  0  0  0  0  0  0  0  0
    3.5591    7.3131   -6.0542 H   0  0  0  0  0  0  0  0  0  0  0  0
    4.0826    7.8529   -4.4281 H   0  0  0  0  0  0  0  0  0  0  0  0
    1.6554    8.9533   -5.9352 H   0  0  0  0  0  0  0  0  0  0  0  0
    3.2197    9.7706   -5.7874 H   0  0  0  0  0  0  0  0  0  0  0  0
    2.2323    9.4870   -4.3484 H   0  0  0  0  0  0  0  0  0  0  0  0
   -3.5120   -0.9586   -0.9214 H   0  0  0  0  0  0  0  0  0  0  0  0
   -4.2717    0.1402    0.2557 H   0  0  0  0  0  0  0  0  0  0  0  0
   -4.9981   -0.1546   -2.7111 H   0  0  0  0  0  0  0  0  0  0  0  0
   -5.9557   -0.7708   -1.3596 H   0  0  0  0  0  0  0  0  0  0  0  0
   -5.7864    0.9720   -1.5952 H   0  0  0  0  0  0  0  0  0  0  0  0
    1.5466    5.9147    2.7123 H   0  0  0  0  0  0  0  0  0  0  0  0
    2.4359    7.6890    4.1673 H   0  0  0  0  0  0  0  0  0  0  0  0
   -0.8104   10.4608    6.3853 H   0  0  0  0  0  0  0  0  0  0  0  0
   -0.4526   11.4968    4.9640 H   0  0  0  0  0  0  0  0  0  0  0  0
    0.3893   11.7663    6.5051 H   0  0  0  0  0  0  0  0  0  0  0  0
   -1.4464    9.4754    4.3498 H   0  0  0  0  0  0  0  0  0  0  0  0
   -2.3318    7.6949    2.9424 H   0  0  0  0  0  0  0  0  0  0  0  0
   -3.1308    4.2051    1.3608 H   0  0  0  0  0  0  0  0  0  0  0  0
   -4.6801    4.5880   -0.4789 H   0  0  0  0  0  0  0  0  0  0  0  0
   -6.5736    5.8485   -1.2416 H   0  0  0  0  0  0  0  0  0  0  0  0
   -5.9342    4.6355   -2.4040 H   0  0  0  0  0  0  0  0  0  0  0  0
   -6.9313    5.9846   -2.9813 H   0  0  0  0  0  0  0  0  0  0  0  0
   -2.5593    8.1526   -1.5254 H   0  0  0  0  0  0  0  0  0  0  0  0
   -0.9814    7.7527    0.3297 H   0  0  0  0  0  0  0  0  0  0  0  0
   -0.7699   -0.5625    3.0519 H   0  0  0  0  0  0  0  0  0  0  0  0
   -0.8790   -1.7205    0.9116 H   0  0  0  0  0  0  0  0  0  0  0  0
   -0.8464   -1.2241   -1.5808 H   0  0  0  0  0  0  0  0  0  0  0  0
   -0.4615   -2.5804   -2.6783 H   0  0  0  0  0  0  0  0  0  0  0  0
   -1.0590   -2.9229   -1.0405 H   0  0  0  0  0  0  0  0  0  0  0  0
    3.3474   -1.2554    0.4343 H   0  0  0  0  0  0  0  0  0  0  0  0
    3.4572   -0.1030    2.6149 H   0  0  0  0  0  0  0  0  0  0  0  0
    3.1563    2.0020    5.6393 H   0  0  0  0  0  0  0  0  0  0  0  0
    4.7288    1.1156    7.2927 H   0  0  0  0  0  0  0  0  0  0  0  0
    6.0250   -3.5976    8.8404 H   0  0  0  0  0  0  0  0  0  0  0  0
    4.3238   -3.6190    8.3238 H   0  0  0  0  0  0  0  0  0  0  0  0
    5.6411   -3.5734    7.1058 H   0  0  0  0  0  0  0  0  0  0  0  0
    3.5225   -2.8697    6.3057 H   0  0  0  0  0  0  0  0  0  0  0  0
    1.9209   -1.9878    4.7097 H   0  0  0  0  0  0  0  0  0  0  0  0
    0.8907    3.2634    7.3026 H   0  0  0  0  0  0  0  0  0  0  0  0
    2.7848   -0.1038   10.9267 H   0  0  0  0  0  0  0  0  0  0  0  0
    0.5581   -3.0464    7.4574 H   0  0  0  0  0  0  0  0  0  0  0  0
    2.6101   -4.9336    9.4690 H   0  0  0  0  0  0  0  0  0  0  0  0
    0.0916   -5.3036   10.2326 H   0  0  0  0  0  0  0  0  0  0  0  0
    1.6480   -6.8581   11.6706 H   0  0  0  0  0  0  0  0  0  0  0  0
    2.8678   -5.3528   13.4885 H   0  0  0  0  0  0  0  0  0  0  0  0
    2.0596   -2.8730   13.1722 H   0  0  0  0  0  0  0  0  0  0  0  0
   -0.2165   -4.0767   12.5572 H   0  0  0  0  0  0  0  0  0  0  0  0
    0.1158   -2.8459   11.3176 H   0  0  0  0  0  0  0  0  0  0  0  0
    3.8044   -3.4319   11.2411 H   0  0  0  0  0  0  0  0  0  0  0  0
  1  2  2  0  0  0  0
  2  3  1  0  0  0  0
  3  4  2  0  0  0  0
  3  5  1  0  0  0  0
  5  6  2  0  0  0  0
  6  7  1  0  0  0  0
  7  8  2  0  0  0  0
  8  9  1  0  0  0  0
  9 10  2  0  0  0  0
 10 11  1  0  0  0  0
 11 12  2  0  0  0  0
 12 13  1  0  0  0  0
 13 14  3  0  0  0  0
 12 15  1  0  0  0  0
 15 16  3  0  0  0  0
  8 17  1  0  0  0  0
 17 18  1  0  0  0  0
 18 19  1  0  0  0  0
 19 20  2  0  0  0  0
 20 21  1  0  0  0  0
 21 22  1  0  0  0  0
 21 23  1  0  0  0  0
  1 24  1  0  0  0  0
 24 25  2  0  0  0  0
 25 26  1  0  0  0  0
 26 27  1  0  0  0  0
 27 28  2  0  0  0  0
 28 29  1  0  0  0  0
 29 30  2  0  0  0  0
 30 31  1  0  0  0  0
 31 32  1  0  0  0  0
 30 33  1  0  0  0  0
 33 34  2  0  0  0  0
 26 35  1  0  0  0  0
 35 36  2  0  0  0  0
 36 37  1  0  0  0  0
 37 38  2  0  0  0  0
 38 39  1  0  0  0  0
 39 40  1  0  0  0  0
 38 41  1  0  0  0  0
 41 42  2  0  0  0  0
 25 43  1  0  0  0  0
 43 44  1  0  0  0  0
 44 45  1  0  0  0  0
 45 46  2  0  0  0  0
 46 47  1  0  0  0  0
 47 48  1  0  0  0  0
 48 49  2  0  0  0  0
 49 50  1  0  0  0  0
 50 51  2  0  0  0  0
 51 52  1  0  0  0  0
 52 53  1  0  0  0  0
 51 54  1  0  0  0  0
 54 55  2  0  0  0  0
 47 56  1  0  0  0  0
 56 57  2  0  0  0  0
 57 58  1  0  0  0  0
 58 59  2  0  0  0  0
 59 60  1  0  0  0  0
 60 61  1  0  0  0  0
 59 62  1  0  0  0  0
 62 63  2  0  0  0  0
 46 64  1  0  0  0  0
 64 65  1  0  0  0  0
 45 66  1  0  0  0  0
 66 67  2  0  0  0  0
 67 68  1  0  0  0  0
 68 69  2  0  0  0  0
 69 70  1  0  0  0  0
 70 71  2  0  0  0  0
 70 72  1  0  0  0  0
 72 73  1  0  0  0  0
 73 74  1  0  0  0  0
 69 75  1  0  0  0  0
 75 76  1  0  0  0  0
 76 77  2  0  0  0  0
 77 78  1  0  0  0  0
 78 79  1  0  0  0  0
 79 80  2  0  0  0  0
 80 81  1  0  0  0  0
 81 82  1  0  0  0  0
 82 83  1  0  0  0  0
 81 84  1  0  0  0  0
 77 85  1  0  0  0  0
 85 86  2  0  0  0  0
 86 87  1  0  0  0  0
 87 88  1  0  0  0  0
 88 89  2  0  0  0  0
 89 90  1  0  0  0  0
 90 91  2  0  0  0  0
 91 92  1  0  0  0  0
 92 93  1  0  0  0  0
 91 94  1  0  0  0  0
 94 95  2  0  0  0  0
 87 96  1  0  0  0  0
 96 97  2  0  0  0  0
 97 98  1  0  0  0  0
 98 99  2  0  0  0  0
 99100  1  0  0  0  0
100101  1  0  0  0  0
 99102  1  0  0  0  0
102103  2  0  0  0  0
 86104  1  0  0  0  0
104105  1  0  0  0  0
105106  1  0  0  0  0
106107  2  0  0  0  0
107108  1  0  0  0  0
108109  1  0  0  0  0
109110  2  0  0  0  0
110111  1  0  0  0  0
111112  2  0  0  0  0
112113  1  0  0  0  0
113114  1  0  0  0  0
112115  1  0  0  0  0
115116  2  0  0  0  0
108117  1  0  0  0  0
117118  2  0  0  0  0
118119  1  0  0  0  0
119120  2  0  0  0  0
120121  1  0  0  0  0
121122  1  0  0  0  0
120123  1  0  0  0  0
123124  2  0  0  0  0
107125  1  0  0  0  0
125126  1  0  0  0  0
106127  1  0  0  0  0
127128  2  0  0  0  0
128129  1  0  0  0  0
129130  2  0  0  0  0
129131  1  0  0  0  0
131132  2  0  0  0  0
132133  1  0  0  0  0
133134  2  0  0  0  0
134135  1  0  0  0  0
135136  2  0  0  0  0
136137  1  0  0  0  0
137138  2  0  0  0  0
138139  1  0  0  0  0
139140  3  0  0  0  0
138141  1  0  0  0  0
141142  3  0  0  0  0
134143  1  0  0  0  0
143144  1  0  0  0  0
144145  1  0  0  0  0
145146  2  0  0  0  0
146147  1  0  0  0  0
147148  1  0  0  0  0
147149  1  0  0  0  0
 11  2  1  0  0  0  0
 23 17  1  0  0  0  0
 65 24  1  0  0  0  0
 79 66  1  0  0  0  0
126 85  1  0  0  0  0
137128  1  0  0  0  0
149143  1  0  0  0  0
 10  5  1  0  0  0  0
 22 18  1  0  0  0  0
 34 27  1  0  0  0  0
 42 35  1  0  0  0  0
 64 43  2  0  0  0  0
 76 67  1  0  0  0  0
 84 78  2  0  0  0  0
 95 88  1  0  0  0  0
103 96  1  0  0  0  0
125104  2  0  0  0  0
136131  1  0  0  0  0
148144  1  0  0  0  0
 23  7  1  0  0  0  0
 55 48  1  0  0  0  0
 63 56  1  0  0  0  0
116109  1  0  0  0  0
124117  1  0  0  0  0
149133  1  0  0  0  0
  1150  1  0  0  0  0
  6151  1  0  0  0  0
  9152  1  0  0  0  0
 17153  1  0  0  0  0
 18154  1  0  0  0  0
 19155  1  0  0  0  0
 20156  1  0  0  0  0
 21157  1  0  0  0  0
 22158  1  0  0  0  0
 22159  1  0  0  0  0
 23160  1  0  0  0  0
 28161  1  0  0  0  0
 29162  1  0  0  0  0
 32163  1  0  0  0  0
 32164  1  0  0  0  0
 32165  1  0  0  0  0
 33166  1  0  0  0  0
 34167  1  0  0  0  0
 36168  1  0  0  0  0
 37169  1  0  0  0  0
 40170  1  0  0  0  0
 40171  1  0  0  0  0
 40172  1  0  0  0  0
 41173  1  0  0  0  0
 42174  1  0  0  0  0
 49175  1  0  0  0  0
 50176  1  0  0  0  0
 53177  1  0  0  0  0
 53178  1  0  0  0  0
 53179  1  0  0  0  0
 54180  1  0  0  0  0
 55181  1  0  0  0  0
 57182  1  0  0  0  0
 58183  1  0  0  0  0
 61184  1  0  0  0  0
 61185  1  0  0  0  0
 61186  1  0  0  0  0
 62187  1  0  0  0  0
 63188  1  0  0  0  0
 68189  1  0  0  0  0
 73190  1  0  0  0  0
 73191  1  0  0  0  0
 74192  1  0  0  0  0
 74193  1  0  0  0  0
 74194  1  0  0  0  0
 82195  1  0  0  0  0
 82196  1  0  0  0  0
 83197  1  0  0  0  0
 83198  1  0  0  0  0
 83199  1  0  0  0  0
 89200  1  0  0  0  0
 90201  1  0  0  0  0
 93202  1  0  0  0  0
 93203  1  0  0  0  0
 93204  1  0  0  0  0
 94205  1  0  0  0  0
 95206  1  0  0  0  0
 97207  1  0  0  0  0
 98208  1  0  0  0  0
101209  1  0  0  0  0
101210  1  0  0  0  0
101211  1  0  0  0  0
102212  1  0  0  0  0
103213  1  0  0  0  0
110214  1  0  0  0  0
111215  1  0  0  0  0
114216  1  0  0  0  0
114217  1  0  0  0  0
114218  1  0  0  0  0
115219  1  0  0  0  0
116220  1  0  0  0  0
118221  1  0  0  0  0
119222  1  0  0  0  0
122223  1  0  0  0  0
122224  1  0  0  0  0
122225  1  0  0  0  0
123226  1  0  0  0  0
124227  1  0  0  0  0
127228  1  0  0  0  0
132229  1  0  0  0  0
135230  1  0  0  0  0
143231  1  0  0  0  0
144232  1  0  0  0  0
145233  1  0  0  0  0
146234  1  0  0  0  0
147235  1  0  0  0  0
148236  1  0  0  0  0
148237  1  0  0  0  0
149238  1  0  0  0  0
M  END
