
  xtb     02092208423D
 energy: -346.715753921540 gnorm: 0.000512600417 xtb: 6.4.1 (unknown)
208231  0     0  0            999 V2000
    4.9913    7.2983   -3.9543 C   0  0  0  0  0  0  0  0  0  0  0  0
    6.3355    7.3822   -3.7934 C   0  0  0  0  0  0  0  0  0  0  0  0
    6.9299    8.5532   -3.0888 C   0  0  0  0  0  0  0  0  0  0  0  0
    6.4024    9.6236   -2.8903 O   0  0  0  0  0  0  0  0  0  0  0  0
    8.2532    8.0898   -2.6291 C   0  0  0  0  0  0  0  0  0  0  0  0
    9.1375    8.7637   -1.7890 C   0  0  0  0  0  0  0  0  0  0  0  0
   10.2811    8.0598   -1.4981 C   0  0  0  0  0  0  0  0  0  0  0  0
   10.5349    6.7770   -2.0042 C   0  0  0  0  0  0  0  0  0  0  0  0
    9.6805    6.1046   -2.8450 C   0  0  0  0  0  0  0  0  0  0  0  0
    8.5108    6.8033   -3.1514 C   0  0  0  0  0  0  0  0  0  0  0  0
    7.4021    6.4290   -4.0227 C   0  0  0  0  0  0  0  0  0  0  0  0
    7.4566    5.5319   -5.0552 C   0  0  0  0  0  0  0  0  0  0  0  0
    6.4643    5.4635   -6.0577 C   0  0  0  0  0  0  0  0  0  0  0  0
    5.7116    5.4316   -6.9235 N   0  0  0  0  0  0  0  0  0  0  0  0
    8.5351    4.6559   -5.2866 C   0  0  0  0  0  0  0  0  0  0  0  0
    9.3752    3.9042   -5.5030 N   0  0  0  0  0  0  0  0  0  0  0  0
   11.8514    6.6643   -1.2779 C   0  0  0  0  0  0  0  0  0  0  0  0
   11.8945    5.7958    0.0041 C   0  0  0  0  0  0  0  0  0  0  0  0
   10.4981    5.8022    0.5750 C   0  0  0  0  0  0  0  0  0  0  0  0
   10.2609    7.0171    1.0516 C   0  0  0  0  0  0  0  0  0  0  0  0
   11.4927    7.8544    0.8112 C   0  0  0  0  0  0  0  0  0  0  0  0
   12.5828    6.7813    0.9620 C   0  0  0  0  0  0  0  0  0  0  0  0
   11.5712    8.0942   -0.7173 C   0  0  0  0  0  0  0  0  0  0  0  0
    4.1847    6.1494   -4.1637 C   0  0  0  0  0  0  0  0  0  0  0  0
    2.8528    6.1628   -4.4928 C   0  0  0  0  0  0  0  0  0  0  0  0
    2.2570    4.8854   -4.5514 C   0  0  0  0  0  0  0  0  0  0  0  0
    0.8969    4.5676   -4.7733 C   0  0  0  0  0  0  0  0  0  0  0  0
   -0.1377    5.5700   -4.8916 C   0  0  0  0  0  0  0  0  0  0  0  0
   -1.2525    5.5167   -5.6822 C   0  0  0  0  0  0  0  0  0  0  0  0
   -2.1618    6.5819   -5.5431 C   0  0  0  0  0  0  0  0  0  0  0  0
   -1.8246    7.5182   -4.6075 C   0  0  0  0  0  0  0  0  0  0  0  0
   -2.8405    8.8736   -4.1787 S   0  0  0  0  0  0  0  0  0  0  0  0
   -1.6385    9.9967   -3.3827 C   0  0  0  0  0  0  0  0  0  0  0  0
   -0.6917   10.6256   -4.3839 C   0  0  0  0  0  0  0  0  0  0  0  0
   -0.1971    7.0874   -3.7664 Se  0  0  0  0  0  2  0  0  0  0  0  0
    0.5778    3.2135   -4.7761 C   0  0  0  0  0  0  0  0  0  0  0  0
    1.5362    2.1934   -4.5714 C   0  0  0  0  0  0  0  0  0  0  0  0
    2.8738    2.5088   -4.2644 C   0  0  0  0  0  0  0  0  0  0  0  0
    3.8169    1.4981   -3.8348 C   0  0  0  0  0  0  0  0  0  0  0  0
    5.1551    1.4386   -4.1153 C   0  0  0  0  0  0  0  0  0  0  0  0
    5.8663    0.4032   -3.4799 C   0  0  0  0  0  0  0  0  0  0  0  0
    5.1202   -0.3775   -2.6491 C   0  0  0  0  0  0  0  0  0  0  0  0
    5.7353   -1.7307   -1.7080 S   0  0  0  0  0  0  0  0  0  0  0  0
    6.1368   -0.8572   -0.1422 C   0  0  0  0  0  0  0  0  0  0  0  0
    4.9028   -0.5363    0.6743 C   0  0  0  0  0  0  0  0  0  0  0  0
    3.3151    0.1478   -2.6349 Se  0  0  0  0  0  2  0  0  0  0  0  0
    3.1961    3.8586   -4.2747 C   0  0  0  0  0  0  0  0  0  0  0  0
    4.7545    4.5158   -3.8729 S   0  0  0  0  0  0  0  0  0  0  0  0
    0.9528    0.9096   -4.5702 C   0  0  0  0  0  0  0  0  0  0  0  0
   -0.4086    0.9194   -4.6467 C   0  0  0  0  0  0  0  0  0  0  0  0
   -1.0301    2.5448   -4.8723 S   0  0  0  0  0  0  0  0  0  0  0  0
   -1.2843   -0.1649   -4.3054 C   0  0  0  0  0  0  0  0  0  0  0  0
   -0.7831   -1.2988   -3.6304 C   0  0  0  0  0  0  0  0  0  0  0  0
    0.5264   -1.6664   -3.5469 N   0  0  0  0  0  0  0  0  0  0  0  0
    0.7263   -2.6748   -2.7908 C   0  0  0  0  0  0  0  0  0  0  0  0
    2.0476   -3.2869   -2.5190 C   0  0  0  0  0  0  0  0  0  0  0  0
    2.4455   -3.0891   -1.0569 C   0  0  0  0  0  0  0  0  0  0  0  0
   -0.7268   -3.3107   -2.0095 S   0  0  0  0  0  0  0  0  0  0  0  0
   -1.6458   -2.0988   -2.8459 C   0  0  0  0  0  0  0  0  0  0  0  0
   -2.9922   -1.7957   -2.6656 C   0  0  0  0  0  0  0  0  0  0  0  0
   -3.5302   -0.8772   -3.5750 C   0  0  0  0  0  0  0  0  0  0  0  0
   -2.6773   -0.0872   -4.3809 C   0  0  0  0  0  0  0  0  0  0  0  0
   -3.6469    0.9663   -5.3585 S   0  0  0  0  0  0  0  0  0  0  0  0
   -5.0929    0.2134   -4.6659 C   0  0  0  0  0  0  0  0  0  0  0  0
   -6.4489    0.5643   -5.1539 C   0  0  0  0  0  0  0  0  0  0  0  0
   -6.4585    1.7454   -6.1132 C   0  0  0  0  0  0  0  0  0  0  0  0
   -4.8574   -0.6601   -3.7637 N   0  0  0  0  0  0  0  0  0  0  0  0
   -3.6661   -2.1386   -1.4292 C   0  0  0  0  0  0  0  0  0  0  0  0
   -4.0168   -1.1812   -0.4956 C   0  0  0  0  0  0  0  0  0  0  0  0
   -3.9228    0.2107   -0.7241 N   0  0  0  0  0  0  0  0  0  0  0  0
   -2.6658    0.8123   -0.7129 C   0  0  0  0  0  0  0  0  0  0  0  0
   -2.5210    2.2022   -0.7267 C   0  0  0  0  0  0  0  0  0  0  0  0
   -1.2814    2.7981   -0.8446 C   0  0  0  0  0  0  0  0  0  0  0  0
   -0.1346    2.0217   -0.9150 C   0  0  0  0  0  0  0  0  0  0  0  0
    1.4975    2.6696   -1.1352 S   0  0  0  0  0  0  0  0  0  0  0  0
    1.2583    4.4673   -1.1711 C   0  0  0  0  0  0  0  0  0  0  0  0
   -0.2534    0.6451   -0.7632 C   0  0  0  0  0  0  0  0  0  0  0  0
   -1.4919    0.0534   -0.6426 C   0  0  0  0  0  0  0  0  0  0  0  0
   -5.0872    0.8727   -1.1481 C   0  0  0  0  0  0  0  0  0  0  0  0
   -6.3285    0.4889   -0.6392 C   0  0  0  0  0  0  0  0  0  0  0  0
   -7.4823    1.1253   -1.0395 C   0  0  0  0  0  0  0  0  0  0  0  0
   -7.4340    2.1721   -1.9554 C   0  0  0  0  0  0  0  0  0  0  0  0
   -8.9754    2.9151   -2.3992 S   0  0  0  0  0  0  0  0  0  0  0  0
   -8.4950    4.3339   -3.4260 C   0  0  0  0  0  0  0  0  0  0  0  0
   -6.2078    2.5430   -2.4880 C   0  0  0  0  0  0  0  0  0  0  0  0
   -5.0551    1.8868   -2.1036 C   0  0  0  0  0  0  0  0  0  0  0  0
   -4.3469   -1.7822    0.7394 C   0  0  0  0  0  0  0  0  0  0  0  0
   -4.8857   -1.1883    2.2654 S   0  0  0  0  0  0  0  0  0  0  0  0
   -4.8286   -2.8178    2.9536 C   0  0  0  0  0  0  0  0  0  0  0  0
   -4.4801   -3.7827    1.9902 C   0  0  0  0  0  0  0  0  0  0  0  0
   -4.4636   -5.1423    2.1513 N   0  0  0  0  0  0  0  0  0  0  0  0
   -5.2911   -5.7889    3.0740 C   0  0  0  0  0  0  0  0  0  0  0  0
   -4.8111   -6.8613    3.8232 C   0  0  0  0  0  0  0  0  0  0  0  0
   -5.6005   -7.4534    4.7912 C   0  0  0  0  0  0  0  0  0  0  0  0
   -6.8868   -6.9851    5.0243 C   0  0  0  0  0  0  0  0  0  0  0  0
   -7.9578   -7.6091    6.2741 S   0  0  0  0  0  0  0  0  0  0  0  0
   -6.8408   -8.5194    7.3779 C   0  0  0  0  0  0  0  0  0  0  0  0
   -7.3943   -5.9566    4.2268 C   0  0  0  0  0  0  0  0  0  0  0  0
   -6.6085   -5.3649    3.2676 C   0  0  0  0  0  0  0  0  0  0  0  0
   -3.5728   -5.8997    1.3653 C   0  0  0  0  0  0  0  0  0  0  0  0
   -2.2704   -5.4525    1.1620 C   0  0  0  0  0  0  0  0  0  0  0  0
   -1.4095   -6.1498    0.3403 C   0  0  0  0  0  0  0  0  0  0  0  0
   -1.8410   -7.3093   -0.2909 C   0  0  0  0  0  0  0  0  0  0  0  0
   -0.8326   -8.2451   -1.3942 S   0  0  0  0  0  0  0  0  0  0  0  0
    0.4925   -7.0806   -1.8292 C   0  0  0  0  0  0  0  0  0  0  0  0
   -3.1274   -7.7870   -0.0470 C   0  0  0  0  0  0  0  0  0  0  0  0
   -3.9885   -7.0899    0.7725 C   0  0  0  0  0  0  0  0  0  0  0  0
   -4.2056   -3.1638    0.7473 C   0  0  0  0  0  0  0  0  0  0  0  0
   -3.7232   -3.7591   -0.8059 S   0  0  0  0  0  0  0  0  0  0  0  0
   -5.1589   -2.9476    4.3106 C   0  0  0  0  0  0  0  0  0  0  0  0
   -4.7126   -3.9436    5.1478 C   0  0  0  0  0  0  0  0  0  0  0  0
   -3.4484   -4.6695    4.9439 C   0  0  0  0  0  0  0  0  0  0  0  0
   -2.6673   -4.5491    4.0181 O   0  0  0  0  0  0  0  0  0  0  0  0
   -3.2438   -5.4731    6.1662 C   0  0  0  0  0  0  0  0  0  0  0  0
   -2.1668   -6.3087    6.4476 C   0  0  0  0  0  0  0  0  0  0  0  0
   -2.2513   -6.9400    7.6660 C   0  0  0  0  0  0  0  0  0  0  0  0
   -3.3221   -6.7430    8.5460 C   0  0  0  0  0  0  0  0  0  0  0  0
   -4.3827   -5.9052    8.2879 C   0  0  0  0  0  0  0  0  0  0  0  0
   -4.3218   -5.2645    7.0472 C   0  0  0  0  0  0  0  0  0  0  0  0
   -5.2624   -4.3394    6.4170 C   0  0  0  0  0  0  0  0  0  0  0  0
   -6.5207   -4.0339    6.8727 C   0  0  0  0  0  0  0  0  0  0  0  0
   -7.4395   -3.2416    6.1561 C   0  0  0  0  0  0  0  0  0  0  0  0
   -8.2393   -2.6266    5.6072 N   0  0  0  0  0  0  0  0  0  0  0  0
   -7.0699   -4.5252    8.0721 C   0  0  0  0  0  0  0  0  0  0  0  0
   -7.5604   -4.9047    9.0390 N   0  0  0  0  0  0  0  0  0  0  0  0
   -2.7619   -7.6992    9.5699 C   0  0  0  0  0  0  0  0  0  0  0  0
   -3.4046   -9.1017    9.6257 C   0  0  0  0  0  0  0  0  0  0  0  0
   -2.3762   -9.9391   10.3515 C   0  0  0  0  0  0  0  0  0  0  0  0
   -1.3494  -10.1183    9.5304 C   0  0  0  0  0  0  0  0  0  0  0  0
   -1.6676   -9.4080    8.2348 C   0  0  0  0  0  0  0  0  0  0  0  0
   -3.1881   -9.6044    8.1924 C   0  0  0  0  0  0  0  0  0  0  0  0
   -1.5606   -7.9109    8.5931 C   0  0  0  0  0  0  0  0  0  0  0  0
    4.4444    8.2236   -3.7992 H   0  0  0  0  0  0  0  0  0  0  0  0
    8.9079    9.7507   -1.4190 H   0  0  0  0  0  0  0  0  0  0  0  0
    9.8786    5.1166   -3.2279 H   0  0  0  0  0  0  0  0  0  0  0  0
   12.7305    6.5241   -1.9034 H   0  0  0  0  0  0  0  0  0  0  0  0
   12.3550    4.8203   -0.1274 H   0  0  0  0  0  0  0  0  0  0  0  0
    9.8259    4.9658    0.5237 H   0  0  0  0  0  0  0  0  0  0  0  0
    9.3513    7.3977    1.4780 H   0  0  0  0  0  0  0  0  0  0  0  0
   11.5877    8.7530    1.4150 H   0  0  0  0  0  0  0  0  0  0  0  0
   12.6580    6.3976    1.9784 H   0  0  0  0  0  0  0  0  0  0  0  0
   13.5634    7.1074    0.6183 H   0  0  0  0  0  0  0  0  0  0  0  0
   12.2672    8.8890   -0.9778 H   0  0  0  0  0  0  0  0  0  0  0  0
    2.3402    7.0797   -4.7327 H   0  0  0  0  0  0  0  0  0  0  0  0
   -1.4007    4.7369   -6.4099 H   0  0  0  0  0  0  0  0  0  0  0  0
   -3.0577    6.6645   -6.1336 H   0  0  0  0  0  0  0  0  0  0  0  0
   -2.2509   10.7493   -2.8875 H   0  0  0  0  0  0  0  0  0  0  0  0
   -1.1035    9.4152   -2.6249 H   0  0  0  0  0  0  0  0  0  0  0  0
   -1.2475   11.1839   -5.1334 H   0  0  0  0  0  0  0  0  0  0  0  0
   -0.1013    9.8611   -4.8892 H   0  0  0  0  0  0  0  0  0  0  0  0
   -0.0114   11.3034   -3.8729 H   0  0  0  0  0  0  0  0  0  0  0  0
    5.6295    2.1114   -4.8105 H   0  0  0  0  0  0  0  0  0  0  0  0
    6.9197    0.2401   -3.6326 H   0  0  0  0  0  0  0  0  0  0  0  0
    6.6877    0.0421   -0.4157 H   0  0  0  0  0  0  0  0  0  0  0  0
    6.7982   -1.5408    0.3883 H   0  0  0  0  0  0  0  0  0  0  0  0
    5.1852    0.0093    1.5726 H   0  0  0  0  0  0  0  0  0  0  0  0
    4.2110    0.0846    0.1023 H   0  0  0  0  0  0  0  0  0  0  0  0
    4.3905   -1.4501    0.9660 H   0  0  0  0  0  0  0  0  0  0  0  0
    1.5029   -0.0103   -4.4995 H   0  0  0  0  0  0  0  0  0  0  0  0
    2.7860   -2.8113   -3.1683 H   0  0  0  0  0  0  0  0  0  0  0  0
    2.0111   -4.3547   -2.7486 H   0  0  0  0  0  0  0  0  0  0  0  0
    3.4140   -3.5458   -0.8751 H   0  0  0  0  0  0  0  0  0  0  0  0
    1.7078   -3.5331   -0.3916 H   0  0  0  0  0  0  0  0  0  0  0  0
    2.5189   -2.0235   -0.8374 H   0  0  0  0  0  0  0  0  0  0  0  0
   -6.8627   -0.3202   -5.6483 H   0  0  0  0  0  0  0  0  0  0  0  0
   -7.0796    0.7629   -4.2839 H   0  0  0  0  0  0  0  0  0  0  0  0
   -7.4790    1.9815   -6.4038 H   0  0  0  0  0  0  0  0  0  0  0  0
   -6.0143    2.6220   -5.6466 H   0  0  0  0  0  0  0  0  0  0  0  0
   -5.8892    1.5159   -7.0114 H   0  0  0  0  0  0  0  0  0  0  0  0
   -3.3882    2.8352   -0.6261 H   0  0  0  0  0  0  0  0  0  0  0  0
   -1.2303    3.8747   -0.8758 H   0  0  0  0  0  0  0  0  0  0  0  0
    0.8448    4.8046   -0.2253 H   0  0  0  0  0  0  0  0  0  0  0  0
    0.6152    4.7438   -2.0036 H   0  0  0  0  0  0  0  0  0  0  0  0
    2.2469    4.8930   -1.3145 H   0  0  0  0  0  0  0  0  0  0  0  0
    0.6420    0.0388   -0.7480 H   0  0  0  0  0  0  0  0  0  0  0  0
   -1.5422   -1.0096   -0.4729 H   0  0  0  0  0  0  0  0  0  0  0  0
   -6.3957   -0.3091    0.0818 H   0  0  0  0  0  0  0  0  0  0  0  0
   -8.4365    0.8222   -0.6371 H   0  0  0  0  0  0  0  0  0  0  0  0
   -7.8113    4.9732   -2.8756 H   0  0  0  0  0  0  0  0  0  0  0  0
   -9.4167    4.8696   -3.6309 H   0  0  0  0  0  0  0  0  0  0  0  0
   -8.0544    3.9929   -4.3584 H   0  0  0  0  0  0  0  0  0  0  0  0
   -6.1318    3.3326   -3.2184 H   0  0  0  0  0  0  0  0  0  0  0  0
   -4.1233    2.1621   -2.5743 H   0  0  0  0  0  0  0  0  0  0  0  0
   -3.8079   -7.2222    3.6527 H   0  0  0  0  0  0  0  0  0  0  0  0
   -5.1970   -8.2729    5.3641 H   0  0  0  0  0  0  0  0  0  0  0  0
   -7.4270   -8.7381    8.2648 H   0  0  0  0  0  0  0  0  0  0  0  0
   -5.9974   -7.8872    7.6403 H   0  0  0  0  0  0  0  0  0  0  0  0
   -6.5157   -9.4458    6.9131 H   0  0  0  0  0  0  0  0  0  0  0  0
   -8.4078   -5.6214    4.3837 H   0  0  0  0  0  0  0  0  0  0  0  0
   -7.0084   -4.5610    2.6686 H   0  0  0  0  0  0  0  0  0  0  0  0
   -1.9328   -4.5653    1.6736 H   0  0  0  0  0  0  0  0  0  0  0  0
   -0.4061   -5.7817    0.2040 H   0  0  0  0  0  0  0  0  0  0  0  0
    1.1811   -6.9611   -0.9975 H   0  0  0  0  0  0  0  0  0  0  0  0
    1.0110   -7.5267   -2.6724 H   0  0  0  0  0  0  0  0  0  0  0  0
    0.0522   -6.1306   -2.1181 H   0  0  0  0  0  0  0  0  0  0  0  0
   -3.4476   -8.7008   -0.5230 H   0  0  0  0  0  0  0  0  0  0  0  0
   -4.9916   -7.4522    0.9423 H   0  0  0  0  0  0  0  0  0  0  0  0
   -5.7833   -2.1627    4.7202 H   0  0  0  0  0  0  0  0  0  0  0  0
   -1.3577   -6.4267    5.7437 H   0  0  0  0  0  0  0  0  0  0  0  0
   -5.1863   -5.7402    8.9869 H   0  0  0  0  0  0  0  0  0  0  0  0
   -2.5658   -7.2824   10.5558 H   0  0  0  0  0  0  0  0  0  0  0  0
   -4.4184   -9.1236   10.0170 H   0  0  0  0  0  0  0  0  0  0  0  0
   -2.4733  -10.2547   11.3736 H   0  0  0  0  0  0  0  0  0  0  0  0
   -0.4177  -10.6146    9.7293 H   0  0  0  0  0  0  0  0  0  0  0  0
   -1.0988   -9.7094    7.3591 H   0  0  0  0  0  0  0  0  0  0  0  0
   -3.6843   -9.0056    7.4310 H   0  0  0  0  0  0  0  0  0  0  0  0
   -3.4677  -10.6502    8.0757 H   0  0  0  0  0  0  0  0  0  0  0  0
   -0.5652   -7.6219    8.9251 H   0  0  0  0  0  0  0  0  0  0  0  0
  1  2  2  0  0  0  0
  2  3  1  0  0  0  0
  3  4  2  0  0  0  0
  3  5  1  0  0  0  0
  5  6  2  0  0  0  0
  6  7  1  0  0  0  0
  7  8  2  0  0  0  0
  8  9  1  0  0  0  0
  9 10  2  0  0  0  0
 10 11  1  0  0  0  0
 11 12  2  0  0  0  0
 12 13  1  0  0  0  0
 13 14  3  0  0  0  0
 12 15  1  0  0  0  0
 15 16  3  0  0  0  0
  8 17  1  0  0  0  0
 17 18  1  0  0  0  0
 18 19  1  0  0  0  0
 19 20  2  0  0  0  0
 20 21  1  0  0  0  0
 21 22  1  0  0  0  0
 21 23  1  0  0  0  0
  1 24  1  0  0  0  0
 24 25  2  0  0  0  0
 25 26  1  0  0  0  0
 26 27  2  0  0  0  0
 27 28  1  0  0  0  0
 28 29  2  0  0  0  0
 29 30  1  0  0  0  0
 30 31  2  0  0  0  0
 31 32  1  0  0  0  0
 32 33  1  0  0  0  0
 33 34  1  0  0  0  0
 31 35  1  0  0  0  0
 27 36  1  0  0  0  0
 36 37  2  0  0  0  0
 37 38  1  0  0  0  0
 38 39  1  0  0  0  0
 39 40  2  0  0  0  0
 40 41  1  0  0  0  0
 41 42  2  0  0  0  0
 42 43  1  0  0  0  0
 43 44  1  0  0  0  0
 44 45  1  0  0  0  0
 42 46  1  0  0  0  0
 38 47  2  0  0  0  0
 47 48  1  0  0  0  0
 37 49  1  0  0  0  0
 49 50  2  0  0  0  0
 50 51  1  0  0  0  0
 50 52  1  0  0  0  0
 52 53  2  0  0  0  0
 53 54  1  0  0  0  0
 54 55  2  0  0  0  0
 55 56  1  0  0  0  0
 56 57  1  0  0  0  0
 55 58  1  0  0  0  0
 58 59  1  0  0  0  0
 59 60  2  0  0  0  0
 60 61  1  0  0  0  0
 61 62  2  0  0  0  0
 62 63  1  0  0  0  0
 63 64  1  0  0  0  0
 64 65  1  0  0  0  0
 65 66  1  0  0  0  0
 64 67  2  0  0  0  0
 60 68  1  0  0  0  0
 68 69  2  0  0  0  0
 69 70  1  0  0  0  0
 70 71  1  0  0  0  0
 71 72  2  0  0  0  0
 72 73  1  0  0  0  0
 73 74  2  0  0  0  0
 74 75  1  0  0  0  0
 75 76  1  0  0  0  0
 74 77  1  0  0  0  0
 77 78  2  0  0  0  0
 70 79  1  0  0  0  0
 79 80  2  0  0  0  0
 80 81  1  0  0  0  0
 81 82  2  0  0  0  0
 82 83  1  0  0  0  0
 83 84  1  0  0  0  0
 82 85  1  0  0  0  0
 85 86  2  0  0  0  0
 69 87  1  0  0  0  0
 87 88  1  0  0  0  0
 88 89  1  0  0  0  0
 89 90  2  0  0  0  0
 90 91  1  0  0  0  0
 91 92  1  0  0  0  0
 92 93  2  0  0  0  0
 93 94  1  0  0  0  0
 94 95  2  0  0  0  0
 95 96  1  0  0  0  0
 96 97  1  0  0  0  0
 95 98  1  0  0  0  0
 98 99  2  0  0  0  0
 91100  1  0  0  0  0
100101  2  0  0  0  0
101102  1  0  0  0  0
102103  2  0  0  0  0
103104  1  0  0  0  0
104105  1  0  0  0  0
103106  1  0  0  0  0
106107  2  0  0  0  0
 90108  1  0  0  0  0
108109  1  0  0  0  0
 89110  1  0  0  0  0
110111  2  0  0  0  0
111112  1  0  0  0  0
112113  2  0  0  0  0
112114  1  0  0  0  0
114115  2  0  0  0  0
115116  1  0  0  0  0
116117  2  0  0  0  0
117118  1  0  0  0  0
118119  2  0  0  0  0
119120  1  0  0  0  0
120121  2  0  0  0  0
121122  1  0  0  0  0
122123  3  0  0  0  0
121124  1  0  0  0  0
124125  3  0  0  0  0
117126  1  0  0  0  0
126127  1  0  0  0  0
127128  1  0  0  0  0
128129  2  0  0  0  0
129130  1  0  0  0  0
130131  1  0  0  0  0
130132  1  0  0  0  0
 11  2  1  0  0  0  0
 23 17  1  0  0  0  0
 48 24  1  0  0  0  0
 62 52  1  0  0  0  0
109 68  1  0  0  0  0
120111  1  0  0  0  0
132126  1  0  0  0  0
 10  5  1  0  0  0  0
 22 18  1  0  0  0  0
 47 26  1  0  0  0  0
 59 53  1  0  0  0  0
 67 61  1  0  0  0  0
 78 71  1  0  0  0  0
 86 79  1  0  0  0  0
108 87  2  0  0  0  0
119114  1  0  0  0  0
131127  1  0  0  0  0
 23  7  1  0  0  0  0
 35 28  1  0  0  0  0
 51 36  1  0  0  0  0
 99 92  1  0  0  0  0
107100  1  0  0  0  0
132116  1  0  0  0  0
 46 39  1  0  0  0  0
  1133  1  0  0  0  0
  6134  1  0  0  0  0
  9135  1  0  0  0  0
 17136  1  0  0  0  0
 18137  1  0  0  0  0
 19138  1  0  0  0  0
 20139  1  0  0  0  0
 21140  1  0  0  0  0
 22141  1  0  0  0  0
 22142  1  0  0  0  0
 23143  1  0  0  0  0
 25144  1  0  0  0  0
 29145  1  0  0  0  0
 30146  1  0  0  0  0
 33147  1  0  0  0  0
 33148  1  0  0  0  0
 34149  1  0  0  0  0
 34150  1  0  0  0  0
 34151  1  0  0  0  0
 40152  1  0  0  0  0
 41153  1  0  0  0  0
 44154  1  0  0  0  0
 44155  1  0  0  0  0
 45156  1  0  0  0  0
 45157  1  0  0  0  0
 45158  1  0  0  0  0
 49159  1  0  0  0  0
 56160  1  0  0  0  0
 56161  1  0  0  0  0
 57162  1  0  0  0  0
 57163  1  0  0  0  0
 57164  1  0  0  0  0
 65165  1  0  0  0  0
 65166  1  0  0  0  0
 66167  1  0  0  0  0
 66168  1  0  0  0  0
 66169  1  0  0  0  0
 72170  1  0  0  0  0
 73171  1  0  0  0  0
 76172  1  0  0  0  0
 76173  1  0  0  0  0
 76174  1  0  0  0  0
 77175  1  0  0  0  0
 78176  1  0  0  0  0
 80177  1  0  0  0  0
 81178  1  0  0  0  0
 84179  1  0  0  0  0
 84180  1  0  0  0  0
 84181  1  0  0  0  0
 85182  1  0  0  0  0
 86183  1  0  0  0  0
 93184  1  0  0  0  0
 94185  1  0  0  0  0
 97186  1  0  0  0  0
 97187  1  0  0  0  0
 97188  1  0  0  0  0
 98189  1  0  0  0  0
 99190  1  0  0  0  0
101191  1  0  0  0  0
102192  1  0  0  0  0
105193  1  0  0  0  0
105194  1  0  0  0  0
105195  1  0  0  0  0
106196  1  0  0  0  0
107197  1  0  0  0  0
110198  1  0  0  0  0
115199  1  0  0  0  0
118200  1  0  0  0  0
126201  1  0  0  0  0
127202  1  0  0  0  0
128203  1  0  0  0  0
129204  1  0  0  0  0
130205  1  0  0  0  0
131206  1  0  0  0  0
131207  1  0  0  0  0
132208  1  0  0  0  0
M  END
