
  xtb     02152200133D
 energy: -399.595551843701 gnorm: 0.000313504586 xtb: 6.4.1 (unknown)
241265  0     0  0            999 V2000
    3.0162   -3.9407   -7.2268 C   0  0  0  0  0  0  0  0  0  0  0  0
    2.3024   -4.9133   -7.8741 C   0  0  0  0  0  0  0  0  0  0  0  0
    2.8612   -5.5335   -9.0934 C   0  0  0  0  0  0  0  0  0  0  0  0
    3.9809   -5.3757   -9.5411 O   0  0  0  0  0  0  0  0  0  0  0  0
    1.7611   -6.3330   -9.6682 C   0  0  0  0  0  0  0  0  0  0  0  0
    1.7677   -7.0451  -10.8645 C   0  0  0  0  0  0  0  0  0  0  0  0
    0.5884   -7.6973  -11.1373 C   0  0  0  0  0  0  0  0  0  0  0  0
   -0.5221   -7.6417  -10.2860 C   0  0  0  0  0  0  0  0  0  0  0  0
   -0.5408   -6.9498   -9.0979 C   0  0  0  0  0  0  0  0  0  0  0  0
    0.6486   -6.2824   -8.8008 C   0  0  0  0  0  0  0  0  0  0  0  0
    1.0152   -5.5009   -7.6200 C   0  0  0  0  0  0  0  0  0  0  0  0
    0.3787   -5.5515   -6.4007 C   0  0  0  0  0  0  0  0  0  0  0  0
    0.9521   -5.0747   -5.2063 C   0  0  0  0  0  0  0  0  0  0  0  0
    1.4133   -4.7748   -4.1965 N   0  0  0  0  0  0  0  0  0  0  0  0
   -0.8564   -6.1830   -6.1788 C   0  0  0  0  0  0  0  0  0  0  0  0
   -1.8782   -6.6555   -5.9449 N   0  0  0  0  0  0  0  0  0  0  0  0
   -1.3504   -8.5344  -11.1753 C   0  0  0  0  0  0  0  0  0  0  0  0
   -1.5359  -10.0085  -10.7390 C   0  0  0  0  0  0  0  0  0  0  0  0
   -0.3371  -10.3577   -9.8921 C   0  0  0  0  0  0  0  0  0  0  0  0
    0.7193  -10.4177  -10.6919 C   0  0  0  0  0  0  0  0  0  0  0  0
    0.2538  -10.1105  -12.0938 C   0  0  0  0  0  0  0  0  0  0  0  0
   -1.1576  -10.7175  -12.0492 C   0  0  0  0  0  0  0  0  0  0  0  0
   -0.1091   -8.6047  -12.1198 C   0  0  0  0  0  0  0  0  0  0  0  0
    2.5433   -2.9614   -6.3396 C   0  0  0  0  0  0  0  0  0  0  0  0
    3.2147   -2.3507   -5.2672 C   0  0  0  0  0  0  0  0  0  0  0  0
    4.5267   -2.5094   -4.9231 N   0  0  0  0  0  0  0  0  0  0  0  0
    4.9176   -2.3220   -3.5796 C   0  0  0  0  0  0  0  0  0  0  0  0
    5.9736   -1.4678   -3.2852 C   0  0  0  0  0  0  0  0  0  0  0  0
    6.3311   -1.2223   -1.9738 C   0  0  0  0  0  0  0  0  0  0  0  0
    5.6365   -1.8383   -0.9404 C   0  0  0  0  0  0  0  0  0  0  0  0
    5.9562   -1.5598    0.7689 S   0  0  0  0  0  0  0  0  0  0  0  0
    7.2550   -0.2899    0.7744 C   0  0  0  0  0  0  0  0  0  0  0  0
    4.6105   -2.7353   -1.2387 C   0  0  0  0  0  0  0  0  0  0  0  0
    4.2488   -2.9769   -2.5454 C   0  0  0  0  0  0  0  0  0  0  0  0
    5.5179   -2.8090   -5.8680 C   0  0  0  0  0  0  0  0  0  0  0  0
    5.4996   -2.2196   -7.1314 C   0  0  0  0  0  0  0  0  0  0  0  0
    6.3997   -2.6150   -8.0997 C   0  0  0  0  0  0  0  0  0  0  0  0
    7.3389   -3.5985   -7.8136 C   0  0  0  0  0  0  0  0  0  0  0  0
    8.4228   -4.2405   -9.0487 S   0  0  0  0  0  0  0  0  0  0  0  0
    7.3405   -4.2208  -10.5116 C   0  0  0  0  0  0  0  0  0  0  0  0
    7.4267   -4.1109   -6.5217 C   0  0  0  0  0  0  0  0  0  0  0  0
    6.5243   -3.7225   -5.5558 C   0  0  0  0  0  0  0  0  0  0  0  0
    2.3107   -1.5673   -4.5090 C   0  0  0  0  0  0  0  0  0  0  0  0
    2.4597   -0.6840   -3.0363 S   0  0  0  0  0  0  0  0  0  0  0  0
    0.7894   -0.1706   -3.1463 C   0  0  0  0  0  0  0  0  0  0  0  0
    0.1722   -0.6036   -4.3026 C   0  0  0  0  0  0  0  0  0  0  0  0
   -1.0753   -0.1819   -4.6976 N   0  0  0  0  0  0  0  0  0  0  0  0
   -1.9163   -0.9654   -5.4910 C   0  0  0  0  0  0  0  0  0  0  0  0
   -2.7800   -0.3513   -6.3996 C   0  0  0  0  0  0  0  0  0  0  0  0
   -3.5863   -1.1127   -7.2161 C   0  0  0  0  0  0  0  0  0  0  0  0
   -3.5467   -2.5023   -7.1464 C   0  0  0  0  0  0  0  0  0  0  0  0
   -4.6020   -3.4040   -8.2422 S   0  0  0  0  0  0  0  0  0  0  0  0
   -3.7545   -5.0051   -8.3777 C   0  0  0  0  0  0  0  0  0  0  0  0
   -2.7181   -3.1166   -6.2186 C   0  0  0  0  0  0  0  0  0  0  0  0
   -1.9083   -2.3552   -5.3992 C   0  0  0  0  0  0  0  0  0  0  0  0
   -1.4754    1.1152   -4.3185 C   0  0  0  0  0  0  0  0  0  0  0  0
   -2.6816    1.3292   -3.6571 C   0  0  0  0  0  0  0  0  0  0  0  0
   -3.0631    2.6091   -3.3162 C   0  0  0  0  0  0  0  0  0  0  0  0
   -2.2564    3.6974   -3.6435 C   0  0  0  0  0  0  0  0  0  0  0  0
   -2.8476    5.2943   -3.1842 S   0  0  0  0  0  0  0  0  0  0  0  0
   -1.7684    6.4399   -4.0897 C   0  0  0  0  0  0  0  0  0  0  0  0
   -1.0514    3.4862   -4.3002 C   0  0  0  0  0  0  0  0  0  0  0  0
   -0.6657    2.2024   -4.6308 C   0  0  0  0  0  0  0  0  0  0  0  0
    1.0412   -1.4446   -5.0479 C   0  0  0  0  0  0  0  0  0  0  0  0
    0.8737   -2.3882   -6.4814 S   0  0  0  0  0  0  0  0  0  0  0  0
    0.2818    0.5384   -1.9679 C   0  0  0  0  0  0  0  0  0  0  0  0
    0.8297    1.7857   -1.6539 C   0  0  0  0  0  0  0  0  0  0  0  0
    2.0205    2.4835   -2.7784 S   0  0  0  0  0  0  0  0  0  0  0  0
    3.5181    2.3666   -1.7134 C   0  0  0  0  0  0  0  0  0  0  0  0
    4.7459    2.2750   -2.5948 C   0  0  0  0  0  0  0  0  0  0  0  0
    0.5361    2.4116   -0.4449 C   0  0  0  0  0  0  0  0  0  0  0  0
    1.1158    4.0192   -0.0113 S   0  0  0  0  0  0  0  0  0  0  0  0
    0.6469    5.0372   -1.4672 C   0  0  0  0  0  0  0  0  0  0  0  0
    1.8143    5.8665   -1.9622 C   0  0  0  0  0  0  0  0  0  0  0  0
   -0.1332    1.6945    0.5583 C   0  0  0  0  0  0  0  0  0  0  0  0
   -0.6567    0.4238    0.2787 C   0  0  0  0  0  0  0  0  0  0  0  0
   -0.5232   -0.1210   -1.0180 C   0  0  0  0  0  0  0  0  0  0  0  0
   -1.0919   -1.4441   -1.3667 C   0  0  0  0  0  0  0  0  0  0  0  0
   -1.2679   -1.8169   -2.5104 O   0  0  0  0  0  0  0  0  0  0  0  0
   -1.4401   -2.2907   -0.2277 C   0  0  0  0  0  0  0  0  0  0  0  0
   -1.5278   -1.7664    1.0891 C   0  0  0  0  0  0  0  0  0  0  0  0
   -1.2424   -0.3676    1.3963 C   0  0  0  0  0  0  0  0  0  0  0  0
   -1.4274    0.0715    2.5169 O   0  0  0  0  0  0  0  0  0  0  0  0
   -1.9212   -2.7130    1.9952 C   0  0  0  0  0  0  0  0  0  0  0  0
   -2.1668   -4.2405    1.2603 S   0  0  0  0  0  0  0  0  0  0  0  0
   -1.7648   -3.6158   -0.2844 C   0  0  0  0  0  0  0  0  0  0  0  0
   -0.0380    2.1538    1.9498 C   0  0  0  0  0  0  0  0  0  0  0  0
   -0.8471    2.8584    2.8093 C   0  0  0  0  0  0  0  0  0  0  0  0
   -2.0481    3.5000    2.5075 N   0  0  0  0  0  0  0  0  0  0  0  0
   -3.0442    3.4071    3.5008 C   0  0  0  0  0  0  0  0  0  0  0  0
   -3.3575    2.1579    4.0320 C   0  0  0  0  0  0  0  0  0  0  0  0
   -4.2289    2.0435    5.0967 C   0  0  0  0  0  0  0  0  0  0  0  0
   -4.8034    3.1805    5.6477 C   0  0  0  0  0  0  0  0  0  0  0  0
   -5.8748    3.1451    7.0555 S   0  0  0  0  0  0  0  0  0  0  0  0
   -5.4776    1.5537    7.8344 C   0  0  0  0  0  0  0  0  0  0  0  0
   -4.5423    4.4241    5.0803 C   0  0  0  0  0  0  0  0  0  0  0  0
   -3.6744    4.5393    4.0161 C   0  0  0  0  0  0  0  0  0  0  0  0
   -2.0764    4.6155    1.6533 C   0  0  0  0  0  0  0  0  0  0  0  0
   -3.2056    4.8332    0.8706 C   0  0  0  0  0  0  0  0  0  0  0  0
   -3.3044    5.9538    0.0705 C   0  0  0  0  0  0  0  0  0  0  0  0
   -2.2678    6.8766    0.0461 C   0  0  0  0  0  0  0  0  0  0  0  0
   -2.2710    8.3281   -0.9640 S   0  0  0  0  0  0  0  0  0  0  0  0
   -4.0014    8.4784   -1.4899 C   0  0  0  0  0  0  0  0  0  0  0  0
   -1.1358    6.6643    0.8302 C   0  0  0  0  0  0  0  0  0  0  0  0
   -1.0379    5.5436    1.6285 C   0  0  0  0  0  0  0  0  0  0  0  0
   -0.3780    2.7276    4.1457 C   0  0  0  0  0  0  0  0  0  0  0  0
   -0.9765    3.2843    5.6602 S   0  0  0  0  0  0  0  0  0  0  0  0
    0.2327    2.3321    6.5244 C   0  0  0  0  0  0  0  0  0  0  0  0
    1.1066    1.6820    5.6400 C   0  0  0  0  0  0  0  0  0  0  0  0
    2.1280    0.8396    5.9975 N   0  0  0  0  0  0  0  0  0  0  0  0
    2.3862   -0.2563    5.1524 C   0  0  0  0  0  0  0  0  0  0  0  0
    1.3179   -0.9876    4.6362 C   0  0  0  0  0  0  0  0  0  0  0  0
    1.5348   -2.0186    3.7457 C   0  0  0  0  0  0  0  0  0  0  0  0
    2.8291   -2.3405    3.3610 C   0  0  0  0  0  0  0  0  0  0  0  0
    3.1995   -3.6243    2.2090 S   0  0  0  0  0  0  0  0  0  0  0  0
    1.6432   -3.8072    1.2848 C   0  0  0  0  0  0  0  0  0  0  0  0
    3.9033   -1.6451    3.9121 C   0  0  0  0  0  0  0  0  0  0  0  0
    3.6865   -0.6119    4.7979 C   0  0  0  0  0  0  0  0  0  0  0  0
    2.9217    1.0681    7.1326 C   0  0  0  0  0  0  0  0  0  0  0  0
    3.4380   -0.0071    7.8487 C   0  0  0  0  0  0  0  0  0  0  0  0
    4.2267    0.2029    8.9636 C   0  0  0  0  0  0  0  0  0  0  0  0
    4.5034    1.4963    9.3847 C   0  0  0  0  0  0  0  0  0  0  0  0
    5.4956    1.8876   10.7893 S   0  0  0  0  0  0  0  0  0  0  0  0
    5.7304    0.2868   11.6146 C   0  0  0  0  0  0  0  0  0  0  0  0
    3.9910    2.5751    8.6640 C   0  0  0  0  0  0  0  0  0  0  0  0
    3.2139    2.3685    7.5480 C   0  0  0  0  0  0  0  0  0  0  0  0
    0.7432    1.9343    4.2975 C   0  0  0  0  0  0  0  0  0  0  0  0
    1.3358    1.4147    2.7611 S   0  0  0  0  0  0  0  0  0  0  0  0
    0.0842    2.0627    7.8955 C   0  0  0  0  0  0  0  0  0  0  0  0
   -0.8223    2.6229    8.7511 C   0  0  0  0  0  0  0  0  0  0  0  0
   -1.3478    1.8589    9.9052 C   0  0  0  0  0  0  0  0  0  0  0  0
   -0.8657    0.8673   10.4106 O   0  0  0  0  0  0  0  0  0  0  0  0
   -2.6306    2.5142   10.2453 C   0  0  0  0  0  0  0  0  0  0  0  0
   -3.5915    2.0750   11.1537 C   0  0  0  0  0  0  0  0  0  0  0  0
   -4.7159    2.8651   11.2065 C   0  0  0  0  0  0  0  0  0  0  0  0
   -4.8812    4.0086   10.4139 C   0  0  0  0  0  0  0  0  0  0  0  0
   -3.9396    4.4620    9.5206 C   0  0  0  0  0  0  0  0  0  0  0  0
   -2.7893    3.6738    9.4562 C   0  0  0  0  0  0  0  0  0  0  0  0
   -1.5899    3.8395    8.6421 C   0  0  0  0  0  0  0  0  0  0  0  0
   -1.1356    5.0172    8.1022 C   0  0  0  0  0  0  0  0  0  0  0  0
   -1.8776    6.2112    8.0705 C   0  0  0  0  0  0  0  0  0  0  0  0
   -2.4517    7.2040    8.0074 N   0  0  0  0  0  0  0  0  0  0  0  0
    0.1755    5.1436    7.6000 C   0  0  0  0  0  0  0  0  0  0  0  0
    1.2575    5.2706    7.2360 N   0  0  0  0  0  0  0  0  0  0  0  0
   -6.2557    4.2921   10.9661 C   0  0  0  0  0  0  0  0  0  0  0  0
   -6.3604    5.4282   12.0045 C   0  0  0  0  0  0  0  0  0  0  0  0
   -7.6714    5.1589   12.7068 C   0  0  0  0  0  0  0  0  0  0  0  0
   -7.5095    4.0823   13.4654 C   0  0  0  0  0  0  0  0  0  0  0  0
   -6.0861    3.6050   13.2874 C   0  0  0  0  0  0  0  0  0  0  0  0
   -5.3798    4.9514   13.0840 C   0  0  0  0  0  0  0  0  0  0  0  0
   -6.0683    3.0226   11.8583 C   0  0  0  0  0  0  0  0  0  0  0  0
    4.0656   -3.9155   -7.4963 H   0  0  0  0  0  0  0  0  0  0  0  0
    2.6446   -7.0666  -11.4926 H   0  0  0  0  0  0  0  0  0  0  0  0
   -1.4001   -6.9223   -8.4483 H   0  0  0  0  0  0  0  0  0  0  0  0
   -2.2663   -8.0988  -11.5701 H   0  0  0  0  0  0  0  0  0  0  0  0
   -2.5086  -10.2336  -10.3097 H   0  0  0  0  0  0  0  0  0  0  0  0
   -0.3695  -10.4640   -8.8236 H   0  0  0  0  0  0  0  0  0  0  0  0
    1.7464  -10.5846  -10.4247 H   0  0  0  0  0  0  0  0  0  0  0  0
    0.9109  -10.4303  -12.8984 H   0  0  0  0  0  0  0  0  0  0  0  0
   -1.7811  -10.4289  -12.8944 H   0  0  0  0  0  0  0  0  0  0  0  0
   -1.1469  -11.8021  -11.9532 H   0  0  0  0  0  0  0  0  0  0  0  0
   -0.2165   -8.2221  -13.1331 H   0  0  0  0  0  0  0  0  0  0  0  0
    6.5070   -0.9825   -4.0897 H   0  0  0  0  0  0  0  0  0  0  0  0
    7.1447   -0.5440   -1.7750 H   0  0  0  0  0  0  0  0  0  0  0  0
    8.1605   -0.6757    0.3154 H   0  0  0  0  0  0  0  0  0  0  0  0
    7.4401   -0.0684    1.8209 H   0  0  0  0  0  0  0  0  0  0  0  0
    6.9020    0.6035    0.2679 H   0  0  0  0  0  0  0  0  0  0  0  0
    4.1062   -3.2331   -0.4259 H   0  0  0  0  0  0  0  0  0  0  0  0
    3.4483   -3.6631   -2.7797 H   0  0  0  0  0  0  0  0  0  0  0  0
    4.7581   -1.4673   -7.3582 H   0  0  0  0  0  0  0  0  0  0  0  0
    6.3559   -2.1654   -9.0786 H   0  0  0  0  0  0  0  0  0  0  0  0
    7.7832   -4.9163  -11.2176 H   0  0  0  0  0  0  0  0  0  0  0  0
    6.3484   -4.5584  -10.2251 H   0  0  0  0  0  0  0  0  0  0  0  0
    7.3095   -3.2272  -10.9495 H   0  0  0  0  0  0  0  0  0  0  0  0
    8.1842   -4.8455   -6.2979 H   0  0  0  0  0  0  0  0  0  0  0  0
    6.5630   -4.1539   -4.5669 H   0  0  0  0  0  0  0  0  0  0  0  0
   -2.8064    0.7262   -6.4695 H   0  0  0  0  0  0  0  0  0  0  0  0
   -4.2480   -0.6390   -7.9251 H   0  0  0  0  0  0  0  0  0  0  0  0
   -4.2406   -5.5311   -9.1934 H   0  0  0  0  0  0  0  0  0  0  0  0
   -3.8546   -5.5761   -7.4592 H   0  0  0  0  0  0  0  0  0  0  0  0
   -2.7095   -4.8287   -8.6163 H   0  0  0  0  0  0  0  0  0  0  0  0
   -2.7081   -4.1889   -6.1114 H   0  0  0  0  0  0  0  0  0  0  0  0
   -1.2996   -2.8373   -4.6518 H   0  0  0  0  0  0  0  0  0  0  0  0
   -3.3114    0.4848   -3.4211 H   0  0  0  0  0  0  0  0  0  0  0  0
   -3.9943    2.7835   -2.7992 H   0  0  0  0  0  0  0  0  0  0  0  0
   -0.7581    6.3932   -3.6958 H   0  0  0  0  0  0  0  0  0  0  0  0
   -1.7951    6.2060   -5.1498 H   0  0  0  0  0  0  0  0  0  0  0  0
   -2.1765    7.4304   -3.9157 H   0  0  0  0  0  0  0  0  0  0  0  0
   -0.4104    4.3081   -4.5761 H   0  0  0  0  0  0  0  0  0  0  0  0
    0.2698    2.0429   -5.1456 H   0  0  0  0  0  0  0  0  0  0  0  0
    3.5488    3.2448   -1.0692 H   0  0  0  0  0  0  0  0  0  0  0  0
    3.4008    1.4690   -1.1068 H   0  0  0  0  0  0  0  0  0  0  0  0
    5.6384    2.2368   -1.9741 H   0  0  0  0  0  0  0  0  0  0  0  0
    4.7066    1.3755   -3.2053 H   0  0  0  0  0  0  0  0  0  0  0  0
    4.8149    3.1409   -3.2495 H   0  0  0  0  0  0  0  0  0  0  0  0
   -0.1629    5.6740   -1.1104 H   0  0  0  0  0  0  0  0  0  0  0  0
    0.2708    4.3574   -2.2273 H   0  0  0  0  0  0  0  0  0  0  0  0
    2.5769    5.2344   -2.4102 H   0  0  0  0  0  0  0  0  0  0  0  0
    2.2564    6.4251   -1.1407 H   0  0  0  0  0  0  0  0  0  0  0  0
    1.4711    6.5779   -2.7109 H   0  0  0  0  0  0  0  0  0  0  0  0
   -2.0771   -2.5792    3.0477 H   0  0  0  0  0  0  0  0  0  0  0  0
   -1.7771   -4.2468   -1.1508 H   0  0  0  0  0  0  0  0  0  0  0  0
   -2.8844    1.2779    3.6238 H   0  0  0  0  0  0  0  0  0  0  0  0
   -4.4439    1.0642    5.4938 H   0  0  0  0  0  0  0  0  0  0  0  0
   -4.3998    1.4521    7.9211 H   0  0  0  0  0  0  0  0  0  0  0  0
   -5.9068    0.7347    7.2643 H   0  0  0  0  0  0  0  0  0  0  0  0
   -5.9240    1.5867    8.8232 H   0  0  0  0  0  0  0  0  0  0  0  0
   -5.0027    5.3037    5.5031 H   0  0  0  0  0  0  0  0  0  0  0  0
   -3.4508    5.5138    3.6088 H   0  0  0  0  0  0  0  0  0  0  0  0
   -4.0157    4.1200    0.9043 H   0  0  0  0  0  0  0  0  0  0  0  0
   -4.1869    6.0910   -0.5314 H   0  0  0  0  0  0  0  0  0  0  0  0
   -4.0714    9.4313   -2.0055 H   0  0  0  0  0  0  0  0  0  0  0  0
   -4.2596    7.6687   -2.1668 H   0  0  0  0  0  0  0  0  0  0  0  0
   -4.6457    8.4817   -0.6160 H   0  0  0  0  0  0  0  0  0  0  0  0
   -0.3437    7.3983    0.8220 H   0  0  0  0  0  0  0  0  0  0  0  0
   -0.1711    5.3974    2.2552 H   0  0  0  0  0  0  0  0  0  0  0  0
    0.3076   -0.7366    4.9240 H   0  0  0  0  0  0  0  0  0  0  0  0
    0.6875   -2.5630    3.3607 H   0  0  0  0  0  0  0  0  0  0  0  0
    1.2940   -2.8272    0.9719 H   0  0  0  0  0  0  0  0  0  0  0  0
    0.8997   -4.3171    1.8909 H   0  0  0  0  0  0  0  0  0  0  0  0
    1.8781   -4.4130    0.4149 H   0  0  0  0  0  0  0  0  0  0  0  0
    4.9053   -1.9117    3.6144 H   0  0  0  0  0  0  0  0  0  0  0  0
    4.5198   -0.0587    5.2040 H   0  0  0  0  0  0  0  0  0  0  0  0
    3.2151   -1.0162    7.5344 H   0  0  0  0  0  0  0  0  0  0  0  0
    4.6113   -0.6524    9.4949 H   0  0  0  0  0  0  0  0  0  0  0  0
    4.7641   -0.1642   11.8195 H   0  0  0  0  0  0  0  0  0  0  0  0
    6.3512   -0.3643   11.0058 H   0  0  0  0  0  0  0  0  0  0  0  0
    6.2390    0.5111   12.5470 H   0  0  0  0  0  0  0  0  0  0  0  0
    4.2137    3.5794    8.9885 H   0  0  0  0  0  0  0  0  0  0  0  0
    2.8230    3.2150    7.0047 H   0  0  0  0  0  0  0  0  0  0  0  0
    0.6290    1.2064    8.2784 H   0  0  0  0  0  0  0  0  0  0  0  0
   -3.4345    1.1835   11.7409 H   0  0  0  0  0  0  0  0  0  0  0  0
   -4.0788    5.3309    8.8991 H   0  0  0  0  0  0  0  0  0  0  0  0
   -7.0618    4.3026   10.2348 H   0  0  0  0  0  0  0  0  0  0  0  0
   -6.2159    6.4266   11.6015 H   0  0  0  0  0  0  0  0  0  0  0  0
   -8.5682    5.7271   12.5425 H   0  0  0  0  0  0  0  0  0  0  0  0
   -8.2435    3.5715   14.0610 H   0  0  0  0  0  0  0  0  0  0  0  0
   -5.6926    2.9430   14.0545 H   0  0  0  0  0  0  0  0  0  0  0  0
   -5.4153    5.5734   13.9770 H   0  0  0  0  0  0  0  0  0  0  0  0
   -4.3506    4.8655   12.7408 H   0  0  0  0  0  0  0  0  0  0  0  0
   -6.7587    2.1896   11.7325 H   0  0  0  0  0  0  0  0  0  0  0  0
  1  2  2  0  0  0  0
  2  3  1  0  0  0  0
  3  4  2  0  0  0  0
  3  5  1  0  0  0  0
  5  6  2  0  0  0  0
  6  7  1  0  0  0  0
  7  8  2  0  0  0  0
  8  9  1  0  0  0  0
  9 10  2  0  0  0  0
 10 11  1  0  0  0  0
 11 12  2  0  0  0  0
 12 13  1  0  0  0  0
 13 14  3  0  0  0  0
 12 15  1  0  0  0  0
 15 16  3  0  0  0  0
  8 17  1  0  0  0  0
 17 18  1  0  0  0  0
 18 19  1  0  0  0  0
 19 20  2  0  0  0  0
 20 21  1  0  0  0  0
 21 22  1  0  0  0  0
 21 23  1  0  0  0  0
  1 24  1  0  0  0  0
 24 25  2  0  0  0  0
 25 26  1  0  0  0  0
 26 27  1  0  0  0  0
 27 28  2  0  0  0  0
 28 29  1  0  0  0  0
 29 30  2  0  0  0  0
 30 31  1  0  0  0  0
 31 32  1  0  0  0  0
 30 33  1  0  0  0  0
 33 34  2  0  0  0  0
 26 35  1  0  0  0  0
 35 36  2  0  0  0  0
 36 37  1  0  0  0  0
 37 38  2  0  0  0  0
 38 39  1  0  0  0  0
 39 40  1  0  0  0  0
 38 41  1  0  0  0  0
 41 42  2  0  0  0  0
 25 43  1  0  0  0  0
 43 44  1  0  0  0  0
 44 45  1  0  0  0  0
 45 46  2  0  0  0  0
 46 47  1  0  0  0  0
 47 48  1  0  0  0  0
 48 49  2  0  0  0  0
 49 50  1  0  0  0  0
 50 51  2  0  0  0  0
 51 52  1  0  0  0  0
 52 53  1  0  0  0  0
 51 54  1  0  0  0  0
 54 55  2  0  0  0  0
 47 56  1  0  0  0  0
 56 57  2  0  0  0  0
 57 58  1  0  0  0  0
 58 59  2  0  0  0  0
 59 60  1  0  0  0  0
 60 61  1  0  0  0  0
 59 62  1  0  0  0  0
 62 63  2  0  0  0  0
 46 64  1  0  0  0  0
 64 65  1  0  0  0  0
 45 66  1  0  0  0  0
 66 67  2  0  0  0  0
 67 68  1  0  0  0  0
 68 69  1  0  0  0  0
 69 70  1  0  0  0  0
 67 71  1  0  0  0  0
 71 72  1  0  0  0  0
 72 73  1  0  0  0  0
 73 74  1  0  0  0  0
 71 75  2  0  0  0  0
 75 76  1  0  0  0  0
 76 77  2  0  0  0  0
 77 78  1  0  0  0  0
 78 79  2  0  0  0  0
 78 80  1  0  0  0  0
 80 81  1  0  0  0  0
 81 82  1  0  0  0  0
 82 83  2  0  0  0  0
 81 84  2  0  0  0  0
 84 85  1  0  0  0  0
 85 86  1  0  0  0  0
 75 87  1  0  0  0  0
 87 88  2  0  0  0  0
 88 89  1  0  0  0  0
 89 90  1  0  0  0  0
 90 91  2  0  0  0  0
 91 92  1  0  0  0  0
 92 93  2  0  0  0  0
 93 94  1  0  0  0  0
 94 95  1  0  0  0  0
 93 96  1  0  0  0  0
 96 97  2  0  0  0  0
 89 98  1  0  0  0  0
 98 99  2  0  0  0  0
 99100  1  0  0  0  0
100101  2  0  0  0  0
101102  1  0  0  0  0
102103  1  0  0  0  0
101104  1  0  0  0  0
104105  2  0  0  0  0
 88106  1  0  0  0  0
106107  1  0  0  0  0
107108  1  0  0  0  0
108109  2  0  0  0  0
109110  1  0  0  0  0
110111  1  0  0  0  0
111112  2  0  0  0  0
112113  1  0  0  0  0
113114  2  0  0  0  0
114115  1  0  0  0  0
115116  1  0  0  0  0
114117  1  0  0  0  0
117118  2  0  0  0  0
110119  1  0  0  0  0
119120  2  0  0  0  0
120121  1  0  0  0  0
121122  2  0  0  0  0
122123  1  0  0  0  0
123124  1  0  0  0  0
122125  1  0  0  0  0
125126  2  0  0  0  0
109127  1  0  0  0  0
127128  1  0  0  0  0
108129  1  0  0  0  0
129130  2  0  0  0  0
130131  1  0  0  0  0
131132  2  0  0  0  0
131133  1  0  0  0  0
133134  2  0  0  0  0
134135  1  0  0  0  0
135136  2  0  0  0  0
136137  1  0  0  0  0
137138  2  0  0  0  0
138139  1  0  0  0  0
139140  2  0  0  0  0
140141  1  0  0  0  0
141142  3  0  0  0  0
140143  1  0  0  0  0
143144  3  0  0  0  0
136145  1  0  0  0  0
145146  1  0  0  0  0
146147  1  0  0  0  0
147148  2  0  0  0  0
148149  1  0  0  0  0
149150  1  0  0  0  0
149151  1  0  0  0  0
 11  2  1  0  0  0  0
 23 17  1  0  0  0  0
 65 24  1  0  0  0  0
 77 66  1  0  0  0  0
 86 80  2  0  0  0  0
128 87  1  0  0  0  0
139130  1  0  0  0  0
151145  1  0  0  0  0
 10  5  1  0  0  0  0
 22 18  1  0  0  0  0
 34 27  1  0  0  0  0
 42 35  1  0  0  0  0
 64 43  2  0  0  0  0
 82 76  1  0  0  0  0
 97 90  1  0  0  0  0
105 98  1  0  0  0  0
127106  2  0  0  0  0
138133  1  0  0  0  0
150146  1  0  0  0  0
 23  7  1  0  0  0  0
 55 48  1  0  0  0  0
 63 56  1  0  0  0  0
118111  1  0  0  0  0
126119  1  0  0  0  0
151135  1  0  0  0  0
  1152  1  0  0  0  0
  6153  1  0  0  0  0
  9154  1  0  0  0  0
 17155  1  0  0  0  0
 18156  1  0  0  0  0
 19157  1  0  0  0  0
 20158  1  0  0  0  0
 21159  1  0  0  0  0
 22160  1  0  0  0  0
 22161  1  0  0  0  0
 23162  1  0  0  0  0
 28163  1  0  0  0  0
 29164  1  0  0  0  0
 32165  1  0  0  0  0
 32166  1  0  0  0  0
 32167  1  0  0  0  0
 33168  1  0  0  0  0
 34169  1  0  0  0  0
 36170  1  0  0  0  0
 37171  1  0  0  0  0
 40172  1  0  0  0  0
 40173  1  0  0  0  0
 40174  1  0  0  0  0
 41175  1  0  0  0  0
 42176  1  0  0  0  0
 49177  1  0  0  0  0
 50178  1  0  0  0  0
 53179  1  0  0  0  0
 53180  1  0  0  0  0
 53181  1  0  0  0  0
 54182  1  0  0  0  0
 55183  1  0  0  0  0
 57184  1  0  0  0  0
 58185  1  0  0  0  0
 61186  1  0  0  0  0
 61187  1  0  0  0  0
 61188  1  0  0  0  0
 62189  1  0  0  0  0
 63190  1  0  0  0  0
 69191  1  0  0  0  0
 69192  1  0  0  0  0
 70193  1  0  0  0  0
 70194  1  0  0  0  0
 70195  1  0  0  0  0
 73196  1  0  0  0  0
 73197  1  0  0  0  0
 74198  1  0  0  0  0
 74199  1  0  0  0  0
 74200  1  0  0  0  0
 84201  1  0  0  0  0
 86202  1  0  0  0  0
 91203  1  0  0  0  0
 92204  1  0  0  0  0
 95205  1  0  0  0  0
 95206  1  0  0  0  0
 95207  1  0  0  0  0
 96208  1  0  0  0  0
 97209  1  0  0  0  0
 99210  1  0  0  0  0
100211  1  0  0  0  0
103212  1  0  0  0  0
103213  1  0  0  0  0
103214  1  0  0  0  0
104215  1  0  0  0  0
105216  1  0  0  0  0
112217  1  0  0  0  0
113218  1  0  0  0  0
116219  1  0  0  0  0
116220  1  0  0  0  0
116221  1  0  0  0  0
117222  1  0  0  0  0
118223  1  0  0  0  0
120224  1  0  0  0  0
121225  1  0  0  0  0
124226  1  0  0  0  0
124227  1  0  0  0  0
124228  1  0  0  0  0
125229  1  0  0  0  0
126230  1  0  0  0  0
129231  1  0  0  0  0
134232  1  0  0  0  0
137233  1  0  0  0  0
145234  1  0  0  0  0
146235  1  0  0  0  0
147236  1  0  0  0  0
148237  1  0  0  0  0
149238  1  0  0  0  0
150239  1  0  0  0  0
150240  1  0  0  0  0
151241  1  0  0  0  0
M  END
