194

C         -0.61970       -6.27660        4.81810
C         -1.31630       -7.36390        4.33960
C         -2.29480       -7.37490        3.25320
O         -2.81150       -6.41580        2.69900
C         -2.57250       -8.78960        2.95550
C         -3.42140       -9.28920        1.97050
C         -3.46040      -10.66180        1.91250
C         -2.71420      -11.47610        2.77380
C         -1.88190      -10.99480        3.75760
C         -1.82370       -9.60060        3.83160
C         -1.08770       -8.73030        4.74970
C         -0.33720       -9.15800        5.81920
C         -0.01730      -10.50500        6.07810
N          0.31740      -11.57710        6.31980
C          0.17930       -8.32520        6.82980
N          0.58100       -7.71900        7.72060
C         -3.22270      -12.74820        2.14180
C         -2.25880      -13.47030        1.17660
C         -3.16450      -14.36890        0.36580
C         -3.87340      -13.59810       -0.44900
C         -3.45860      -12.16550       -0.20280
C         -1.97790      -12.37500        0.13960
C         -4.05660      -11.83960        1.18230
C         -0.61790       -4.94550        4.40390
C          0.24690       -3.95410        4.93330
N          1.27150       -4.16000        5.82080
C          2.08250       -5.30730        5.80830
C          2.39110       -5.95430        4.61310
C          3.14900       -7.10730        4.61510
C          3.63550       -7.62010        5.81260
S          4.59110       -9.09730        5.92920
C          4.24250       -9.94980        4.36360
C          3.37980       -6.94110        7.00090
C          2.60320       -5.80380        7.00350
C          1.59550       -3.11860        6.71190
C          2.92240       -2.74400        6.92020
C          3.22040       -1.71490        7.78320
C          2.20440       -1.03500        8.45530
S          2.71130        0.27120        9.52300
C          1.15100        1.02270       10.06790
C          0.88330       -1.41660        8.26140
C          0.58480       -2.45190        7.39790
C         -0.06750       -2.68540        4.40970
S          0.60790       -1.09900        4.61700
C         -0.52320       -0.45840        3.44060
C         -1.33040       -1.43260        2.87570
N         -2.21820       -1.20530        1.83770
C         -3.31780       -2.06110        1.68010
C         -4.03190       -2.49570        2.79490
C         -5.03980       -3.42840        2.65890
C         -5.35330       -3.93110        1.40470
S         -6.56480       -5.20390        1.19240
C         -6.15500       -6.28340        2.59960
C         -4.70170       -3.43800        0.28070
C         -3.68990       -2.51260        0.41480
C         -1.90100       -0.28890        0.81630
C         -2.88200        0.56180        0.31590
C         -2.57980        1.49700       -0.65470
C         -1.28630        1.59180       -1.15000
S         -0.76710        2.76290       -2.36710
C         -2.23010        3.79700       -2.64410
C         -0.31030        0.71520       -0.68170
C         -0.61260       -0.21480        0.28870
C         -1.08230       -2.69930        3.46280
S         -1.72880       -4.27760        3.20240
C         -0.54500        0.92860        3.07340
C         -1.64470        1.76300        3.05200
C         -2.96040        1.47070        3.69710
C         -2.81730        1.27740        5.20640
N         -1.45560        2.92890        2.41400
C         -0.25870        3.04990        1.92860
S          0.81000        1.71290        2.31490
C          0.11830        4.05570        0.99840
C         -0.68220        5.06510        0.54050
C         -0.14320        5.74960       -0.57240
C         -0.78760        6.73610       -1.35690
C         -2.04660        7.33150       -0.96770
C         -3.08310        7.70200       -1.77950
C         -4.16500        8.34450       -1.14850
C         -4.02140        8.53950        0.19600
S         -5.18540        9.40120        1.17520
C         -4.66730        8.94230        2.86630
C         -5.03840        7.51510        3.21430
Se        -2.37660        7.86250        0.81340
C         -0.13940        7.09900       -2.53130
C          1.11770        6.56490       -2.91550
C          1.76300        5.57210       -2.13820
C          2.92980        4.87980       -2.61160
C          3.91170        4.28010       -1.86370
C          4.86710        3.54340       -2.57650
C          4.66240        3.49390       -3.92980
S          5.68490        2.58840       -5.01830
C          5.08770        3.15630       -6.64990
C          5.61690        4.53250       -7.00080
Se         3.15440        4.47990       -4.44640
C          1.10870        5.21190       -0.96200
S          1.61170        3.93650        0.11210
C          1.58160        7.12010       -4.11820
C          0.69680        7.98240       -4.71900
S         -0.72170        8.24160       -3.71350
C          0.81450        8.61670       -5.97230
C          1.52940        8.13750       -7.03910
C          1.97100        6.73860       -7.23740
O          1.96620        5.80880       -6.44750
C          2.34860        6.63540       -8.65660
C          2.77390        5.48460       -9.31720
C          3.07150        5.67950      -10.64400
C          2.94660        6.92670      -11.27170
C          2.52070        8.06760      -10.63320
C          2.21610        7.89140       -9.28070
C          1.74080        8.84860       -8.28630
C          1.60210       10.19890       -8.47480
C          1.24760       11.12170       -7.46730
N          0.99050       11.93720       -6.70100
C          1.83430       10.86060       -9.69830
N          1.99930       11.45810      -10.66470
C          3.39560        6.38820      -12.60690
C          2.31120        6.12310      -13.68040
C          1.02760        5.85060      -12.93610
C          1.14680        4.67110      -12.34140
C          2.51350        4.12440      -12.67310
C          2.69580        4.69230      -14.08970
C          3.53660        4.99950      -11.90720
H          0.07170       -6.48550        5.62370
H         -3.97910       -8.62550        1.32810
H         -1.32090      -11.63650        4.41630
H         -3.75140      -13.43030        2.80480
H         -1.40350      -13.93990        1.65470
H         -3.23390      -15.43200        0.50330
H         -4.65340      -13.88850       -1.12810
H         -3.69610      -11.44630       -0.98210
H         -1.40800      -12.74870       -0.70950
H         -1.48770      -11.49280        0.54720
H         -5.14210      -11.91540        1.20600
H          2.02210       -5.55910        3.67800
H          3.36450       -7.59110        3.67580
H          4.73810       -9.44870        3.53690
H          4.64610      -10.95060        4.47990
H          3.16870      -10.00150        4.20960
H          3.76760       -7.33530        7.92640
H          2.37580       -5.30880        7.93410
H          3.71200       -3.25850        6.39390
H          4.24470       -1.41520        7.94160
H          1.43550        1.88250       10.66650
H          0.58910        0.32130       10.67780
H          0.57760        1.34710        9.20460
H          0.07730       -0.92370        8.78010
H         -0.44300       -2.75320        7.25680
H         -3.78490       -2.10930        3.77340
H         -5.57140       -3.76750        3.53400
H         -6.62930       -5.92300        3.50800
H         -6.53920       -7.26860        2.35370
H         -5.07430       -6.30990        2.70510
H         -4.97220       -3.81350       -0.69400
H         -3.15600       -2.16170       -0.45570
H         -3.88990        0.49430        0.69730
H         -3.36020        2.15130       -1.00730
H         -3.02790        3.20570       -3.08400
H         -1.91200        4.56480       -3.34300
H         -2.54270        4.25560       -1.71030
H          0.69040        0.78030       -1.08130
H          0.15280       -0.88650        0.64900
H         -3.62270        2.31110        3.48870
H         -3.39520        0.57100        3.25690
H         -2.39550        2.16930        5.66410
H         -3.79000        1.08550        5.65260
H         -2.16250        0.43640        5.42440
H         -1.65630        5.23770        0.96440
H         -3.10100        7.47150       -2.83110
H         -5.04520        8.66130       -1.68040
H         -5.17860        9.65410        3.51350
H         -3.58770        9.10930        2.93200
H         -4.74020        7.29530        4.23720
H         -4.53310        6.81320        2.55050
H         -6.11210        7.36930        3.12140
H          3.98200        4.41240       -0.79700
H          5.69520        3.04480       -2.10300
H          3.99370        3.14110       -6.61740
H          5.44140        2.40300       -7.35350
H          6.70400        4.54200       -6.96810
H          5.29190        4.81400       -8.00060
H          5.23830        5.27490       -6.29730
H          2.57270        6.96880       -4.50420
H          0.23470        9.52220       -6.10260
H          2.84540        4.54280       -8.79560
H          2.42070        9.01690      -11.13240
H          4.29160        6.84170      -13.02590
H          2.26110        6.87270      -14.46540
H          0.21210        6.54710      -12.87410
H          0.45100        4.18520      -11.68270
H          2.64730        3.05380      -12.54170
H          2.00250        4.25940      -14.80910
H          3.71520        4.60690      -14.46370
H          4.52530        4.54580      -11.87030
