
  xtb     02162217423D
 energy: -420.269443231610 gnorm: 0.000448875268 xtb: 6.4.1 (unknown)
258284  0     0  0            999 V2000
   -6.6810    6.2661    0.1613 C   0  0  0  0  0  0  0  0  0  0  0  0
   -7.2523    6.8871   -0.9273 C   0  0  0  0  0  0  0  0  0  0  0  0
   -7.0781    6.5197   -2.3324 C   0  0  0  0  0  0  0  0  0  0  0  0
   -6.3730    5.6341   -2.7938 O   0  0  0  0  0  0  0  0  0  0  0  0
   -7.9715    7.4007   -3.1060 C   0  0  0  0  0  0  0  0  0  0  0  0
   -8.1199    7.4472   -4.4895 C   0  0  0  0  0  0  0  0  0  0  0  0
   -9.0377    8.3739   -4.9235 C   0  0  0  0  0  0  0  0  0  0  0  0
   -9.7559    9.1949   -4.0458 C   0  0  0  0  0  0  0  0  0  0  0  0
   -9.6126    9.1645   -2.6781 C   0  0  0  0  0  0  0  0  0  0  0  0
   -8.6833    8.2301   -2.2161 C   0  0  0  0  0  0  0  0  0  0  0  0
   -8.2409    7.9356   -0.8530 C   0  0  0  0  0  0  0  0  0  0  0  0
   -8.7073    8.5607    0.2793 C   0  0  0  0  0  0  0  0  0  0  0  0
   -9.7622    9.4945    0.3044 C   0  0  0  0  0  0  0  0  0  0  0  0
  -10.6264   10.2419    0.4271 N   0  0  0  0  0  0  0  0  0  0  0  0
   -8.2124    8.3903    1.5853 C   0  0  0  0  0  0  0  0  0  0  0  0
   -7.8635    8.3526    2.6812 N   0  0  0  0  0  0  0  0  0  0  0  0
  -10.4868    9.8904   -5.1670 C   0  0  0  0  0  0  0  0  0  0  0  0
  -10.0172   11.3123   -5.5616 C   0  0  0  0  0  0  0  0  0  0  0  0
   -8.5596   11.4028   -5.1834 C   0  0  0  0  0  0  0  0  0  0  0  0
   -7.8768   10.6265   -6.0142 C   0  0  0  0  0  0  0  0  0  0  0  0
   -8.8604    9.9972   -6.9695 C   0  0  0  0  0  0  0  0  0  0  0  0
   -9.8913   11.1316   -7.0829 C   0  0  0  0  0  0  0  0  0  0  0  0
   -9.6839    8.9765   -6.1458 C   0  0  0  0  0  0  0  0  0  0  0  0
   -5.7497    5.2330    0.2338 C   0  0  0  0  0  0  0  0  0  0  0  0
   -5.3451    4.6342    1.4538 C   0  0  0  0  0  0  0  0  0  0  0  0
   -5.9793    4.7705    2.6562 N   0  0  0  0  0  0  0  0  0  0  0  0
   -5.2305    4.5540    3.8302 C   0  0  0  0  0  0  0  0  0  0  0  0
   -5.6778    3.6611    4.8021 C   0  0  0  0  0  0  0  0  0  0  0  0
   -4.9239    3.4475    5.9340 C   0  0  0  0  0  0  0  0  0  0  0  0
   -3.7161    4.1207    6.1174 C   0  0  0  0  0  0  0  0  0  0  0  0
   -2.8221    3.7616    7.5933 S   0  0  0  0  0  0  0  0  0  0  0  0
   -1.5596    5.0648    7.6636 C   0  0  0  0  0  0  0  0  0  0  0  0
   -3.2722    5.0139    5.1518 C   0  0  0  0  0  0  0  0  0  0  0  0
   -4.0289    5.2293    4.0171 C   0  0  0  0  0  0  0  0  0  0  0  0
   -7.3665    4.9640    2.7722 C   0  0  0  0  0  0  0  0  0  0  0  0
   -8.2505    4.4104    1.8446 C   0  0  0  0  0  0  0  0  0  0  0  0
   -9.5969    4.6727    1.9314 C   0  0  0  0  0  0  0  0  0  0  0  0
  -10.0946    5.4779    2.9555 C   0  0  0  0  0  0  0  0  0  0  0  0
  -11.8254    5.8203    2.9364 S   0  0  0  0  0  0  0  0  0  0  0  0
  -11.9511    7.3328    3.9326 C   0  0  0  0  0  0  0  0  0  0  0  0
   -9.2284    5.9660    3.9224 C   0  0  0  0  0  0  0  0  0  0  0  0
   -7.8726    5.7179    3.8257 C   0  0  0  0  0  0  0  0  0  0  0  0
   -4.2322    3.7975    1.2547 C   0  0  0  0  0  0  0  0  0  0  0  0
   -3.2372    2.8569    2.3126 S   0  0  0  0  0  0  0  0  0  0  0  0
   -2.4047    2.1642    0.9295 C   0  0  0  0  0  0  0  0  0  0  0  0
   -2.8080    2.7222   -0.2735 C   0  0  0  0  0  0  0  0  0  0  0  0
   -2.2332    2.4499   -1.5023 N   0  0  0  0  0  0  0  0  0  0  0  0
   -0.8765    2.1197   -1.6009 C   0  0  0  0  0  0  0  0  0  0  0  0
   -0.4569    1.1782   -2.5410 C   0  0  0  0  0  0  0  0  0  0  0  0
    0.8659    0.7968   -2.6009 C   0  0  0  0  0  0  0  0  0  0  0  0
    1.7993    1.3466   -1.7259 C   0  0  0  0  0  0  0  0  0  0  0  0
    3.4537    0.7276   -1.8146 S   0  0  0  0  0  0  0  0  0  0  0  0
    4.4346    2.0258   -1.0086 C   0  0  0  0  0  0  0  0  0  0  0  0
    1.3980    2.3223   -0.8253 C   0  0  0  0  0  0  0  0  0  0  0  0
    0.0747    2.7128   -0.7749 C   0  0  0  0  0  0  0  0  0  0  0  0
   -2.9811    2.6456   -2.6758 C   0  0  0  0  0  0  0  0  0  0  0  0
   -4.3140    2.2511   -2.7346 C   0  0  0  0  0  0  0  0  0  0  0  0
   -5.0761    2.5135   -3.8550 C   0  0  0  0  0  0  0  0  0  0  0  0
   -4.5150    3.1798   -4.9339 C   0  0  0  0  0  0  0  0  0  0  0  0
   -5.4526    3.6146   -6.3652 S   0  0  0  0  0  0  0  0  0  0  0  0
   -7.1079    3.8546   -5.6512 C   0  0  0  0  0  0  0  0  0  0  0  0
   -3.1671    3.5245   -4.9039 C   0  0  0  0  0  0  0  0  0  0  0  0
   -2.4062    3.2627   -3.7862 C   0  0  0  0  0  0  0  0  0  0  0  0
   -3.8616    3.6528   -0.0758 C   0  0  0  0  0  0  0  0  0  0  0  0
   -4.8464    4.5931   -1.1416 S   0  0  0  0  0  0  0  0  0  0  0  0
   -1.4196    1.1366    1.1305 C   0  0  0  0  0  0  0  0  0  0  0  0
   -1.4427   -0.1546    0.6331 C   0  0  0  0  0  0  0  0  0  0  0  0
   -2.5663   -0.7296    0.0635 N   0  0  0  0  0  0  0  0  0  0  0  0
   -2.4724   -1.8650   -0.7542 C   0  0  0  0  0  0  0  0  0  0  0  0
   -3.3966   -2.9041   -0.6209 C   0  0  0  0  0  0  0  0  0  0  0  0
   -3.3106   -4.0189   -1.4211 C   0  0  0  0  0  0  0  0  0  0  0  0
   -2.2958   -4.1369   -2.3704 C   0  0  0  0  0  0  0  0  0  0  0  0
   -2.2980   -5.6182   -3.3296 S   0  0  0  0  0  0  0  0  0  0  0  0
   -0.8174   -5.4848   -4.3685 C   0  0  0  0  0  0  0  0  0  0  0  0
   -1.3742   -3.1094   -2.5049 C   0  0  0  0  0  0  0  0  0  0  0  0
   -1.4648   -1.9837   -1.7059 C   0  0  0  0  0  0  0  0  0  0  0  0
   -3.8291   -0.3573    0.5667 C   0  0  0  0  0  0  0  0  0  0  0  0
   -4.0206   -0.1276    1.9290 C   0  0  0  0  0  0  0  0  0  0  0  0
   -5.2437    0.2895    2.4017 C   0  0  0  0  0  0  0  0  0  0  0  0
   -6.3109    0.4803    1.5277 C   0  0  0  0  0  0  0  0  0  0  0  0
   -7.8028    1.0902    2.2512 S   0  0  0  0  0  0  0  0  0  0  0  0
   -9.0315    0.9335    0.9257 C   0  0  0  0  0  0  0  0  0  0  0  0
   -6.1437    0.1978    0.1786 C   0  0  0  0  0  0  0  0  0  0  0  0
   -4.9147   -0.2262   -0.2933 C   0  0  0  0  0  0  0  0  0  0  0  0
   -0.2285   -0.8273    0.9306 C   0  0  0  0  0  0  0  0  0  0  0  0
    0.4515   -2.3505    0.4925 S   0  0  0  0  0  0  0  0  0  0  0  0
    1.8811   -2.0201    1.4620 C   0  0  0  0  0  0  0  0  0  0  0  0
    1.8415   -0.7747    2.0628 C   0  0  0  0  0  0  0  0  0  0  0  0
    2.8377   -0.2084    2.8416 N   0  0  0  0  0  0  0  0  0  0  0  0
    2.4776    0.5718    3.9478 C   0  0  0  0  0  0  0  0  0  0  0  0
    1.3282    0.2880    4.6829 C   0  0  0  0  0  0  0  0  0  0  0  0
    0.9834    1.0524    5.7809 C   0  0  0  0  0  0  0  0  0  0  0  0
    1.8002    2.1006    6.1790 C   0  0  0  0  0  0  0  0  0  0  0  0
    1.4658    3.1093    7.5906 S   0  0  0  0  0  0  0  0  0  0  0  0
    0.3628    2.0673    8.5907 C   0  0  0  0  0  0  0  0  0  0  0  0
    2.9454    2.3963    5.4426 C   0  0  0  0  0  0  0  0  0  0  0  0
    3.2776    1.6469    4.3368 C   0  0  0  0  0  0  0  0  0  0  0  0
    4.1794   -0.5694    2.6382 C   0  0  0  0  0  0  0  0  0  0  0  0
    5.0177   -0.8392    3.7200 C   0  0  0  0  0  0  0  0  0  0  0  0
    6.2814   -1.3427    3.5102 C   0  0  0  0  0  0  0  0  0  0  0  0
    6.7411   -1.5858    2.2174 C   0  0  0  0  0  0  0  0  0  0  0  0
    8.3204   -2.3533    2.0627 S   0  0  0  0  0  0  0  0  0  0  0  0
    8.3630   -2.8846    0.3315 C   0  0  0  0  0  0  0  0  0  0  0  0
    5.9433   -1.2347    1.1363 C   0  0  0  0  0  0  0  0  0  0  0  0
    4.6748   -0.7326    1.3481 C   0  0  0  0  0  0  0  0  0  0  0  0
    0.6341   -0.1034    1.7368 C   0  0  0  0  0  0  0  0  0  0  0  0
   -0.0012    1.4550    2.1221 S   0  0  0  0  0  0  0  0  0  0  0  0
    2.9426   -2.9849    1.4332 C   0  0  0  0  0  0  0  0  0  0  0  0
    3.7099   -3.4810    2.4404 C   0  0  0  0  0  0  0  0  0  0  0  0
    4.7029   -4.3987    2.0054 C   0  0  0  0  0  0  0  0  0  0  0  0
    5.6852   -5.0380    2.7780 C   0  0  0  0  0  0  0  0  0  0  0  0
    5.8016   -4.8234    4.2265 C   0  0  0  0  0  0  0  0  0  0  0  0
    7.0342   -4.4997    4.7891 C   0  0  0  0  0  0  0  0  0  0  0  0
    7.1504   -4.3231    6.1556 C   0  0  0  0  0  0  0  0  0  0  0  0
    6.0431   -4.4509    6.9753 C   0  0  0  0  0  0  0  0  0  0  0  0
    4.8127   -4.7645    6.4165 C   0  0  0  0  0  0  0  0  0  0  0  0
    3.3931   -4.9240    7.4823 S   0  0  0  0  0  0  0  0  0  0  0  0
    2.2883   -3.6823    6.7142 C   0  0  0  0  0  0  0  0  0  0  0  0
    2.8742   -2.2877    6.8119 C   0  0  0  0  0  0  0  0  0  0  0  0
    4.6924   -4.9683    5.0523 C   0  0  0  0  0  0  0  0  0  0  0  0
    6.5427   -5.8988    2.1081 C   0  0  0  0  0  0  0  0  0  0  0  0
    6.4772   -6.1239    0.7087 C   0  0  0  0  0  0  0  0  0  0  0  0
    5.5521   -5.4132   -0.0836 C   0  0  0  0  0  0  0  0  0  0  0  0
    5.5937   -5.4699   -1.5488 C   0  0  0  0  0  0  0  0  0  0  0  0
    6.8178   -5.4396   -2.2204 C   0  0  0  0  0  0  0  0  0  0  0  0
    6.8650   -5.4459   -3.6025 C   0  0  0  0  0  0  0  0  0  0  0  0
    5.6952   -5.4069   -4.3414 C   0  0  0  0  0  0  0  0  0  0  0  0
    4.4774   -5.3861   -3.6791 C   0  0  0  0  0  0  0  0  0  0  0  0
    2.9729   -5.1628   -4.6046 S   0  0  0  0  0  0  0  0  0  0  0  0
    2.4231   -3.5801   -3.8538 C   0  0  0  0  0  0  0  0  0  0  0  0
    3.4770   -2.4977   -3.9573 C   0  0  0  0  0  0  0  0  0  0  0  0
    4.4217   -5.4706   -2.2989 C   0  0  0  0  0  0  0  0  0  0  0  0
    4.6624   -4.5970    0.5997 C   0  0  0  0  0  0  0  0  0  0  0  0
    3.3963   -3.6437   -0.1244 S   0  0  0  0  0  0  0  0  0  0  0  0
    7.3801   -7.1238    0.2929 C   0  0  0  0  0  0  0  0  0  0  0  0
    8.1450   -7.6403    1.3088 C   0  0  0  0  0  0  0  0  0  0  0  0
    7.7589   -6.8968    2.8504 S   0  0  0  0  0  0  0  0  0  0  0  0
    9.0654   -8.7198    1.2722 C   0  0  0  0  0  0  0  0  0  0  0  0
    9.6610   -9.2976    0.1961 C   0  0  0  0  0  0  0  0  0  0  0  0
   10.1949  -10.6860    0.3084 C   0  0  0  0  0  0  0  0  0  0  0  0
   10.4251  -11.2920    1.3285 O   0  0  0  0  0  0  0  0  0  0  0  0
   10.3164  -11.1672   -1.0821 C   0  0  0  0  0  0  0  0  0  0  0  0
   10.6442  -12.4538   -1.5058 C   0  0  0  0  0  0  0  0  0  0  0  0
   10.6482  -12.6099   -2.8715 C   0  0  0  0  0  0  0  0  0  0  0  0
   10.3477  -11.5663   -3.7586 C   0  0  0  0  0  0  0  0  0  0  0  0
   10.0349  -10.2896   -3.3577 C   0  0  0  0  0  0  0  0  0  0  0  0
   10.0269  -10.1104   -1.9716 C   0  0  0  0  0  0  0  0  0  0  0  0
    9.7837   -8.9030   -1.1905 C   0  0  0  0  0  0  0  0  0  0  0  0
    9.9097   -7.6184   -1.6516 C   0  0  0  0  0  0  0  0  0  0  0  0
   10.0651   -7.2605   -3.0044 C   0  0  0  0  0  0  0  0  0  0  0  0
   10.1513   -6.8965   -4.0902 N   0  0  0  0  0  0  0  0  0  0  0  0
    9.9682   -6.5038   -0.7940 C   0  0  0  0  0  0  0  0  0  0  0  0
   10.0716   -5.5666   -0.1389 N   0  0  0  0  0  0  0  0  0  0  0  0
   10.5237  -12.4410   -4.9743 C   0  0  0  0  0  0  0  0  0  0  0  0
    9.2327  -12.9391   -5.6584 C   0  0  0  0  0  0  0  0  0  0  0  0
    9.6926  -14.1211   -6.4809 C   0  0  0  0  0  0  0  0  0  0  0  0
    9.9808  -15.1084   -5.6426 C   0  0  0  0  0  0  0  0  0  0  0  0
    9.7201  -14.6105   -4.2391 C   0  0  0  0  0  0  0  0  0  0  0  0
    8.5342  -13.6750   -4.5076 C   0  0  0  0  0  0  0  0  0  0  0  0
   10.8624  -13.6032   -3.9864 C   0  0  0  0  0  0  0  0  0  0  0  0
   -7.0020    6.6325    1.1278 H   0  0  0  0  0  0  0  0  0  0  0  0
   -7.5398    6.8065   -5.1346 H   0  0  0  0  0  0  0  0  0  0  0  0
  -10.1679    9.8085   -2.0169 H   0  0  0  0  0  0  0  0  0  0  0  0
  -11.5712    9.7991   -5.1581 H   0  0  0  0  0  0  0  0  0  0  0  0
  -10.6568   12.1145   -5.2033 H   0  0  0  0  0  0  0  0  0  0  0  0
   -8.1933   11.9591   -4.3405 H   0  0  0  0  0  0  0  0  0  0  0  0
   -6.8258   10.4039   -6.0040 H   0  0  0  0  0  0  0  0  0  0  0  0
   -8.4464    9.6026   -7.8938 H   0  0  0  0  0  0  0  0  0  0  0  0
  -10.8209   10.8269   -7.5620 H   0  0  0  0  0  0  0  0  0  0  0  0
   -9.4932   12.0146   -7.5805 H   0  0  0  0  0  0  0  0  0  0  0  0
  -10.2450    8.2903   -6.7778 H   0  0  0  0  0  0  0  0  0  0  0  0
   -6.6085    3.1344    4.6527 H   0  0  0  0  0  0  0  0  0  0  0  0
   -5.2574    2.7524    6.6893 H   0  0  0  0  0  0  0  0  0  0  0  0
   -1.0926    4.9718    8.6391 H   0  0  0  0  0  0  0  0  0  0  0  0
   -2.0365    6.0359    7.5734 H   0  0  0  0  0  0  0  0  0  0  0  0
   -0.8131    4.9118    6.8898 H   0  0  0  0  0  0  0  0  0  0  0  0
   -2.3411    5.5439    5.2675 H   0  0  0  0  0  0  0  0  0  0  0  0
   -3.6888    5.9285    3.2673 H   0  0  0  0  0  0  0  0  0  0  0  0
   -7.8676    3.8004    1.0420 H   0  0  0  0  0  0  0  0  0  0  0  0
  -10.2828    4.2668    1.2034 H   0  0  0  0  0  0  0  0  0  0  0  0
  -11.8525    7.1000    4.9889 H   0  0  0  0  0  0  0  0  0  0  0  0
  -12.9399    7.7352    3.7358 H   0  0  0  0  0  0  0  0  0  0  0  0
  -11.1912    8.0387    3.6106 H   0  0  0  0  0  0  0  0  0  0  0  0
   -9.5902    6.5646    4.7416 H   0  0  0  0  0  0  0  0  0  0  0  0
   -7.1998    6.1326    4.5599 H   0  0  0  0  0  0  0  0  0  0  0  0
   -1.1793    0.7492   -3.2195 H   0  0  0  0  0  0  0  0  0  0  0  0
    1.1867    0.0579   -3.3196 H   0  0  0  0  0  0  0  0  0  0  0  0
    5.4722    1.7768   -1.2084 H   0  0  0  0  0  0  0  0  0  0  0  0
    4.2607    2.0263    0.0641 H   0  0  0  0  0  0  0  0  0  0  0  0
    4.1905    2.9875   -1.4496 H   0  0  0  0  0  0  0  0  0  0  0  0
    2.1020    2.7825   -0.1506 H   0  0  0  0  0  0  0  0  0  0  0  0
   -0.2255    3.4826   -0.0798 H   0  0  0  0  0  0  0  0  0  0  0  0
   -4.7548    1.7460   -1.8892 H   0  0  0  0  0  0  0  0  0  0  0  0
   -6.1080    2.2023   -3.8733 H   0  0  0  0  0  0  0  0  0  0  0  0
   -7.0002    4.3715   -4.7013 H   0  0  0  0  0  0  0  0  0  0  0  0
   -7.6107    2.8993   -5.5269 H   0  0  0  0  0  0  0  0  0  0  0  0
   -7.6595    4.4629   -6.3616 H   0  0  0  0  0  0  0  0  0  0  0  0
   -2.7319    4.0250   -5.7551 H   0  0  0  0  0  0  0  0  0  0  0  0
   -1.3687    3.5611   -3.7552 H   0  0  0  0  0  0  0  0  0  0  0  0
   -4.1772   -2.8352    0.1220 H   0  0  0  0  0  0  0  0  0  0  0  0
   -4.0234   -4.8222   -1.3140 H   0  0  0  0  0  0  0  0  0  0  0  0
   -0.7862   -6.3989   -4.9530 H   0  0  0  0  0  0  0  0  0  0  0  0
   -0.9026   -4.6301   -5.0331 H   0  0  0  0  0  0  0  0  0  0  0  0
    0.0704   -5.4201   -3.7479 H   0  0  0  0  0  0  0  0  0  0  0  0
   -0.5788   -3.1659   -3.2297 H   0  0  0  0  0  0  0  0  0  0  0  0
   -0.7507   -1.1850   -1.8292 H   0  0  0  0  0  0  0  0  0  0  0  0
   -3.2021   -0.2706    2.6185 H   0  0  0  0  0  0  0  0  0  0  0  0
   -5.3834    0.4818    3.4543 H   0  0  0  0  0  0  0  0  0  0  0  0
   -8.7895    1.5993    0.1022 H   0  0  0  0  0  0  0  0  0  0  0  0
   -9.9764    1.2305    1.3701 H   0  0  0  0  0  0  0  0  0  0  0  0
   -9.0840   -0.0996    0.5948 H   0  0  0  0  0  0  0  0  0  0  0  0
   -6.9586    0.3097   -0.5189 H   0  0  0  0  0  0  0  0  0  0  0  0
   -4.7904   -0.4642   -1.3396 H   0  0  0  0  0  0  0  0  0  0  0  0
    0.7006   -0.5441    4.3976 H   0  0  0  0  0  0  0  0  0  0  0  0
    0.0809    0.8155    6.3215 H   0  0  0  0  0  0  0  0  0  0  0  0
    0.3328    2.5275    9.5734 H   0  0  0  0  0  0  0  0  0  0  0  0
   -0.6367    2.0494    8.1657 H   0  0  0  0  0  0  0  0  0  0  0  0
    0.7821    1.0685    8.6632 H   0  0  0  0  0  0  0  0  0  0  0  0
    3.5697    3.2210    5.7501 H   0  0  0  0  0  0  0  0  0  0  0  0
    4.1682    1.8785    3.7719 H   0  0  0  0  0  0  0  0  0  0  0  0
    4.6596   -0.6814    4.7264 H   0  0  0  0  0  0  0  0  0  0  0  0
    6.9161   -1.5856    4.3483 H   0  0  0  0  0  0  0  0  0  0  0  0
    9.1869   -3.5888    0.2575 H   0  0  0  0  0  0  0  0  0  0  0  0
    8.5399   -2.0344   -0.3214 H   0  0  0  0  0  0  0  0  0  0  0  0
    7.4295   -3.3824    0.0854 H   0  0  0  0  0  0  0  0  0  0  0  0
    6.2882   -1.3601    0.1223 H   0  0  0  0  0  0  0  0  0  0  0  0
    4.0506   -0.4996    0.4988 H   0  0  0  0  0  0  0  0  0  0  0  0
    3.5832   -3.1918    3.4670 H   0  0  0  0  0  0  0  0  0  0  0  0
    7.8941   -4.3657    4.1511 H   0  0  0  0  0  0  0  0  0  0  0  0
    8.1095   -4.0744    6.5842 H   0  0  0  0  0  0  0  0  0  0  0  0
    6.1207   -4.3098    8.0422 H   0  0  0  0  0  0  0  0  0  0  0  0
    2.1078   -3.9727    5.6793 H   0  0  0  0  0  0  0  0  0  0  0  0
    1.3567   -3.7627    7.2728 H   0  0  0  0  0  0  0  0  0  0  0  0
    2.2033   -1.5605    6.3568 H   0  0  0  0  0  0  0  0  0  0  0  0
    3.8340   -2.2448    6.2986 H   0  0  0  0  0  0  0  0  0  0  0  0
    3.0317   -2.0161    7.8533 H   0  0  0  0  0  0  0  0  0  0  0  0
    3.7452   -5.2708    4.6303 H   0  0  0  0  0  0  0  0  0  0  0  0
    7.7353   -5.3734   -1.6553 H   0  0  0  0  0  0  0  0  0  0  0  0
    7.8206   -5.4476   -4.1054 H   0  0  0  0  0  0  0  0  0  0  0  0
    5.7193   -5.3672   -5.4190 H   0  0  0  0  0  0  0  0  0  0  0  0
    1.5353   -3.3148   -4.4269 H   0  0  0  0  0  0  0  0  0  0  0  0
    2.1478   -3.7654   -2.8153 H   0  0  0  0  0  0  0  0  0  0  0  0
    3.1014   -1.5731   -3.5239 H   0  0  0  0  0  0  0  0  0  0  0  0
    4.3748   -2.7815   -3.4121 H   0  0  0  0  0  0  0  0  0  0  0  0
    3.7423   -2.3193   -4.9969 H   0  0  0  0  0  0  0  0  0  0  0  0
    3.4634   -5.5390   -1.8083 H   0  0  0  0  0  0  0  0  0  0  0  0
    7.3973   -7.5105   -0.7105 H   0  0  0  0  0  0  0  0  0  0  0  0
    9.2507   -9.2137    2.2209 H   0  0  0  0  0  0  0  0  0  0  0  0
   10.8727  -13.2309   -0.7936 H   0  0  0  0  0  0  0  0  0  0  0  0
    9.8030   -9.4918   -4.0446 H   0  0  0  0  0  0  0  0  0  0  0  0
   11.2843  -12.1197   -5.6830 H   0  0  0  0  0  0  0  0  0  0  0  0
    8.6677  -12.1706   -6.1789 H   0  0  0  0  0  0  0  0  0  0  0  0
    9.8094  -14.0999   -7.5485 H   0  0  0  0  0  0  0  0  0  0  0  0
   10.3866  -16.0766   -5.8697 H   0  0  0  0  0  0  0  0  0  0  0  0
    9.5988  -15.3650   -3.4667 H   0  0  0  0  0  0  0  0  0  0  0  0
    8.2721  -13.0367   -3.6657 H   0  0  0  0  0  0  0  0  0  0  0  0
    7.6509  -14.2164   -4.8420 H   0  0  0  0  0  0  0  0  0  0  0  0
   11.8499  -14.0577   -4.0356 H   0  0  0  0  0  0  0  0  0  0  0  0
  1  2  2  0  0  0  0
  2  3  1  0  0  0  0
  3  4  2  0  0  0  0
  3  5  1  0  0  0  0
  5  6  2  0  0  0  0
  6  7  1  0  0  0  0
  7  8  2  0  0  0  0
  8  9  1  0  0  0  0
  9 10  2  0  0  0  0
 10 11  1  0  0  0  0
 11 12  2  0  0  0  0
 12 13  1  0  0  0  0
 13 14  3  0  0  0  0
 12 15  1  0  0  0  0
 15 16  3  0  0  0  0
  8 17  1  0  0  0  0
 17 18  1  0  0  0  0
 18 19  1  0  0  0  0
 19 20  2  0  0  0  0
 20 21  1  0  0  0  0
 21 22  1  0  0  0  0
 21 23  1  0  0  0  0
  1 24  1  0  0  0  0
 24 25  2  0  0  0  0
 25 26  1  0  0  0  0
 26 27  1  0  0  0  0
 27 28  2  0  0  0  0
 28 29  1  0  0  0  0
 29 30  2  0  0  0  0
 30 31  1  0  0  0  0
 31 32  1  0  0  0  0
 30 33  1  0  0  0  0
 33 34  2  0  0  0  0
 26 35  1  0  0  0  0
 35 36  2  0  0  0  0
 36 37  1  0  0  0  0
 37 38  2  0  0  0  0
 38 39  1  0  0  0  0
 39 40  1  0  0  0  0
 38 41  1  0  0  0  0
 41 42  2  0  0  0  0
 25 43  1  0  0  0  0
 43 44  1  0  0  0  0
 44 45  1  0  0  0  0
 45 46  2  0  0  0  0
 46 47  1  0  0  0  0
 47 48  1  0  0  0  0
 48 49  2  0  0  0  0
 49 50  1  0  0  0  0
 50 51  2  0  0  0  0
 51 52  1  0  0  0  0
 52 53  1  0  0  0  0
 51 54  1  0  0  0  0
 54 55  2  0  0  0  0
 47 56  1  0  0  0  0
 56 57  2  0  0  0  0
 57 58  1  0  0  0  0
 58 59  2  0  0  0  0
 59 60  1  0  0  0  0
 60 61  1  0  0  0  0
 59 62  1  0  0  0  0
 62 63  2  0  0  0  0
 46 64  1  0  0  0  0
 64 65  1  0  0  0  0
 45 66  1  0  0  0  0
 66 67  2  0  0  0  0
 67 68  1  0  0  0  0
 68 69  1  0  0  0  0
 69 70  2  0  0  0  0
 70 71  1  0  0  0  0
 71 72  2  0  0  0  0
 72 73  1  0  0  0  0
 73 74  1  0  0  0  0
 72 75  1  0  0  0  0
 75 76  2  0  0  0  0
 68 77  1  0  0  0  0
 77 78  2  0  0  0  0
 78 79  1  0  0  0  0
 79 80  2  0  0  0  0
 80 81  1  0  0  0  0
 81 82  1  0  0  0  0
 80 83  1  0  0  0  0
 83 84  2  0  0  0  0
 67 85  1  0  0  0  0
 85 86  1  0  0  0  0
 86 87  1  0  0  0  0
 87 88  2  0  0  0  0
 88 89  1  0  0  0  0
 89 90  1  0  0  0  0
 90 91  2  0  0  0  0
 91 92  1  0  0  0  0
 92 93  2  0  0  0  0
 93 94  1  0  0  0  0
 94 95  1  0  0  0  0
 93 96  1  0  0  0  0
 96 97  2  0  0  0  0
 89 98  1  0  0  0  0
 98 99  2  0  0  0  0
 99100  1  0  0  0  0
100101  2  0  0  0  0
101102  1  0  0  0  0
102103  1  0  0  0  0
101104  1  0  0  0  0
104105  2  0  0  0  0
 88106  1  0  0  0  0
106107  1  0  0  0  0
 87108  1  0  0  0  0
108109  2  0  0  0  0
109110  1  0  0  0  0
110111  2  0  0  0  0
111112  1  0  0  0  0
112113  2  0  0  0  0
113114  1  0  0  0  0
114115  2  0  0  0  0
115116  1  0  0  0  0
116117  1  0  0  0  0
117118  1  0  0  0  0
118119  1  0  0  0  0
116120  2  0  0  0  0
111121  1  0  0  0  0
121122  2  0  0  0  0
122123  1  0  0  0  0
123124  1  0  0  0  0
124125  2  0  0  0  0
125126  1  0  0  0  0
126127  2  0  0  0  0
127128  1  0  0  0  0
128129  1  0  0  0  0
129130  1  0  0  0  0
130131  1  0  0  0  0
128132  2  0  0  0  0
123133  2  0  0  0  0
133134  1  0  0  0  0
122135  1  0  0  0  0
135136  2  0  0  0  0
136137  1  0  0  0  0
136138  1  0  0  0  0
138139  2  0  0  0  0
139140  1  0  0  0  0
140141  2  0  0  0  0
140142  1  0  0  0  0
142143  2  0  0  0  0
143144  1  0  0  0  0
144145  2  0  0  0  0
145146  1  0  0  0  0
146147  2  0  0  0  0
147148  1  0  0  0  0
148149  2  0  0  0  0
149150  1  0  0  0  0
150151  3  0  0  0  0
149152  1  0  0  0  0
152153  3  0  0  0  0
145154  1  0  0  0  0
154155  1  0  0  0  0
155156  1  0  0  0  0
156157  2  0  0  0  0
157158  1  0  0  0  0
158159  1  0  0  0  0
158160  1  0  0  0  0
 11  2  1  0  0  0  0
 23 17  1  0  0  0  0
 65 24  1  0  0  0  0
107 66  1  0  0  0  0
134108  1  0  0  0  0
148139  1  0  0  0  0
160154  1  0  0  0  0
 10  5  1  0  0  0  0
 22 18  1  0  0  0  0
 34 27  1  0  0  0  0
 42 35  1  0  0  0  0
 64 43  2  0  0  0  0
 76 69  1  0  0  0  0
 84 77  1  0  0  0  0
106 85  2  0  0  0  0
133110  1  0  0  0  0
147142  1  0  0  0  0
159155  1  0  0  0  0
 23  7  1  0  0  0  0
 55 48  1  0  0  0  0
 63 56  1  0  0  0  0
 97 90  1  0  0  0  0
105 98  1  0  0  0  0
120112  1  0  0  0  0
137121  1  0  0  0  0
160144  1  0  0  0  0
132124  1  0  0  0  0
  1161  1  0  0  0  0
  6162  1  0  0  0  0
  9163  1  0  0  0  0
 17164  1  0  0  0  0
 18165  1  0  0  0  0
 19166  1  0  0  0  0
 20167  1  0  0  0  0
 21168  1  0  0  0  0
 22169  1  0  0  0  0
 22170  1  0  0  0  0
 23171  1  0  0  0  0
 28172  1  0  0  0  0
 29173  1  0  0  0  0
 32174  1  0  0  0  0
 32175  1  0  0  0  0
 32176  1  0  0  0  0
 33177  1  0  0  0  0
 34178  1  0  0  0  0
 36179  1  0  0  0  0
 37180  1  0  0  0  0
 40181  1  0  0  0  0
 40182  1  0  0  0  0
 40183  1  0  0  0  0
 41184  1  0  0  0  0
 42185  1  0  0  0  0
 49186  1  0  0  0  0
 50187  1  0  0  0  0
 53188  1  0  0  0  0
 53189  1  0  0  0  0
 53190  1  0  0  0  0
 54191  1  0  0  0  0
 55192  1  0  0  0  0
 57193  1  0  0  0  0
 58194  1  0  0  0  0
 61195  1  0  0  0  0
 61196  1  0  0  0  0
 61197  1  0  0  0  0
 62198  1  0  0  0  0
 63199  1  0  0  0  0
 70200  1  0  0  0  0
 71201  1  0  0  0  0
 74202  1  0  0  0  0
 74203  1  0  0  0  0
 74204  1  0  0  0  0
 75205  1  0  0  0  0
 76206  1  0  0  0  0
 78207  1  0  0  0  0
 79208  1  0  0  0  0
 82209  1  0  0  0  0
 82210  1  0  0  0  0
 82211  1  0  0  0  0
 83212  1  0  0  0  0
 84213  1  0  0  0  0
 91214  1  0  0  0  0
 92215  1  0  0  0  0
 95216  1  0  0  0  0
 95217  1  0  0  0  0
 95218  1  0  0  0  0
 96219  1  0  0  0  0
 97220  1  0  0  0  0
 99221  1  0  0  0  0
100222  1  0  0  0  0
103223  1  0  0  0  0
103224  1  0  0  0  0
103225  1  0  0  0  0
104226  1  0  0  0  0
105227  1  0  0  0  0
109228  1  0  0  0  0
113229  1  0  0  0  0
114230  1  0  0  0  0
115231  1  0  0  0  0
118232  1  0  0  0  0
118233  1  0  0  0  0
119234  1  0  0  0  0
119235  1  0  0  0  0
119236  1  0  0  0  0
120237  1  0  0  0  0
125238  1  0  0  0  0
126239  1  0  0  0  0
127240  1  0  0  0  0
130241  1  0  0  0  0
130242  1  0  0  0  0
131243  1  0  0  0  0
131244  1  0  0  0  0
131245  1  0  0  0  0
132246  1  0  0  0  0
135247  1  0  0  0  0
138248  1  0  0  0  0
143249  1  0  0  0  0
146250  1  0  0  0  0
154251  1  0  0  0  0
155252  1  0  0  0  0
156253  1  0  0  0  0
157254  1  0  0  0  0
158255  1  0  0  0  0
159256  1  0  0  0  0
159257  1  0  0  0  0
160258  1  0  0  0  0
M  END
