
  xtb     02052216393D
 energy: -283.063463673091 gnorm: 0.006785958898 xtb: 6.4.1 (unknown)
160179  0     0  0            999 V2000
   -2.4996   -3.7441    4.2464 C   0  0  0  0  0  0  0  0  0  0  0  0
   -3.4496   -2.9191    4.8065 C   0  0  0  0  0  0  0  0  0  0  0  0
   -3.3810   -1.4471    4.7679 C   0  0  0  0  0  0  0  0  0  0  0  0
   -2.5766   -0.7573    4.1687 O   0  0  0  0  0  0  0  0  0  0  0  0
   -4.4198   -0.9806    5.7116 C   0  0  0  0  0  0  0  0  0  0  0  0
   -4.6924    0.3317    6.0833 C   0  0  0  0  0  0  0  0  0  0  0  0
   -5.7054    0.4555    7.0055 C   0  0  0  0  0  0  0  0  0  0  0  0
   -6.4088   -0.6440    7.5113 C   0  0  0  0  0  0  0  0  0  0  0  0
   -6.1481   -1.9461    7.1561 C   0  0  0  0  0  0  0  0  0  0  0  0
   -5.1098   -2.0917    6.2355 C   0  0  0  0  0  0  0  0  0  0  0  0
   -4.5370   -3.3032    5.6586 C   0  0  0  0  0  0  0  0  0  0  0  0
   -5.0421   -4.5754    5.7833 C   0  0  0  0  0  0  0  0  0  0  0  0
   -6.1756   -4.9185    6.5402 C   0  0  0  0  0  0  0  0  0  0  0  0
   -7.1079   -5.2790    7.1083 N   0  0  0  0  0  0  0  0  0  0  0  0
   -4.5424   -5.6855    5.0750 C   0  0  0  0  0  0  0  0  0  0  0  0
   -4.2210   -6.6223    4.4916 N   0  0  0  0  0  0  0  0  0  0  0  0
   -7.2565    0.2115    8.4187 C   0  0  0  0  0  0  0  0  0  0  0  0
   -6.8994    0.2183    9.9257 C   0  0  0  0  0  0  0  0  0  0  0  0
   -5.4316   -0.1183   10.0167 C   0  0  0  0  0  0  0  0  0  0  0  0
   -4.7498    0.9172    9.5455 C   0  0  0  0  0  0  0  0  0  0  0  0
   -5.7443    1.9734    9.1304 C   0  0  0  0  0  0  0  0  0  0  0  0
   -6.8445    1.7336   10.1761 C   0  0  0  0  0  0  0  0  0  0  0  0
   -6.4621    1.4368    7.8655 C   0  0  0  0  0  0  0  0  0  0  0  0
   -1.6565   -3.3970    3.1887 C   0  0  0  0  0  0  0  0  0  0  0  0
   -1.8339   -2.5036    2.1105 C   0  0  0  0  0  0  0  0  0  0  0  0
   -2.9807   -1.9021    1.7126 N   0  0  0  0  0  0  0  0  0  0  0  0
   -4.2777   -2.1821    2.1923 C   0  0  0  0  0  0  0  0  0  0  0  0
   -5.1198   -1.1161    2.5128 C   0  0  0  0  0  0  0  0  0  0  0  0
   -6.3819   -1.3544    3.0052 C   0  0  0  0  0  0  0  0  0  0  0  0
   -6.8460   -2.6608    3.1632 C   0  0  0  0  0  0  0  0  0  0  0  0
   -8.4531   -2.8407    3.8539 S   0  0  0  0  0  0  0  0  0  0  0  0
   -8.7464   -4.6320    3.8576 C   0  0  0  0  0  0  0  0  0  0  0  0
   -6.0330   -3.7227    2.7855 C   0  0  0  0  0  0  0  0  0  0  0  0
   -4.7574   -3.4817    2.3099 C   0  0  0  0  0  0  0  0  0  0  0  0
   -2.9745   -1.2108    0.4628 C   0  0  0  0  0  0  0  0  0  0  0  0
   -2.7795    0.1634    0.3753 C   0  0  0  0  0  0  0  0  0  0  0  0
   -2.7515    0.7691   -0.8657 C   0  0  0  0  0  0  0  0  0  0  0  0
   -2.9060    0.0108   -2.0272 C   0  0  0  0  0  0  0  0  0  0  0  0
   -2.8325    0.8554   -3.5747 S   0  0  0  0  0  0  0  0  0  0  0  0
   -2.4722   -0.4872   -4.7487 C   0  0  0  0  0  0  0  0  0  0  0  0
   -3.1351   -1.3560   -1.9316 C   0  0  0  0  0  0  0  0  0  0  0  0
   -3.1757   -1.9582   -0.6914 C   0  0  0  0  0  0  0  0  0  0  0  0
   -0.6254   -2.3801    1.3810 C   0  0  0  0  0  0  0  0  0  0  0  0
   -0.1327   -1.4044    0.0397 S   0  0  0  0  0  0  0  0  0  0  0  0
    1.4771   -2.1104    0.0628 C   0  0  0  0  0  0  0  0  0  0  0  0
    1.6042   -3.1003    1.0447 C   0  0  0  0  0  0  0  0  0  0  0  0
    2.6824   -3.9249    1.2833 N   0  0  0  0  0  0  0  0  0  0  0  0
    2.8895   -4.3658    2.6059 C   0  0  0  0  0  0  0  0  0  0  0  0
    2.8902   -3.4475    3.6562 C   0  0  0  0  0  0  0  0  0  0  0  0
    3.0689   -3.8788    4.9506 C   0  0  0  0  0  0  0  0  0  0  0  0
    3.2509   -5.2336    5.2261 C   0  0  0  0  0  0  0  0  0  0  0  0
    3.4574   -5.6636    6.9216 S   0  0  0  0  0  0  0  0  0  0  0  0
    3.4722   -7.4786    6.9178 C   0  0  0  0  0  0  0  0  0  0  0  0
    3.2668   -6.1481    4.1799 C   0  0  0  0  0  0  0  0  0  0  0  0
    3.0869   -5.7147    2.8818 C   0  0  0  0  0  0  0  0  0  0  0  0
    3.5047   -4.4216    0.2677 C   0  0  0  0  0  0  0  0  0  0  0  0
    4.8452   -4.7069    0.5438 C   0  0  0  0  0  0  0  0  0  0  0  0
    5.6901   -5.1148   -0.4621 C   0  0  0  0  0  0  0  0  0  0  0  0
    5.2264   -5.2445   -1.7715 C   0  0  0  0  0  0  0  0  0  0  0  0
    6.4078   -5.7296   -2.9834 S   0  0  0  0  0  0  0  0  0  0  0  0
    5.6037   -5.3311   -4.5568 C   0  0  0  0  0  0  0  0  0  0  0  0
    3.8851   -5.0053   -2.0416 C   0  0  0  0  0  0  0  0  0  0  0  0
    3.0336   -4.6038   -1.0310 C   0  0  0  0  0  0  0  0  0  0  0  0
    0.4089   -3.2001    1.8044 C   0  0  0  0  0  0  0  0  0  0  0  0
   -0.0713   -4.1879    3.1370 S   0  0  0  0  0  0  0  0  0  0  0  0
    2.3739   -1.6049   -0.9121 C   0  0  0  0  0  0  0  0  0  0  0  0
    3.7382   -1.7774   -1.0730 C   0  0  0  0  0  0  0  0  0  0  0  0
    4.2387   -1.1881   -2.2369 C   0  0  0  0  0  0  0  0  0  0  0  0
    5.5634   -1.5858   -2.7671 C   0  0  0  0  0  0  0  0  0  0  0  0
    5.6957   -2.1634   -3.8189 O   0  0  0  0  0  0  0  0  0  0  0  0
    6.5552   -1.4187   -1.8962 O   0  0  0  0  0  0  0  0  0  0  0  0
    3.2802   -0.4687   -2.9467 C   0  0  0  0  0  0  0  0  0  0  0  0
    1.7202   -0.6210   -2.2009 S   0  0  0  0  0  0  0  0  0  0  0  0
    3.4553    0.3891   -4.0575 C   0  0  0  0  0  0  0  0  0  0  0  0
    2.3482    0.9259   -4.7481 C   0  0  0  0  0  0  0  0  0  0  0  0
    2.4744    1.8513   -5.8509 C   0  0  0  0  0  0  0  0  0  0  0  0
    1.2824    2.1586   -6.3639 N   0  0  0  0  0  0  0  0  0  0  0  0
    0.1385    1.4382   -5.5145 S   0  0  0  0  0  4  0  0  0  0  0  0
    1.0725    0.6382   -4.4809 N   0  0  0  0  0  0  0  0  0  0  0  0
    3.7257    2.3132   -6.3076 C   0  0  0  0  0  0  0  0  0  0  0  0
    4.8365    1.7506   -5.6428 C   0  0  0  0  0  0  0  0  0  0  0  0
    6.1128    2.0523   -5.8875 N   0  0  0  0  0  0  0  0  0  0  0  0
    7.0461    1.2962   -4.8290 S   0  0  0  0  0  0  0  0  0  0  0  0
    5.8988    0.5494   -3.9908 N   0  0  0  0  0  0  0  0  0  0  0  0
    4.7103    0.8397   -4.5222 C   0  0  0  0  0  0  0  0  0  0  0  0
    3.8872    3.2430   -7.3707 C   0  0  0  0  0  0  0  0  0  0  0  0
    3.0195    4.2555   -7.6580 C   0  0  0  0  0  0  0  0  0  0  0  0
    2.0356    4.8194   -6.6971 C   0  0  0  0  0  0  0  0  0  0  0  0
    1.9087    4.5516   -5.5208 O   0  0  0  0  0  0  0  0  0  0  0  0
    1.3469    5.9039   -7.4198 C   0  0  0  0  0  0  0  0  0  0  0  0
    0.2858    6.6752   -6.9524 C   0  0  0  0  0  0  0  0  0  0  0  0
   -0.1478    7.6292   -7.8406 C   0  0  0  0  0  0  0  0  0  0  0  0
    0.4500    7.8214   -9.0936 C   0  0  0  0  0  0  0  0  0  0  0  0
    1.4974    7.0678   -9.5675 C   0  0  0  0  0  0  0  0  0  0  0  0
    1.9388    6.0752   -8.6872 C   0  0  0  0  0  0  0  0  0  0  0  0
    2.9817    5.0656   -8.8572 C   0  0  0  0  0  0  0  0  0  0  0  0
    3.7214    4.8659   -9.9948 C   0  0  0  0  0  0  0  0  0  0  0  0
    4.6459    3.8178  -10.1885 C   0  0  0  0  0  0  0  0  0  0  0  0
    5.3945    2.9835  -10.4391 N   0  0  0  0  0  0  0  0  0  0  0  0
    3.6420    5.6671  -11.1514 C   0  0  0  0  0  0  0  0  0  0  0  0
    3.6378    6.2739  -12.1273 N   0  0  0  0  0  0  0  0  0  0  0  0
   -0.4755    8.9572   -9.4502 C   0  0  0  0  0  0  0  0  0  0  0  0
    0.0691   10.4028   -9.3345 C   0  0  0  0  0  0  0  0  0  0  0  0
    1.1542   10.3736   -8.2872 C   0  0  0  0  0  0  0  0  0  0  0  0
    0.5751   10.1851   -7.1089 C   0  0  0  0  0  0  0  0  0  0  0  0
   -0.9123   10.0825   -7.3385 C   0  0  0  0  0  0  0  0  0  0  0  0
   -1.0703   11.0448   -8.5265 C   0  0  0  0  0  0  0  0  0  0  0  0
   -1.1516    8.7336   -8.0603 C   0  0  0  0  0  0  0  0  0  0  0  0
   -2.3292   -4.7201    4.6887 H   0  0  0  0  0  0  0  0  0  0  0  0
   -4.1314    1.1547    5.6685 H   0  0  0  0  0  0  0  0  0  0  0  0
   -6.6831   -2.7866    7.5659 H   0  0  0  0  0  0  0  0  0  0  0  0
   -8.3296    0.1791    8.2426 H   0  0  0  0  0  0  0  0  0  0  0  0
   -7.5661   -0.3697   10.5507 H   0  0  0  0  0  0  0  0  0  0  0  0
   -5.0539   -1.0679   10.3484 H   0  0  0  0  0  0  0  0  0  0  0  0
   -3.6884    1.0044    9.4040 H   0  0  0  0  0  0  0  0  0  0  0  0
   -5.3566    2.9845    9.0347 H   0  0  0  0  0  0  0  0  0  0  0  0
   -6.5252    1.9815   11.1875 H   0  0  0  0  0  0  0  0  0  0  0  0
   -7.7788    2.2452    9.9490 H   0  0  0  0  0  0  0  0  0  0  0  0
   -7.0172    2.2140    7.3437 H   0  0  0  0  0  0  0  0  0  0  0  0
   -4.7640   -0.1042    2.3996 H   0  0  0  0  0  0  0  0  0  0  0  0
   -7.0244   -0.5347    3.2879 H   0  0  0  0  0  0  0  0  0  0  0  0
   -9.7532   -4.7580    4.2455 H   0  0  0  0  0  0  0  0  0  0  0  0
   -8.6897   -5.0218    2.8447 H   0  0  0  0  0  0  0  0  0  0  0  0
   -8.0394   -5.1293    4.5186 H   0  0  0  0  0  0  0  0  0  0  0  0
   -6.3728   -4.7431    2.8650 H   0  0  0  0  0  0  0  0  0  0  0  0
   -4.1322   -4.3198    2.0386 H   0  0  0  0  0  0  0  0  0  0  0  0
   -2.6244    0.7392    1.2753 H   0  0  0  0  0  0  0  0  0  0  0  0
   -2.5926    1.8341   -0.9477 H   0  0  0  0  0  0  0  0  0  0  0  0
   -1.5722   -1.0048   -4.4258 H   0  0  0  0  0  0  0  0  0  0  0  0
   -2.3088   -0.0048   -5.7077 H   0  0  0  0  0  0  0  0  0  0  0  0
   -3.3213   -1.1613   -4.8251 H   0  0  0  0  0  0  0  0  0  0  0  0
   -3.2821   -1.9605   -2.8117 H   0  0  0  0  0  0  0  0  0  0  0  0
   -3.3474   -3.0222   -0.6142 H   0  0  0  0  0  0  0  0  0  0  0  0
    2.7454   -2.3979    3.4469 H   0  0  0  0  0  0  0  0  0  0  0  0
    3.0686   -3.1735    5.7669 H   0  0  0  0  0  0  0  0  0  0  0  0
    4.3426   -7.8470    6.3832 H   0  0  0  0  0  0  0  0  0  0  0  0
    2.5507   -7.8549    6.4834 H   0  0  0  0  0  0  0  0  0  0  0  0
    3.5330   -7.7724    7.9613 H   0  0  0  0  0  0  0  0  0  0  0  0
    3.4086   -7.2006    4.3620 H   0  0  0  0  0  0  0  0  0  0  0  0
    3.0895   -6.4275    2.0706 H   0  0  0  0  0  0  0  0  0  0  0  0
    5.2241   -4.5780    1.5465 H   0  0  0  0  0  0  0  0  0  0  0  0
    6.7286   -5.3187   -0.2512 H   0  0  0  0  0  0  0  0  0  0  0  0
    4.7622   -5.9958   -4.7310 H   0  0  0  0  0  0  0  0  0  0  0  0
    6.3596   -5.4933   -5.3189 H   0  0  0  0  0  0  0  0  0  0  0  0
    5.3041   -4.2867   -4.5494 H   0  0  0  0  0  0  0  0  0  0  0  0
    3.4916   -5.1242   -3.0380 H   0  0  0  0  0  0  0  0  0  0  0  0
    1.9923   -4.4271   -1.2528 H   0  0  0  0  0  0  0  0  0  0  0  0
    4.3726   -2.2989   -0.3826 H   0  0  0  0  0  0  0  0  0  0  0  0
    7.3837   -1.7628   -2.2654 H   0  0  0  0  0  0  0  0  0  0  0  0
    4.7888    3.1190   -7.9563 H   0  0  0  0  0  0  0  0  0  0  0  0
   -0.1378    6.4987   -5.9760 H   0  0  0  0  0  0  0  0  0  0  0  0
    1.9429    7.2288  -10.5352 H   0  0  0  0  0  0  0  0  0  0  0  0
   -1.0815    8.8152  -10.3431 H   0  0  0  0  0  0  0  0  0  0  0  0
    0.3308   10.8635  -10.2835 H   0  0  0  0  0  0  0  0  0  0  0  0
    2.2033   10.4338   -8.5104 H   0  0  0  0  0  0  0  0  0  0  0  0
    1.0439   10.0559   -6.1509 H   0  0  0  0  0  0  0  0  0  0  0  0
   -1.5452   10.2493   -6.4707 H   0  0  0  0  0  0  0  0  0  0  0  0
   -2.0413   10.9749   -9.0151 H   0  0  0  0  0  0  0  0  0  0  0  0
   -0.8663   12.0806   -8.2597 H   0  0  0  0  0  0  0  0  0  0  0  0
   -2.1983    8.4348   -8.0473 H   0  0  0  0  0  0  0  0  0  0  0  0
  1  2  2  0  0  0  0
  2  3  1  0  0  0  0
  3  4  2  0  0  0  0
  3  5  1  0  0  0  0
  5  6  2  0  0  0  0
  6  7  1  0  0  0  0
  7  8  2  0  0  0  0
  8  9  1  0  0  0  0
  9 10  2  0  0  0  0
 10 11  1  0  0  0  0
 11 12  2  0  0  0  0
 12 13  1  0  0  0  0
 13 14  3  0  0  0  0
 12 15  1  0  0  0  0
 15 16  3  0  0  0  0
  8 17  1  0  0  0  0
 17 18  1  0  0  0  0
 18 19  1  0  0  0  0
 19 20  2  0  0  0  0
 20 21  1  0  0  0  0
 21 22  1  0  0  0  0
 21 23  1  0  0  0  0
  1 24  1  0  0  0  0
 24 25  2  0  0  0  0
 25 26  1  0  0  0  0
 26 27  1  0  0  0  0
 27 28  2  0  0  0  0
 28 29  1  0  0  0  0
 29 30  2  0  0  0  0
 30 31  1  0  0  0  0
 31 32  1  0  0  0  0
 30 33  1  0  0  0  0
 33 34  2  0  0  0  0
 26 35  1  0  0  0  0
 35 36  2  0  0  0  0
 36 37  1  0  0  0  0
 37 38  2  0  0  0  0
 38 39  1  0  0  0  0
 39 40  1  0  0  0  0
 38 41  1  0  0  0  0
 41 42  2  0  0  0  0
 25 43  1  0  0  0  0
 43 44  1  0  0  0  0
 44 45  1  0  0  0  0
 45 46  2  0  0  0  0
 46 47  1  0  0  0  0
 47 48  1  0  0  0  0
 48 49  2  0  0  0  0
 49 50  1  0  0  0  0
 50 51  2  0  0  0  0
 51 52  1  0  0  0  0
 52 53  1  0  0  0  0
 51 54  1  0  0  0  0
 54 55  2  0  0  0  0
 47 56  1  0  0  0  0
 56 57  2  0  0  0  0
 57 58  1  0  0  0  0
 58 59  2  0  0  0  0
 59 60  1  0  0  0  0
 60 61  1  0  0  0  0
 59 62  1  0  0  0  0
 62 63  2  0  0  0  0
 46 64  1  0  0  0  0
 64 65  1  0  0  0  0
 45 66  1  0  0  0  0
 66 67  2  0  0  0  0
 67 68  1  0  0  0  0
 68 69  1  0  0  0  0
 69 70  2  0  0  0  0
 69 71  1  0  0  0  0
 68 72  2  0  0  0  0
 72 73  1  0  0  0  0
 72 74  1  0  0  0  0
 74 75  2  0  0  0  0
 75 76  1  0  0  0  0
 76 77  1  0  0  0  0
 77 78  2  0  0  0  0
 78 79  2  0  0  0  0
 76 80  2  0  0  0  0
 80 81  1  0  0  0  0
 81 82  2  0  0  0  0
 82 83  1  0  0  0  0
 83 84  1  0  0  0  0
 84 85  2  0  0  0  0
 80 86  1  0  0  0  0
 86 87  2  0  0  0  0
 87 88  1  0  0  0  0
 88 89  2  0  0  0  0
 88 90  1  0  0  0  0
 90 91  2  0  0  0  0
 91 92  1  0  0  0  0
 92 93  2  0  0  0  0
 93 94  1  0  0  0  0
 94 95  2  0  0  0  0
 95 96  1  0  0  0  0
 96 97  2  0  0  0  0
 97 98  1  0  0  0  0
 98 99  3  0  0  0  0
 97100  1  0  0  0  0
100101  3  0  0  0  0
 93102  1  0  0  0  0
102103  1  0  0  0  0
103104  1  0  0  0  0
104105  2  0  0  0  0
105106  1  0  0  0  0
106107  1  0  0  0  0
106108  1  0  0  0  0
 11  2  1  0  0  0  0
 23 17  1  0  0  0  0
 65 24  1  0  0  0  0
 73 66  1  0  0  0  0
 85 74  1  0  0  0  0
 96 87  1  0  0  0  0
108102  1  0  0  0  0
 10  5  1  0  0  0  0
 22 18  1  0  0  0  0
 34 27  1  0  0  0  0
 42 35  1  0  0  0  0
 64 43  2  0  0  0  0
 79 75  1  0  0  0  0
 85 81  1  0  0  0  0
 95 90  1  0  0  0  0
107103  1  0  0  0  0
 23  7  1  0  0  0  0
 55 48  1  0  0  0  0
 63 56  1  0  0  0  0
108 92  1  0  0  0  0
  1109  1  0  0  0  0
  6110  1  0  0  0  0
  9111  1  0  0  0  0
 17112  1  0  0  0  0
 18113  1  0  0  0  0
 19114  1  0  0  0  0
 20115  1  0  0  0  0
 21116  1  0  0  0  0
 22117  1  0  0  0  0
 22118  1  0  0  0  0
 23119  1  0  0  0  0
 28120  1  0  0  0  0
 29121  1  0  0  0  0
 32122  1  0  0  0  0
 32123  1  0  0  0  0
 32124  1  0  0  0  0
 33125  1  0  0  0  0
 34126  1  0  0  0  0
 36127  1  0  0  0  0
 37128  1  0  0  0  0
 40129  1  0  0  0  0
 40130  1  0  0  0  0
 40131  1  0  0  0  0
 41132  1  0  0  0  0
 42133  1  0  0  0  0
 49134  1  0  0  0  0
 50135  1  0  0  0  0
 53136  1  0  0  0  0
 53137  1  0  0  0  0
 53138  1  0  0  0  0
 54139  1  0  0  0  0
 55140  1  0  0  0  0
 57141  1  0  0  0  0
 58142  1  0  0  0  0
 61143  1  0  0  0  0
 61144  1  0  0  0  0
 61145  1  0  0  0  0
 62146  1  0  0  0  0
 63147  1  0  0  0  0
 67148  1  0  0  0  0
 71149  1  0  0  0  0
 86150  1  0  0  0  0
 91151  1  0  0  0  0
 94152  1  0  0  0  0
102153  1  0  0  0  0
103154  1  0  0  0  0
104155  1  0  0  0  0
105156  1  0  0  0  0
106157  1  0  0  0  0
107158  1  0  0  0  0
107159  1  0  0  0  0
108160  1  0  0  0  0
M  END
