228

C         -1.53140        6.79830        9.40430
C         -2.60080        7.24240       10.12550
C         -4.00810        7.25250        9.68360
O         -4.44090        6.95950        8.58560
C         -4.79900        7.69320       10.84400
C         -6.18540        7.81100       10.91460
C         -6.64970        8.22570       12.13940
C         -5.79690        8.49750       13.21840
C         -4.42830        8.38670       13.16160
C         -3.93310        7.97340       11.92110
C         -2.55710        7.73970       11.49070
C         -1.43940        7.97180       12.24940
C         -0.10380        7.76370       11.84450
N          1.01150        7.62700       11.60530
C         -1.45800        8.47820       13.56670
N         -1.38900        8.88700       14.63730
C         -6.93900        8.85970       14.13350
C         -7.19360       10.36230       14.40830
C         -6.66700       11.11210       13.20980
C         -7.47340       10.85910       12.18760
C         -8.56000        9.93340       12.67640
C         -8.70310       10.42530       14.12560
C         -7.88890        8.56070       12.93090
C         -1.46170        6.24320        8.10750
C         -0.27040        5.77010        7.59140
C         -0.38370        5.21110        6.30940
C          0.62920        4.61230        5.53320
C          1.98590        4.42600        6.07390
C          2.80410        5.50110        6.39450
C          4.04060        5.26070        6.96350
F          4.82930        6.32020        7.24090
C          4.50690        3.98770        7.27110
C          5.80790        3.75790        7.98010
C          5.58640        3.70210        9.49350
C          3.65690        2.94040        6.93090
F          4.03040        1.68080        7.22200
C          2.43210        3.13260        6.32480
C          0.25280        4.10940        4.30780
C         -1.08490        4.14120        3.83010
C         -2.09620        4.73240        4.60570
C         -3.48370        4.78950        4.12570
C         -3.76160        5.28160        2.85320
C         -5.06990        5.35100        2.42020
C         -6.15140        4.93950        3.19070
C         -7.56900        5.08150        2.71960
C         -8.11750        6.45750        3.10530
C         -5.83040        4.44480        4.45060
C         -4.53800        4.36350        4.92750
F         -6.83380        4.00450        5.23730
F         -5.30880        5.83400        1.18130
C         -1.72370        5.25580        5.83660
S         -2.79030        6.01580        6.98590
C         -1.20580        3.45150        2.60580
C         -0.02830        2.93770        2.12340
S          1.32320        3.32650        3.17240
C          0.05820        2.11610        0.96360
C          1.10370        1.69410        0.14900
N          2.42470        2.10700        0.14270
C          2.99920        2.25650       -1.13740
C          2.33660        3.01610       -2.10130
C          2.82410        3.08130       -3.38680
C          3.98290        2.39060       -3.73470
S          4.48950        2.48760       -5.42210
C          5.57640        1.04640       -5.60900
C          4.67440        1.67720       -2.76380
C          4.18490        1.61160       -1.47430
C          3.26600        2.13120        1.25680
C          4.27790        3.08720        1.30870
C          5.15720        3.12600        2.36910
C          5.04220        2.20120        3.39960
S          6.14100        2.13600        4.77590
C          7.17540        3.61630        4.58610
C          4.03100        1.24420        3.35380
C          3.15020        1.20500        2.29370
C          0.62690        0.81770       -0.86270
S          1.41070       -0.07880       -2.11320
C         -0.12710       -0.78720       -2.60710
C         -1.19630       -0.28960       -1.86960
N         -2.53820       -0.54890       -2.07300
C         -3.37180       -0.46840       -0.93840
C         -4.48460        0.36550       -0.92280
C         -5.23120        0.51650        0.22920
C         -4.87130       -0.16340        1.38610
S         -5.70070        0.00810        2.93230
C         -6.83180        1.40210        2.66730
C         -3.78590       -1.03780        1.35800
C         -3.04390       -1.19060        0.20860
C         -3.10570       -0.60290       -3.34810
C         -2.51930        0.03530       -4.43820
C         -3.07170       -0.06610       -5.69990
C         -4.23900       -0.79140       -5.89200
S         -5.02470       -1.02220       -7.45650
C         -3.93730       -0.16530       -8.62760
C         -4.85430       -1.39540       -4.79610
C         -4.29320       -1.31250       -3.54310
C         -0.73500        0.58820       -0.85440
S         -1.49380        1.44790        0.43400
C         -0.05390       -1.80110       -3.59910
C          1.07080       -2.10110       -4.32140
C          0.95020       -3.24290       -5.13850
C          1.94490       -3.85650       -5.92770
C          3.31850       -3.39800       -5.96100
C          4.20690       -3.49110       -6.99610
C          5.52170       -3.07380       -6.69050
C          6.64800       -3.08400       -7.67380
C          6.74830       -1.74800       -8.41090
C          5.61430       -2.65180       -5.39690
Cl         7.01670       -2.06490       -4.60720
S          4.10950       -2.75430       -4.54100
C          1.56060       -4.99600       -6.63430
C          0.24800       -5.53770       -6.57460
C         -0.74510       -4.93470       -5.76270
C         -2.07580       -5.48290       -5.61160
C         -3.25190       -4.80210       -5.45520
C         -4.38530       -5.62490       -5.26720
C         -5.77870       -5.10550       -5.11740
C         -6.33580       -4.64340       -6.46440
C         -4.04340       -6.94670       -5.27430
S         -2.34830       -7.20460       -5.51360
Cl        -5.09260       -8.28320       -5.07930
C         -0.35470       -3.79980       -5.06720
S         -1.35530       -2.92190       -3.93750
C          0.13640       -6.68990       -7.36800
C          1.31530       -7.08180       -7.97220
S          2.61840       -5.97180       -7.61200
C          1.39840       -8.25470       -8.75250
C          2.48170       -8.86380       -9.31720
C          3.88420       -8.41760       -9.22630
O          4.30230       -7.35700       -8.80190
C          4.69910       -9.51940       -9.76380
C          6.09060       -9.58470       -9.80930
C          6.57770      -10.75570      -10.33720
C          5.74270      -11.78620      -10.79070
C          4.36970      -11.73000      -10.76220
C          3.85150      -10.54630      -10.22650
C          2.46490      -10.13220      -10.02660
C          1.36140      -10.80820      -10.47680
C          1.40650      -12.03220      -11.17730
N          1.36540      -13.02690      -11.74930
C          0.02430      -10.37500      -10.34990
N         -1.08860      -10.09380      -10.30400
C          6.90510      -12.66920      -11.17070
C          7.23670      -13.82560      -10.20360
C          8.65840      -14.19730      -10.55860
C          9.44940      -13.22130      -10.13150
C          8.57560      -12.17350       -9.48040
C          7.48190      -13.07260       -8.88960
C          7.83590      -11.51960      -10.66710
H         -0.56350        6.83530        9.88980
H         -6.80410        7.58220       10.06100
H         -3.78970        8.59490       14.00340
H         -7.04280        8.25060       15.02920
H         -6.85010       10.70780       15.37950
H         -5.75850       11.68530       13.21430
H         -7.37330       11.17840       11.16680
H         -9.46180        9.88940       12.07130
H         -9.10150       11.43660       14.18960
H         -9.29060        9.75780       14.75460
H         -8.61530        7.75800       13.04180
H          0.65540        5.81910        8.13750
H          2.49280        6.51550        6.20110
H          6.23800        2.81390        7.64150
H          6.49840        4.56970        7.74590
H          4.91390        2.88630        9.74810
H          5.15430        4.63460        9.85010
H          6.53350        3.54190       10.00200
H          1.81780        2.27960        6.08440
H         -2.97170        5.63610        2.21040
H         -8.18560        4.30520        3.17570
H         -7.60660        4.96860        1.63450
H         -8.09000        6.58590        4.18490
H         -9.14600        6.55730        2.76840
H         -7.52320        7.24440        2.64650
H         -4.36400        3.96060        5.91160
H         -2.14460        3.30630        2.10180
H          1.42640        3.53410       -1.83650
H          2.30830        3.65610       -4.14050
H          5.08400        0.17140       -5.19690
H          5.71930        0.92370       -6.67810
H          6.53420        1.22300       -5.12830
H          5.58550        1.15360       -3.00400
H          4.71000        1.03660       -0.72630
H          4.37000        3.80400        0.50630
H          5.92640        3.88050        2.37920
H          7.76490        3.54950        3.67650
H          6.55190        4.50580        4.59120
H          7.83550        3.62300        5.44760
H          3.95190        0.52750        4.15670
H          2.37310        0.45590        2.25710
H         -4.75270        0.91460       -1.81330
H         -6.08020        1.18040        0.21490
H         -7.24810        1.62790        3.64410
H         -6.27490        2.25740        2.29590
H         -7.62750        1.11810        1.98450
H         -3.52770       -1.58230        2.25300
H         -2.19320       -1.85570        0.19180
H         -1.61770        0.61400       -4.30340
H         -2.58170        0.43260       -6.52040
H         -3.90650        0.89650       -8.40030
H         -4.38370       -0.31910       -9.60520
H         -2.94470       -0.60570       -8.60200
H         -5.77470       -1.93660       -4.94950
H         -4.76180       -1.80420       -2.70430
H          1.95750       -1.49790       -4.25680
H          3.93590       -3.83230       -7.97780
H          7.58630       -3.27940       -7.15170
H          6.47580       -3.88780       -8.39070
H          6.98150       -0.94890       -7.71100
H          7.53370       -1.79030       -9.16130
H          5.80760       -1.51470       -8.90450
H         -3.32680       -3.73040       -5.50310
H         -5.76820       -4.26910       -4.41610
H         -6.41530       -5.89130       -4.70830
H         -7.35030       -4.27150       -6.34440
H         -5.72310       -3.84800       -6.88170
H         -6.35280       -5.47170       -7.16850
H         -0.77600       -7.24070       -7.50580
H          0.44200       -8.75270       -8.86060
H          6.69510       -8.76760       -9.44800
H          3.74290      -12.53140      -11.11560
H          6.95660      -12.96190      -12.21750
H          6.50840      -14.63170      -10.19150
H          8.92770      -15.07630      -11.11420
H         10.51130      -13.12200      -10.25910
H          9.06710      -11.47470       -8.80890
H          6.61360      -12.53080       -8.51900
H          7.86460      -13.72530       -8.10680
H          8.50850      -11.04440      -11.37860
