
  xtb     02092211153D
 energy: -369.085753816022 gnorm: 0.000332029928 xtb: 6.4.1 (unknown)
217237  0     0  0            999 V2000
   -6.8778   -0.6054    3.5790 C   0  0  0  0  0  0  0  0  0  0  0  0
   -7.7788   -1.0472    2.6334 C   0  0  0  0  0  0  0  0  0  0  0  0
   -7.5431   -0.9944    1.1818 C   0  0  0  0  0  0  0  0  0  0  0  0
   -6.5574   -0.5604    0.6110 O   0  0  0  0  0  0  0  0  0  0  0  0
   -8.8054   -1.4354    0.5539 C   0  0  0  0  0  0  0  0  0  0  0  0
   -9.0647   -1.5802   -0.8056 C   0  0  0  0  0  0  0  0  0  0  0  0
  -10.3305   -2.0358   -1.0894 C   0  0  0  0  0  0  0  0  0  0  0  0
  -11.2805   -2.3039   -0.0965 C   0  0  0  0  0  0  0  0  0  0  0  0
  -11.0415   -2.1548    1.2490 C   0  0  0  0  0  0  0  0  0  0  0  0
   -9.7532   -1.7128    1.5582 C   0  0  0  0  0  0  0  0  0  0  0  0
   -9.1263   -1.4895    2.8583 C   0  0  0  0  0  0  0  0  0  0  0  0
   -9.6619   -1.8238    4.0791 C   0  0  0  0  0  0  0  0  0  0  0  0
  -10.9467   -2.3618    4.2702 C   0  0  0  0  0  0  0  0  0  0  0  0
  -11.9694   -2.8326    4.5034 N   0  0  0  0  0  0  0  0  0  0  0  0
   -8.9483   -1.7698    5.2926 C   0  0  0  0  0  0  0  0  0  0  0  0
   -8.4149   -1.8040    6.3098 N   0  0  0  0  0  0  0  0  0  0  0  0
  -12.3308   -2.7167   -1.0982 C   0  0  0  0  0  0  0  0  0  0  0  0
  -12.5845   -4.2312   -1.2474 C   0  0  0  0  0  0  0  0  0  0  0  0
  -13.2657   -4.3547   -2.5909 C   0  0  0  0  0  0  0  0  0  0  0  0
  -12.3568   -4.1153   -3.5275 C   0  0  0  0  0  0  0  0  0  0  0  0
  -11.0464   -3.8236   -2.8322 C   0  0  0  0  0  0  0  0  0  0  0  0
  -11.1853   -4.7421   -1.6114 C   0  0  0  0  0  0  0  0  0  0  0  0
  -11.2660   -2.4302   -2.2053 C   0  0  0  0  0  0  0  0  0  0  0  0
   -5.4899   -0.5697    3.4260 C   0  0  0  0  0  0  0  0  0  0  0  0
   -4.6185   -1.2975    2.5907 C   0  0  0  0  0  0  0  0  0  0  0  0
   -4.9047   -2.3357    1.7491 N   0  0  0  0  0  0  0  0  0  0  0  0
   -3.9708   -2.5791    0.7067 C   0  0  0  0  0  0  0  0  0  0  0  0
   -3.2878   -3.7867    0.6500 C   0  0  0  0  0  0  0  0  0  0  0  0
   -2.2765   -3.9713   -0.2743 C   0  0  0  0  0  0  0  0  0  0  0  0
   -1.9470   -2.9487   -1.1547 C   0  0  0  0  0  0  0  0  0  0  0  0
   -0.6034   -3.0183   -2.2920 S   0  0  0  0  0  0  0  0  0  0  0  0
    0.2285   -4.5820   -1.8883 C   0  0  0  0  0  0  0  0  0  0  0  0
   -2.6942   -1.7703   -1.1545 C   0  0  0  0  0  0  0  0  0  0  0  0
   -3.6971   -1.5839   -0.2302 C   0  0  0  0  0  0  0  0  0  0  0  0
   -6.0064   -3.1829    1.8421 C   0  0  0  0  0  0  0  0  0  0  0  0
   -6.5602   -3.7066    0.6688 C   0  0  0  0  0  0  0  0  0  0  0  0
   -7.6812   -4.4994    0.7202 C   0  0  0  0  0  0  0  0  0  0  0  0
   -8.2860   -4.7981    1.9422 C   0  0  0  0  0  0  0  0  0  0  0  0
   -9.7722   -5.7375    1.8684 S   0  0  0  0  0  0  0  0  0  0  0  0
  -10.2336   -5.9989    3.6024 C   0  0  0  0  0  0  0  0  0  0  0  0
   -7.7016   -4.3369    3.1153 C   0  0  0  0  0  0  0  0  0  0  0  0
   -6.5755   -3.5375    3.0641 C   0  0  0  0  0  0  0  0  0  0  0  0
   -3.2882   -0.8407    2.7592 C   0  0  0  0  0  0  0  0  0  0  0  0
   -1.7805   -1.3269    2.0687 S   0  0  0  0  0  0  0  0  0  0  0  0
   -0.9515   -0.0586    2.9399 C   0  0  0  0  0  0  0  0  0  0  0  0
   -1.7772    0.6196    3.8248 C   0  0  0  0  0  0  0  0  0  0  0  0
   -1.3547    1.5564    4.7446 N   0  0  0  0  0  0  0  0  0  0  0  0
   -0.0722    1.4855    5.3025 C   0  0  0  0  0  0  0  0  0  0  0  0
    0.6213    2.6560    5.6097 C   0  0  0  0  0  0  0  0  0  0  0  0
    1.8486    2.5975    6.2341 C   0  0  0  0  0  0  0  0  0  0  0  0
    2.4129    1.3682    6.5542 C   0  0  0  0  0  0  0  0  0  0  0  0
    3.9486    1.3520    7.4332 S   0  0  0  0  0  0  0  0  0  0  0  0
    3.6969   -0.0578    8.5589 C   0  0  0  0  0  0  0  0  0  0  0  0
    1.7571    0.1974    6.1991 C   0  0  0  0  0  0  0  0  0  0  0  0
    0.5212    0.2568    5.5883 C   0  0  0  0  0  0  0  0  0  0  0  0
   -2.2280    2.5817    5.1346 C   0  0  0  0  0  0  0  0  0  0  0  0
   -2.2827    2.9949    6.4668 C   0  0  0  0  0  0  0  0  0  0  0  0
   -3.1557    3.9862    6.8510 C   0  0  0  0  0  0  0  0  0  0  0  0
   -4.0016    4.5872    5.9196 C   0  0  0  0  0  0  0  0  0  0  0  0
   -5.0789    5.8442    6.5311 S   0  0  0  0  0  0  0  0  0  0  0  0
   -6.1988    6.1690    5.1394 C   0  0  0  0  0  0  0  0  0  0  0  0
   -3.9459    4.1863    4.5927 C   0  0  0  0  0  0  0  0  0  0  0  0
   -3.0657    3.1933    4.2073 C   0  0  0  0  0  0  0  0  0  0  0  0
   -3.1154    0.1619    3.7032 C   0  0  0  0  0  0  0  0  0  0  0  0
   -4.6084    0.5609    4.4732 S   0  0  0  0  0  0  0  0  0  0  0  0
    0.3973    0.2044    2.5065 C   0  0  0  0  0  0  0  0  0  0  0  0
    0.8787    1.4883    2.2910 C   0  0  0  0  0  0  0  0  0  0  0  0
    0.0380    2.5414    2.5877 O   0  0  0  0  0  0  0  0  0  0  0  0
   -0.4780    3.2344    1.4538 C   0  0  0  0  0  0  0  0  0  0  0  0
   -1.3533    2.3589    0.5633 C   0  0  0  0  0  0  0  0  0  0  0  0
    2.1265    1.7308    1.6393 C   0  0  0  0  0  0  0  0  0  0  0  0
    2.5919    2.9888    1.4066 O   0  0  0  0  0  0  0  0  0  0  0  0
    2.5997    3.9349    2.4751 C   0  0  0  0  0  0  0  0  0  0  0  0
    3.8010    3.7363    3.3869 C   0  0  0  0  0  0  0  0  0  0  0  0
    2.8075    0.6914    1.0173 C   0  0  0  0  0  0  0  0  0  0  0  0
    2.3296   -0.6195    1.2039 C   0  0  0  0  0  0  0  0  0  0  0  0
    1.1698   -0.8704    2.0048 C   0  0  0  0  0  0  0  0  0  0  0  0
    0.8783   -2.1656    2.0778 N   0  0  0  0  0  0  0  0  0  0  0  0
    1.9630   -2.9849    1.2172 S   0  0  0  0  0  0  0  0  0  0  0  0
    2.8467   -1.7421    0.7042 N   0  0  0  0  0  0  0  0  0  0  0  0
    3.8104    0.9335   -0.0149 C   0  0  0  0  0  0  0  0  0  0  0  0
    5.1106    1.3751    0.0309 C   0  0  0  0  0  0  0  0  0  0  0  0
    5.8468    1.6414    1.1771 N   0  0  0  0  0  0  0  0  0  0  0  0
    6.7412    2.7239    1.1114 C   0  0  0  0  0  0  0  0  0  0  0  0
    8.0375    2.6292    1.6162 C   0  0  0  0  0  0  0  0  0  0  0  0
    8.9053    3.6909    1.4929 C   0  0  0  0  0  0  0  0  0  0  0  0
    8.5058    4.8638    0.8546 C   0  0  0  0  0  0  0  0  0  0  0  0
    9.7099    6.1501    0.7395 S   0  0  0  0  0  0  0  0  0  0  0  0
    8.9751    7.3183   -0.4405 C   0  0  0  0  0  0  0  0  0  0  0  0
    7.2133    4.9659    0.3596 C   0  0  0  0  0  0  0  0  0  0  0  0
    6.3398    3.9045    0.4909 C   0  0  0  0  0  0  0  0  0  0  0  0
    5.7703    0.8123    2.2961 C   0  0  0  0  0  0  0  0  0  0  0  0
    6.0963    1.2990    3.5621 C   0  0  0  0  0  0  0  0  0  0  0  0
    6.0083    0.4909    4.6766 C   0  0  0  0  0  0  0  0  0  0  0  0
    5.5933   -0.8264    4.5490 C   0  0  0  0  0  0  0  0  0  0  0  0
    5.4358   -1.9155    5.9372 S   0  0  0  0  0  0  0  0  0  0  0  0
    6.7514   -1.3152    7.0410 C   0  0  0  0  0  0  0  0  0  0  0  0
    5.2772   -1.3249    3.2911 C   0  0  0  0  0  0  0  0  0  0  0  0
    5.3744   -0.5210    2.1761 C   0  0  0  0  0  0  0  0  0  0  0  0
    5.6424    1.5033   -1.2802 C   0  0  0  0  0  0  0  0  0  0  0  0
    7.1816    1.9521   -1.9054 S   0  0  0  0  0  0  0  0  0  0  0  0
    6.6099    1.7300   -3.5668 C   0  0  0  0  0  0  0  0  0  0  0  0
    5.2878    1.2343   -3.5995 C   0  0  0  0  0  0  0  0  0  0  0  0
    4.5930    0.7998   -4.6999 N   0  0  0  0  0  0  0  0  0  0  0  0
    3.1827    0.6829   -4.6058 C   0  0  0  0  0  0  0  0  0  0  0  0
    2.5616   -0.5346   -4.8822 C   0  0  0  0  0  0  0  0  0  0  0  0
    1.1960   -0.6564   -4.7654 C   0  0  0  0  0  0  0  0  0  0  0  0
    0.4198    0.4363   -4.3792 C   0  0  0  0  0  0  0  0  0  0  0  0
   -1.3119    0.1591   -4.2490 S   0  0  0  0  0  0  0  0  0  0  0  0
   -1.9513    1.7121   -3.5535 C   0  0  0  0  0  0  0  0  0  0  0  0
    1.0339    1.6557   -4.1274 C   0  0  0  0  0  0  0  0  0  0  0  0
    2.4058    1.7749   -4.2360 C   0  0  0  0  0  0  0  0  0  0  0  0
    5.2101    0.2132   -5.8132 C   0  0  0  0  0  0  0  0  0  0  0  0
    6.4148   -0.4772   -5.7038 C   0  0  0  0  0  0  0  0  0  0  0  0
    7.0431   -0.9834   -6.8222 C   0  0  0  0  0  0  0  0  0  0  0  0
    6.4683   -0.8233   -8.0776 C   0  0  0  0  0  0  0  0  0  0  0  0
    7.2374   -1.3418   -9.5715 S   0  0  0  0  0  0  0  0  0  0  0  0
    8.9604   -1.6257   -9.0746 C   0  0  0  0  0  0  0  0  0  0  0  0
    5.2164   -0.2171   -8.1804 C   0  0  0  0  0  0  0  0  0  0  0  0
    4.5972    0.3012   -7.0663 C   0  0  0  0  0  0  0  0  0  0  0  0
    4.7623    1.1472   -2.2905 C   0  0  0  0  0  0  0  0  0  0  0  0
    3.2534    0.6084   -1.6408 S   0  0  0  0  0  0  0  0  0  0  0  0
    7.5275    2.0381   -4.5763 C   0  0  0  0  0  0  0  0  0  0  0  0
    7.3121    2.3084   -5.9102 C   0  0  0  0  0  0  0  0  0  0  0  0
    8.3819    2.0409   -6.9021 C   0  0  0  0  0  0  0  0  0  0  0  0
    9.5101    1.6587   -6.6778 O   0  0  0  0  0  0  0  0  0  0  0  0
    7.7348    2.2451   -8.2092 C   0  0  0  0  0  0  0  0  0  0  0  0
    6.3784    2.6615   -8.0099 C   0  0  0  0  0  0  0  0  0  0  0  0
    5.7036    2.8743   -9.1679 C   0  0  0  0  0  0  0  0  0  0  0  0
    6.7033    2.5534  -10.5410 S   0  0  0  0  0  0  0  0  0  0  0  0
    8.0659    2.1431   -9.5246 C   0  0  0  0  0  0  0  0  0  0  0  0
    9.5602    1.7166  -10.2038 Cl  0  0  0  0  0  0  0  0  0  0  0  0
    6.1329    2.7716   -6.5840 C   0  0  0  0  0  0  0  0  0  0  0  0
    5.0496    3.4142   -6.0213 C   0  0  0  0  0  0  0  0  0  0  0  0
    3.9209    3.7610   -6.7819 C   0  0  0  0  0  0  0  0  0  0  0  0
    2.9670    4.0066   -7.3737 N   0  0  0  0  0  0  0  0  0  0  0  0
    5.0126    3.8545   -4.6913 C   0  0  0  0  0  0  0  0  0  0  0  0
    4.9632    4.2783   -3.6230 N   0  0  0  0  0  0  0  0  0  0  0  0
   -7.2556   -0.2266    4.5213 H   0  0  0  0  0  0  0  0  0  0  0  0
   -8.3094   -1.3542   -1.5423 H   0  0  0  0  0  0  0  0  0  0  0  0
  -11.7839   -2.3548    2.0038 H   0  0  0  0  0  0  0  0  0  0  0  0
  -13.2466   -2.1283   -1.0946 H   0  0  0  0  0  0  0  0  0  0  0  0
  -13.0800   -4.6957   -0.3997 H   0  0  0  0  0  0  0  0  0  0  0  0
  -14.3159   -4.5426   -2.7171 H   0  0  0  0  0  0  0  0  0  0  0  0
  -12.4963   -4.0623   -4.5916 H   0  0  0  0  0  0  0  0  0  0  0  0
  -10.1440   -3.9166   -3.4311 H   0  0  0  0  0  0  0  0  0  0  0  0
  -11.1900   -5.7958   -1.8850 H   0  0  0  0  0  0  0  0  0  0  0  0
  -10.4439   -4.5730   -0.8337 H   0  0  0  0  0  0  0  0  0  0  0  0
  -11.4769   -1.6598   -2.9453 H   0  0  0  0  0  0  0  0  0  0  0  0
   -3.5278   -4.5708    1.3529 H   0  0  0  0  0  0  0  0  0  0  0  0
   -1.7436   -4.9079   -0.2812 H   0  0  0  0  0  0  0  0  0  0  0  0
   -0.4102   -5.4231   -2.1418 H   0  0  0  0  0  0  0  0  0  0  0  0
    0.5026   -4.5931   -0.8371 H   0  0  0  0  0  0  0  0  0  0  0  0
    1.1234   -4.6021   -2.5023 H   0  0  0  0  0  0  0  0  0  0  0  0
   -2.4602   -1.0060   -1.8790 H   0  0  0  0  0  0  0  0  0  0  0  0
   -4.2763   -0.6740   -0.2058 H   0  0  0  0  0  0  0  0  0  0  0  0
   -6.1154   -3.4583   -0.2825 H   0  0  0  0  0  0  0  0  0  0  0  0
   -8.1163   -4.8848   -0.1889 H   0  0  0  0  0  0  0  0  0  0  0  0
  -11.1130   -6.6348    3.5734 H   0  0  0  0  0  0  0  0  0  0  0  0
   -9.4296   -6.5057    4.1276 H   0  0  0  0  0  0  0  0  0  0  0  0
  -10.4860   -5.0532    4.0727 H   0  0  0  0  0  0  0  0  0  0  0  0
   -8.1201   -4.5783    4.0795 H   0  0  0  0  0  0  0  0  0  0  0  0
   -6.1363   -3.1889    3.9867 H   0  0  0  0  0  0  0  0  0  0  0  0
    0.1794    3.6117    5.3723 H   0  0  0  0  0  0  0  0  0  0  0  0
    2.3750    3.5039    6.4913 H   0  0  0  0  0  0  0  0  0  0  0  0
    3.8632   -0.9953    8.0361 H   0  0  0  0  0  0  0  0  0  0  0  0
    4.4236    0.0565    9.3572 H   0  0  0  0  0  0  0  0  0  0  0  0
    2.6904   -0.0091    8.9618 H   0  0  0  0  0  0  0  0  0  0  0  0
    2.1994   -0.7641    6.4084 H   0  0  0  0  0  0  0  0  0  0  0  0
    0.0067   -0.6611    5.3468 H   0  0  0  0  0  0  0  0  0  0  0  0
   -1.6424    2.5251    7.1981 H   0  0  0  0  0  0  0  0  0  0  0  0
   -3.2041    4.3010    7.8820 H   0  0  0  0  0  0  0  0  0  0  0  0
   -6.9531    6.8486    5.5237 H   0  0  0  0  0  0  0  0  0  0  0  0
   -6.6641    5.2413    4.8198 H   0  0  0  0  0  0  0  0  0  0  0  0
   -5.6594    6.6434    4.3244 H   0  0  0  0  0  0  0  0  0  0  0  0
   -4.5770    4.6394    3.8453 H   0  0  0  0  0  0  0  0  0  0  0  0
   -3.0241    2.8951    3.1711 H   0  0  0  0  0  0  0  0  0  0  0  0
   -1.0627    4.0488    1.8886 H   0  0  0  0  0  0  0  0  0  0  0  0
    0.3371    3.6610    0.8572 H   0  0  0  0  0  0  0  0  0  0  0  0
   -2.1666    1.9143    1.1318 H   0  0  0  0  0  0  0  0  0  0  0  0
   -0.7667    1.5551    0.1204 H   0  0  0  0  0  0  0  0  0  0  0  0
   -1.7749    2.9695   -0.2311 H   0  0  0  0  0  0  0  0  0  0  0  0
    2.6575    4.9058    1.9752 H   0  0  0  0  0  0  0  0  0  0  0  0
    1.6795    3.8831    3.0608 H   0  0  0  0  0  0  0  0  0  0  0  0
    3.7651    2.7529    3.8522 H   0  0  0  0  0  0  0  0  0  0  0  0
    3.7919    4.4929    4.1662 H   0  0  0  0  0  0  0  0  0  0  0  0
    4.7220    3.8271    2.8174 H   0  0  0  0  0  0  0  0  0  0  0  0
    8.3631    1.7146    2.0883 H   0  0  0  0  0  0  0  0  0  0  0  0
    9.9123    3.6188    1.8741 H   0  0  0  0  0  0  0  0  0  0  0  0
    8.6920    6.7916   -1.3470 H   0  0  0  0  0  0  0  0  0  0  0  0
    8.1227    7.8210    0.0074 H   0  0  0  0  0  0  0  0  0  0  0  0
    9.7537    8.0424   -0.6595 H   0  0  0  0  0  0  0  0  0  0  0  0
    6.8698    5.8626   -0.1295 H   0  0  0  0  0  0  0  0  0  0  0  0
    5.3352    3.9878    0.1025 H   0  0  0  0  0  0  0  0  0  0  0  0
    6.4189    2.3215    3.6818 H   0  0  0  0  0  0  0  0  0  0  0  0
    6.2476    0.9063    5.6418 H   0  0  0  0  0  0  0  0  0  0  0  0
    6.4615   -0.3757    7.5017 H   0  0  0  0  0  0  0  0  0  0  0  0
    7.6671   -1.2017    6.4692 H   0  0  0  0  0  0  0  0  0  0  0  0
    6.8773   -2.0783    7.8027 H   0  0  0  0  0  0  0  0  0  0  0  0
    4.9692   -2.3548    3.1904 H   0  0  0  0  0  0  0  0  0  0  0  0
    5.1543   -0.9374    1.2058 H   0  0  0  0  0  0  0  0  0  0  0  0
    3.1601   -1.3848   -5.1735 H   0  0  0  0  0  0  0  0  0  0  0  0
    0.7113   -1.6012   -4.9553 H   0  0  0  0  0  0  0  0  0  0  0  0
   -3.0092    1.5412   -3.3781 H   0  0  0  0  0  0  0  0  0  0  0  0
   -1.8240    2.5222   -4.2655 H   0  0  0  0  0  0  0  0  0  0  0  0
   -1.4497    1.9260   -2.6144 H   0  0  0  0  0  0  0  0  0  0  0  0
    0.4623    2.5247   -3.8471 H   0  0  0  0  0  0  0  0  0  0  0  0
    2.8737    2.7231   -4.0227 H   0  0  0  0  0  0  0  0  0  0  0  0
    6.8681   -0.6209   -4.7351 H   0  0  0  0  0  0  0  0  0  0  0  0
    7.9813   -1.4988   -6.7007 H   0  0  0  0  0  0  0  0  0  0  0  0
    9.0406   -2.5448   -8.5011 H   0  0  0  0  0  0  0  0  0  0  0  0
    9.3225   -0.7727   -8.5081 H   0  0  0  0  0  0  0  0  0  0  0  0
    9.5195   -1.7222  -10.0001 H   0  0  0  0  0  0  0  0  0  0  0  0
    4.7515   -0.1320   -9.1502 H   0  0  0  0  0  0  0  0  0  0  0  0
    3.6457    0.8028   -7.1624 H   0  0  0  0  0  0  0  0  0  0  0  0
    8.5719    2.0080   -4.2803 H   0  0  0  0  0  0  0  0  0  0  0  0
    4.6875    3.1813   -9.3162 H   0  0  0  0  0  0  0  0  0  0  0  0
  1  2  2  0  0  0  0
  2  3  1  0  0  0  0
  3  4  2  0  0  0  0
  3  5  1  0  0  0  0
  5  6  2  0  0  0  0
  6  7  1  0  0  0  0
  7  8  2  0  0  0  0
  8  9  1  0  0  0  0
  9 10  2  0  0  0  0
 10 11  1  0  0  0  0
 11 12  2  0  0  0  0
 12 13  1  0  0  0  0
 13 14  3  0  0  0  0
 12 15  1  0  0  0  0
 15 16  3  0  0  0  0
  8 17  1  0  0  0  0
 17 18  1  0  0  0  0
 18 19  1  0  0  0  0
 19 20  2  0  0  0  0
 20 21  1  0  0  0  0
 21 22  1  0  0  0  0
 21 23  1  0  0  0  0
  1 24  1  0  0  0  0
 24 25  2  0  0  0  0
 25 26  1  0  0  0  0
 26 27  1  0  0  0  0
 27 28  2  0  0  0  0
 28 29  1  0  0  0  0
 29 30  2  0  0  0  0
 30 31  1  0  0  0  0
 31 32  1  0  0  0  0
 30 33  1  0  0  0  0
 33 34  2  0  0  0  0
 26 35  1  0  0  0  0
 35 36  2  0  0  0  0
 36 37  1  0  0  0  0
 37 38  2  0  0  0  0
 38 39  1  0  0  0  0
 39 40  1  0  0  0  0
 38 41  1  0  0  0  0
 41 42  2  0  0  0  0
 25 43  1  0  0  0  0
 43 44  1  0  0  0  0
 44 45  1  0  0  0  0
 45 46  2  0  0  0  0
 46 47  1  0  0  0  0
 47 48  1  0  0  0  0
 48 49  2  0  0  0  0
 49 50  1  0  0  0  0
 50 51  2  0  0  0  0
 51 52  1  0  0  0  0
 52 53  1  0  0  0  0
 51 54  1  0  0  0  0
 54 55  2  0  0  0  0
 47 56  1  0  0  0  0
 56 57  2  0  0  0  0
 57 58  1  0  0  0  0
 58 59  2  0  0  0  0
 59 60  1  0  0  0  0
 60 61  1  0  0  0  0
 59 62  1  0  0  0  0
 62 63  2  0  0  0  0
 46 64  1  0  0  0  0
 64 65  1  0  0  0  0
 45 66  1  0  0  0  0
 66 67  2  0  0  0  0
 67 68  1  0  0  0  0
 68 69  1  0  0  0  0
 69 70  1  0  0  0  0
 67 71  1  0  0  0  0
 71 72  1  0  0  0  0
 72 73  1  0  0  0  0
 73 74  1  0  0  0  0
 71 75  2  0  0  0  0
 75 76  1  0  0  0  0
 76 77  1  0  0  0  0
 77 78  2  0  0  0  0
 78 79  1  0  0  0  0
 79 80  1  0  0  0  0
 75 81  1  0  0  0  0
 81 82  2  0  0  0  0
 82 83  1  0  0  0  0
 83 84  1  0  0  0  0
 84 85  2  0  0  0  0
 85 86  1  0  0  0  0
 86 87  2  0  0  0  0
 87 88  1  0  0  0  0
 88 89  1  0  0  0  0
 87 90  1  0  0  0  0
 90 91  2  0  0  0  0
 83 92  1  0  0  0  0
 92 93  2  0  0  0  0
 93 94  1  0  0  0  0
 94 95  2  0  0  0  0
 95 96  1  0  0  0  0
 96 97  1  0  0  0  0
 95 98  1  0  0  0  0
 98 99  2  0  0  0  0
 82100  1  0  0  0  0
100101  1  0  0  0  0
101102  1  0  0  0  0
102103  2  0  0  0  0
103104  1  0  0  0  0
104105  1  0  0  0  0
105106  2  0  0  0  0
106107  1  0  0  0  0
107108  2  0  0  0  0
108109  1  0  0  0  0
109110  1  0  0  0  0
108111  1  0  0  0  0
111112  2  0  0  0  0
104113  1  0  0  0  0
113114  2  0  0  0  0
114115  1  0  0  0  0
115116  2  0  0  0  0
116117  1  0  0  0  0
117118  1  0  0  0  0
116119  1  0  0  0  0
119120  2  0  0  0  0
103121  1  0  0  0  0
121122  1  0  0  0  0
102123  1  0  0  0  0
123124  2  0  0  0  0
124125  1  0  0  0  0
125126  2  0  0  0  0
125127  1  0  0  0  0
127128  1  0  0  0  0
128129  2  0  0  0  0
129130  1  0  0  0  0
130131  1  0  0  0  0
131132  1  0  0  0  0
128133  1  0  0  0  0
133134  2  0  0  0  0
134135  1  0  0  0  0
135136  3  0  0  0  0
134137  1  0  0  0  0
137138  3  0  0  0  0
 11  2  1  0  0  0  0
 23 17  1  0  0  0  0
 65 24  1  0  0  0  0
 77 66  1  0  0  0  0
122 81  1  0  0  0  0
133124  1  0  0  0  0
 10  5  1  0  0  0  0
 22 18  1  0  0  0  0
 34 27  1  0  0  0  0
 42 35  1  0  0  0  0
 64 43  2  0  0  0  0
 80 76  2  0  0  0  0
 91 84  1  0  0  0  0
 99 92  1  0  0  0  0
121100  2  0  0  0  0
131127  2  0  0  0  0
 23  7  1  0  0  0  0
 55 48  1  0  0  0  0
 63 56  1  0  0  0  0
112105  1  0  0  0  0
120113  1  0  0  0  0
  1139  1  0  0  0  0
  6140  1  0  0  0  0
  9141  1  0  0  0  0
 17142  1  0  0  0  0
 18143  1  0  0  0  0
 19144  1  0  0  0  0
 20145  1  0  0  0  0
 21146  1  0  0  0  0
 22147  1  0  0  0  0
 22148  1  0  0  0  0
 23149  1  0  0  0  0
 28150  1  0  0  0  0
 29151  1  0  0  0  0
 32152  1  0  0  0  0
 32153  1  0  0  0  0
 32154  1  0  0  0  0
 33155  1  0  0  0  0
 34156  1  0  0  0  0
 36157  1  0  0  0  0
 37158  1  0  0  0  0
 40159  1  0  0  0  0
 40160  1  0  0  0  0
 40161  1  0  0  0  0
 41162  1  0  0  0  0
 42163  1  0  0  0  0
 49164  1  0  0  0  0
 50165  1  0  0  0  0
 53166  1  0  0  0  0
 53167  1  0  0  0  0
 53168  1  0  0  0  0
 54169  1  0  0  0  0
 55170  1  0  0  0  0
 57171  1  0  0  0  0
 58172  1  0  0  0  0
 61173  1  0  0  0  0
 61174  1  0  0  0  0
 61175  1  0  0  0  0
 62176  1  0  0  0  0
 63177  1  0  0  0  0
 69178  1  0  0  0  0
 69179  1  0  0  0  0
 70180  1  0  0  0  0
 70181  1  0  0  0  0
 70182  1  0  0  0  0
 73183  1  0  0  0  0
 73184  1  0  0  0  0
 74185  1  0  0  0  0
 74186  1  0  0  0  0
 74187  1  0  0  0  0
 85188  1  0  0  0  0
 86189  1  0  0  0  0
 89190  1  0  0  0  0
 89191  1  0  0  0  0
 89192  1  0  0  0  0
 90193  1  0  0  0  0
 91194  1  0  0  0  0
 93195  1  0  0  0  0
 94196  1  0  0  0  0
 97197  1  0  0  0  0
 97198  1  0  0  0  0
 97199  1  0  0  0  0
 98200  1  0  0  0  0
 99201  1  0  0  0  0
106202  1  0  0  0  0
107203  1  0  0  0  0
110204  1  0  0  0  0
110205  1  0  0  0  0
110206  1  0  0  0  0
111207  1  0  0  0  0
112208  1  0  0  0  0
114209  1  0  0  0  0
115210  1  0  0  0  0
118211  1  0  0  0  0
118212  1  0  0  0  0
118213  1  0  0  0  0
119214  1  0  0  0  0
120215  1  0  0  0  0
123216  1  0  0  0  0
129217  1  0  0  0  0
M  END
