
  xtb     02092202013D
 energy: -428.188735934268 gnorm: 0.000299196693 xtb: 6.4.1 (unknown)
262289  0     0  0            999 V2000
   -4.7640   -6.1298    5.0229 C   0  0  0  0  0  0  0  0  0  0  0  0
   -4.0565   -6.8139    5.9885 C   0  0  0  0  0  0  0  0  0  0  0  0
   -2.7135   -7.3820    5.7880 C   0  0  0  0  0  0  0  0  0  0  0  0
   -2.0471   -7.3553    4.7680 O   0  0  0  0  0  0  0  0  0  0  0  0
   -2.3980   -8.1145    7.0321 C   0  0  0  0  0  0  0  0  0  0  0  0
   -1.2236   -8.7969    7.3347 C   0  0  0  0  0  0  0  0  0  0  0  0
   -1.2060   -9.3548    8.5914 C   0  0  0  0  0  0  0  0  0  0  0  0
   -2.2882   -9.2658    9.4751 C   0  0  0  0  0  0  0  0  0  0  0  0
   -3.4592   -8.6074    9.1842 C   0  0  0  0  0  0  0  0  0  0  0  0
   -3.4869   -8.0143    7.9199 C   0  0  0  0  0  0  0  0  0  0  0  0
   -4.5234   -7.2014    7.2896 C   0  0  0  0  0  0  0  0  0  0  0  0
   -5.6606   -6.7321    7.9042 C   0  0  0  0  0  0  0  0  0  0  0  0
   -6.5507   -5.8091    7.3263 C   0  0  0  0  0  0  0  0  0  0  0  0
   -7.3021   -5.0253    6.9482 N   0  0  0  0  0  0  0  0  0  0  0  0
   -6.0367   -7.0276    9.2268 C   0  0  0  0  0  0  0  0  0  0  0  0
   -6.3921   -7.1958   10.3070 N   0  0  0  0  0  0  0  0  0  0  0  0
   -1.5835  -10.0591   10.5476 C   0  0  0  0  0  0  0  0  0  0  0  0
   -1.0092   -9.2575   11.7344 C   0  0  0  0  0  0  0  0  0  0  0  0
    0.0120  -10.1908   12.3427 C   0  0  0  0  0  0  0  0  0  0  0  0
    1.0418  -10.2606   11.5089 C   0  0  0  0  0  0  0  0  0  0  0  0
    0.7326   -9.3766   10.3219 C   0  0  0  0  0  0  0  0  0  0  0  0
   -0.0759   -8.2745   11.0178 C   0  0  0  0  0  0  0  0  0  0  0  0
   -0.3708  -10.1479    9.5663 C   0  0  0  0  0  0  0  0  0  0  0  0
   -4.2142   -5.3904    3.9738 C   0  0  0  0  0  0  0  0  0  0  0  0
   -2.9553   -4.7832    3.8098 C   0  0  0  0  0  0  0  0  0  0  0  0
   -1.9254   -4.6864    4.7067 N   0  0  0  0  0  0  0  0  0  0  0  0
   -2.0474   -4.7396    6.0955 C   0  0  0  0  0  0  0  0  0  0  0  0
   -3.1770   -4.2671    6.7595 C   0  0  0  0  0  0  0  0  0  0  0  0
   -3.2891   -4.3787    8.1318 C   0  0  0  0  0  0  0  0  0  0  0  0
   -2.2717   -4.9676    8.8722 C   0  0  0  0  0  0  0  0  0  0  0  0
   -2.3361   -5.2488   10.6081 S   0  0  0  0  0  0  0  0  0  0  0  0
   -3.9154   -4.5249   11.1273 C   0  0  0  0  0  0  0  0  0  0  0  0
   -1.1121   -5.3855    8.2177 C   0  0  0  0  0  0  0  0  0  0  0  0
   -1.0004   -5.2764    6.8522 C   0  0  0  0  0  0  0  0  0  0  0  0
   -0.6309   -4.4816    4.1719 C   0  0  0  0  0  0  0  0  0  0  0  0
   -0.1111   -5.3949    3.2584 C   0  0  0  0  0  0  0  0  0  0  0  0
    1.1273   -5.1721    2.6927 C   0  0  0  0  0  0  0  0  0  0  0  0
    1.8504   -4.0396    3.0380 C   0  0  0  0  0  0  0  0  0  0  0  0
    3.4335   -3.7192    2.2836 S   0  0  0  0  0  0  0  0  0  0  0  0
    4.3523   -5.1704    2.8875 C   0  0  0  0  0  0  0  0  0  0  0  0
    1.3445   -3.1370    3.9623 C   0  0  0  0  0  0  0  0  0  0  0  0
    0.1088   -3.3612    4.5375 C   0  0  0  0  0  0  0  0  0  0  0  0
   -2.8893   -4.1266    2.5574 C   0  0  0  0  0  0  0  0  0  0  0  0
   -1.6509   -3.1988    1.7965 S   0  0  0  0  0  0  0  0  0  0  0  0
   -2.7489   -2.7645    0.4990 C   0  0  0  0  0  0  0  0  0  0  0  0
   -3.9712   -3.4099    0.5879 C   0  0  0  0  0  0  0  0  0  0  0  0
   -4.9131   -3.3846   -0.4218 N   0  0  0  0  0  0  0  0  0  0  0  0
   -4.4708   -3.1253   -1.7355 C   0  0  0  0  0  0  0  0  0  0  0  0
   -3.3549   -3.7766   -2.2501 C   0  0  0  0  0  0  0  0  0  0  0  0
   -2.8383   -3.4277   -3.4819 C   0  0  0  0  0  0  0  0  0  0  0  0
   -3.4422   -2.4218   -4.2228 C   0  0  0  0  0  0  0  0  0  0  0  0
   -2.7735   -1.7882   -5.7294 S   0  0  0  0  0  0  0  0  0  0  0  0
   -1.0880   -2.4621   -5.7551 C   0  0  0  0  0  0  0  0  0  0  0  0
   -4.6263   -1.8489   -3.7621 C   0  0  0  0  0  0  0  0  0  0  0  0
   -5.1365   -2.1937   -2.5287 C   0  0  0  0  0  0  0  0  0  0  0  0
   -6.2620   -3.6975   -0.2161 C   0  0  0  0  0  0  0  0  0  0  0  0
   -6.9378   -3.2800    0.9287 C   0  0  0  0  0  0  0  0  0  0  0  0
   -8.2644   -3.6021    1.1114 C   0  0  0  0  0  0  0  0  0  0  0  0
   -8.9529   -4.3408    0.1526 C   0  0  0  0  0  0  0  0  0  0  0  0
  -10.6485   -4.6873    0.4988 S   0  0  0  0  0  0  0  0  0  0  0  0
  -11.1897   -5.6917   -0.9127 C   0  0  0  0  0  0  0  0  0  0  0  0
   -8.2889   -4.7447   -0.9983 C   0  0  0  0  0  0  0  0  0  0  0  0
   -6.9567   -4.4285   -1.1769 C   0  0  0  0  0  0  0  0  0  0  0  0
   -4.0497   -4.1553    1.7958 C   0  0  0  0  0  0  0  0  0  0  0  0
   -5.2882   -5.0467    2.6039 S   0  0  0  0  0  0  0  0  0  0  0  0
   -2.2465   -1.8013   -0.4461 C   0  0  0  0  0  0  0  0  0  0  0  0
   -2.6205   -0.4849   -0.6284 C   0  0  0  0  0  0  0  0  0  0  0  0
   -3.7032    0.1503   -0.0433 N   0  0  0  0  0  0  0  0  0  0  0  0
   -4.1166   -0.1959    1.2492 C   0  0  0  0  0  0  0  0  0  0  0  0
   -3.1811   -0.4992    2.2391 C   0  0  0  0  0  0  0  0  0  0  0  0
   -3.5948   -0.9587    3.4697 C   0  0  0  0  0  0  0  0  0  0  0  0
   -4.9520   -1.0894    3.7513 C   0  0  0  0  0  0  0  0  0  0  0  0
   -5.3990   -1.7830    5.3136 S   0  0  0  0  0  0  0  0  0  0  0  0
   -7.0701   -2.4269    5.0197 C   0  0  0  0  0  0  0  0  0  0  0  0
   -5.8860   -0.6767    2.8098 C   0  0  0  0  0  0  0  0  0  0  0  0
   -5.4710   -0.2473    1.5634 C   0  0  0  0  0  0  0  0  0  0  0  0
   -4.2927    1.2376   -0.7051 C   0  0  0  0  0  0  0  0  0  0  0  0
   -4.7122    2.3641    0.0038 C   0  0  0  0  0  0  0  0  0  0  0  0
   -5.2390    3.4466   -0.6639 C   0  0  0  0  0  0  0  0  0  0  0  0
   -5.3569    3.4370   -2.0531 C   0  0  0  0  0  0  0  0  0  0  0  0
   -6.0017    4.8980   -2.8041 S   0  0  0  0  0  0  0  0  0  0  0  0
   -6.0214    4.5030   -4.5768 C   0  0  0  0  0  0  0  0  0  0  0  0
   -4.9643    2.3102   -2.7599 C   0  0  0  0  0  0  0  0  0  0  0  0
   -4.4413    1.2222   -2.0891 C   0  0  0  0  0  0  0  0  0  0  0  0
   -1.6965    0.1886   -1.4675 C   0  0  0  0  0  0  0  0  0  0  0  0
   -1.5414    1.8377   -1.9371 S   0  0  0  0  0  0  0  0  0  0  0  0
    0.0179    1.4881   -2.6679 C   0  0  0  0  0  0  0  0  0  0  0  0
    0.3168    0.1357   -2.6772 C   0  0  0  0  0  0  0  0  0  0  0  0
    1.3318   -0.4016   -3.4485 N   0  0  0  0  0  0  0  0  0  0  0  0
    1.9057   -1.6484   -3.1844 C   0  0  0  0  0  0  0  0  0  0  0  0
    2.1059   -2.0862   -1.8797 C   0  0  0  0  0  0  0  0  0  0  0  0
    2.6476   -3.3308   -1.6229 C   0  0  0  0  0  0  0  0  0  0  0  0
    3.0049   -4.1614   -2.6744 C   0  0  0  0  0  0  0  0  0  0  0  0
    3.6983   -5.7727   -2.4691 S   0  0  0  0  0  0  0  0  0  0  0  0
    3.5464   -6.0647   -0.6847 C   0  0  0  0  0  0  0  0  0  0  0  0
    2.8295   -3.7196   -3.9848 C   0  0  0  0  0  0  0  0  0  0  0  0
    2.2858   -2.4811   -4.2400 C   0  0  0  0  0  0  0  0  0  0  0  0
    1.6927    0.2991   -4.6176 C   0  0  0  0  0  0  0  0  0  0  0  0
    0.7134    0.8049   -5.4666 C   0  0  0  0  0  0  0  0  0  0  0  0
    1.0528    1.6180   -6.5285 C   0  0  0  0  0  0  0  0  0  0  0  0
    2.3835    1.9430   -6.7523 C   0  0  0  0  0  0  0  0  0  0  0  0
    2.9052    3.1012   -7.9783 S   0  0  0  0  0  0  0  0  0  0  0  0
    1.3570    3.9196   -8.4601 C   0  0  0  0  0  0  0  0  0  0  0  0
    3.3735    1.3501   -5.9712 C   0  0  0  0  0  0  0  0  0  0  0  0
    3.0334    0.5264   -4.9194 C   0  0  0  0  0  0  0  0  0  0  0  0
   -0.6431   -0.5871   -1.9198 C   0  0  0  0  0  0  0  0  0  0  0  0
   -0.7518   -2.1932   -1.2958 S   0  0  0  0  0  0  0  0  0  0  0  0
    0.8253    2.5866   -3.1130 C   0  0  0  0  0  0  0  0  0  0  0  0
    2.0951    2.9388   -2.6810 C   0  0  0  0  0  0  0  0  0  0  0  0
    2.8156    2.3157   -1.6782 N   0  0  0  0  0  0  0  0  0  0  0  0
    4.1944    2.5857   -1.5592 C   0  0  0  0  0  0  0  0  0  0  0  0
    4.7169    3.0147   -0.3408 C   0  0  0  0  0  0  0  0  0  0  0  0
    6.0615    3.3075   -0.2291 C   0  0  0  0  0  0  0  0  0  0  0  0
    6.9016    3.1697   -1.3229 C   0  0  0  0  0  0  0  0  0  0  0  0
    6.3880    2.7332   -2.5315 C   0  0  0  0  0  0  0  0  0  0  0  0
    5.0411    2.4437   -2.6552 C   0  0  0  0  0  0  0  0  0  0  0  0
    2.1806    1.6899   -0.5902 C   0  0  0  0  0  0  0  0  0  0  0  0
    2.7727    0.5633   -0.0235 C   0  0  0  0  0  0  0  0  0  0  0  0
    2.1526   -0.1014    1.0191 C   0  0  0  0  0  0  0  0  0  0  0  0
    0.9343    0.3448    1.5044 C   0  0  0  0  0  0  0  0  0  0  0  0
    0.3676    1.4935    0.9770 C   0  0  0  0  0  0  0  0  0  0  0  0
    0.9915    2.1751   -0.0517 C   0  0  0  0  0  0  0  0  0  0  0  0
    2.5303    4.1154   -3.3380 C   0  0  0  0  0  0  0  0  0  0  0  0
    3.9736    5.0526   -3.2680 S   0  0  0  0  0  0  0  0  0  0  0  0
    3.2631    6.2903   -4.3034 C   0  0  0  0  0  0  0  0  0  0  0  0
    1.9980    5.9108   -4.7702 C   0  0  0  0  0  0  0  0  0  0  0  0
    1.1919    6.6352   -5.6118 N   0  0  0  0  0  0  0  0  0  0  0  0
   -0.1945    6.6604   -5.3531 C   0  0  0  0  0  0  0  0  0  0  0  0
   -0.6504    6.7875   -4.0427 C   0  0  0  0  0  0  0  0  0  0  0  0
   -2.0080    6.7990   -3.7867 C   0  0  0  0  0  0  0  0  0  0  0  0
   -2.9180    6.6991   -4.8261 C   0  0  0  0  0  0  0  0  0  0  0  0
   -2.4644    6.5798   -6.1295 C   0  0  0  0  0  0  0  0  0  0  0  0
   -1.1082    6.5551   -6.3976 C   0  0  0  0  0  0  0  0  0  0  0  0
    1.7172    7.3453   -6.6995 C   0  0  0  0  0  0  0  0  0  0  0  0
    2.8087    6.8403   -7.4060 C   0  0  0  0  0  0  0  0  0  0  0  0
    3.3151    7.5354   -8.4871 C   0  0  0  0  0  0  0  0  0  0  0  0
    2.7411    8.7331   -8.8807 C   0  0  0  0  0  0  0  0  0  0  0  0
    1.6560    9.2359   -8.1812 C   0  0  0  0  0  0  0  0  0  0  0  0
    1.1443    8.5520   -7.0952 C   0  0  0  0  0  0  0  0  0  0  0  0
    1.5905    4.6926   -4.1756 C   0  0  0  0  0  0  0  0  0  0  0  0
    0.1357    3.7643   -4.2216 S   0  0  0  0  0  0  0  0  0  0  0  0
    3.9650    7.4917   -4.5205 C   0  0  0  0  0  0  0  0  0  0  0  0
    4.9069    8.0430   -3.6970 C   0  0  0  0  0  0  0  0  0  0  0  0
    5.8844    9.0221   -4.2276 C   0  0  0  0  0  0  0  0  0  0  0  0
    5.8330    9.6023   -5.2908 O   0  0  0  0  0  0  0  0  0  0  0  0
    6.9561    9.0919   -3.2105 C   0  0  0  0  0  0  0  0  0  0  0  0
    8.1583    9.7911   -3.2934 C   0  0  0  0  0  0  0  0  0  0  0  0
    8.9691    9.6458   -2.1927 C   0  0  0  0  0  0  0  0  0  0  0  0
    8.6162    8.8605   -1.0875 C   0  0  0  0  0  0  0  0  0  0  0  0
    7.4311    8.1718   -0.9863 C   0  0  0  0  0  0  0  0  0  0  0  0
    6.5917    8.3105   -2.0941 C   0  0  0  0  0  0  0  0  0  0  0  0
    5.2509    7.7788   -2.3204 C   0  0  0  0  0  0  0  0  0  0  0  0
    4.3883    7.3602   -1.3359 C   0  0  0  0  0  0  0  0  0  0  0  0
    3.0080    7.1846   -1.5545 C   0  0  0  0  0  0  0  0  0  0  0  0
    1.8695    7.0935   -1.6831 N   0  0  0  0  0  0  0  0  0  0  0  0
    4.7554    7.1213    0.0003 C   0  0  0  0  0  0  0  0  0  0  0  0
    4.9991    6.8745    1.0957 N   0  0  0  0  0  0  0  0  0  0  0  0
    9.9038    9.1596   -0.3608 C   0  0  0  0  0  0  0  0  0  0  0  0
   10.9779    8.0516   -0.3724 C   0  0  0  0  0  0  0  0  0  0  0  0
   12.2548    8.7820   -0.0250 C   0  0  0  0  0  0  0  0  0  0  0  0
   12.5896    9.5279   -1.0701 C   0  0  0  0  0  0  0  0  0  0  0  0
   11.5450    9.3135   -2.1415 C   0  0  0  0  0  0  0  0  0  0  0  0
   11.1932    7.8438   -1.8770 C   0  0  0  0  0  0  0  0  0  0  0  0
   10.2975   10.0373   -1.5918 C   0  0  0  0  0  0  0  0  0  0  0  0
   -5.8467   -6.1636    5.0519 H   0  0  0  0  0  0  0  0  0  0  0  0
   -0.4148   -8.8529    6.6226 H   0  0  0  0  0  0  0  0  0  0  0  0
   -4.2895   -8.5559    9.8687 H   0  0  0  0  0  0  0  0  0  0  0  0
   -2.0725  -10.9824   10.8527 H   0  0  0  0  0  0  0  0  0  0  0  0
   -1.7544   -8.8385   12.4043 H   0  0  0  0  0  0  0  0  0  0  0  0
   -0.1374  -10.7298   13.2599 H   0  0  0  0  0  0  0  0  0  0  0  0
    1.9231  -10.8698   11.5900 H   0  0  0  0  0  0  0  0  0  0  0  0
    1.5761   -9.0700    9.7084 H   0  0  0  0  0  0  0  0  0  0  0  0
    0.5271   -7.6959   11.7153 H   0  0  0  0  0  0  0  0  0  0  0  0
   -0.5936   -7.5995   10.3402 H   0  0  0  0  0  0  0  0  0  0  0  0
   -0.0459  -11.1299    9.2263 H   0  0  0  0  0  0  0  0  0  0  0  0
   -3.9723   -3.7944    6.2051 H   0  0  0  0  0  0  0  0  0  0  0  0
   -4.1840   -4.0087    8.6059 H   0  0  0  0  0  0  0  0  0  0  0  0
   -3.9349   -4.6217   12.2083 H   0  0  0  0  0  0  0  0  0  0  0  0
   -4.7439   -5.0809   10.6982 H   0  0  0  0  0  0  0  0  0  0  0  0
   -3.9506   -3.4756   10.8501 H   0  0  0  0  0  0  0  0  0  0  0  0
   -0.3071   -5.8130    8.7952 H   0  0  0  0  0  0  0  0  0  0  0  0
   -0.1110   -5.6308    6.3540 H   0  0  0  0  0  0  0  0  0  0  0  0
   -0.6876   -6.2734    3.0138 H   0  0  0  0  0  0  0  0  0  0  0  0
    1.5282   -5.8755    1.9784 H   0  0  0  0  0  0  0  0  0  0  0  0
    3.8931   -6.0838    2.5224 H   0  0  0  0  0  0  0  0  0  0  0  0
    4.3646   -5.1540    3.9732 H   0  0  0  0  0  0  0  0  0  0  0  0
    5.3626   -5.0784    2.5023 H   0  0  0  0  0  0  0  0  0  0  0  0
    1.9183   -2.2600    4.2201 H   0  0  0  0  0  0  0  0  0  0  0  0
   -0.2947   -2.6665    5.2594 H   0  0  0  0  0  0  0  0  0  0  0  0
   -2.8664   -4.5430   -1.6667 H   0  0  0  0  0  0  0  0  0  0  0  0
   -1.9579   -3.9360   -3.8399 H   0  0  0  0  0  0  0  0  0  0  0  0
   -1.1092   -3.5245   -5.9806 H   0  0  0  0  0  0  0  0  0  0  0  0
   -0.5698   -1.9299   -6.5472 H   0  0  0  0  0  0  0  0  0  0  0  0
   -0.6033   -2.2749   -4.8013 H   0  0  0  0  0  0  0  0  0  0  0  0
   -5.1241   -1.1107   -4.3728 H   0  0  0  0  0  0  0  0  0  0  0  0
   -6.0329   -1.7201   -2.1570 H   0  0  0  0  0  0  0  0  0  0  0  0
   -6.4183   -2.6791    1.6563 H   0  0  0  0  0  0  0  0  0  0  0  0
   -8.7889   -3.2798    1.9981 H   0  0  0  0  0  0  0  0  0  0  0  0
  -12.2268   -5.9414   -0.7114 H   0  0  0  0  0  0  0  0  0  0  0  0
  -11.1219   -5.1142   -1.8302 H   0  0  0  0  0  0  0  0  0  0  0  0
  -10.5967   -6.5998   -0.9708 H   0  0  0  0  0  0  0  0  0  0  0  0
   -8.7930   -5.3135   -1.7627 H   0  0  0  0  0  0  0  0  0  0  0  0
   -6.4466   -4.7541   -2.0717 H   0  0  0  0  0  0  0  0  0  0  0  0
   -2.1290   -0.3852    2.0259 H   0  0  0  0  0  0  0  0  0  0  0  0
   -2.8715   -1.2264    4.2252 H   0  0  0  0  0  0  0  0  0  0  0  0
   -7.0858   -2.9647    4.0764 H   0  0  0  0  0  0  0  0  0  0  0  0
   -7.2713   -3.1155    5.8362 H   0  0  0  0  0  0  0  0  0  0  0  0
   -7.7937   -1.6170    5.0290 H   0  0  0  0  0  0  0  0  0  0  0  0
   -6.9413   -0.7032    3.0322 H   0  0  0  0  0  0  0  0  0  0  0  0
   -6.2025    0.0327    0.8199 H   0  0  0  0  0  0  0  0  0  0  0  0
   -4.6078    2.3902    1.0782 H   0  0  0  0  0  0  0  0  0  0  0  0
   -5.5509    4.3232   -0.1169 H   0  0  0  0  0  0  0  0  0  0  0  0
   -5.0107    4.3085   -4.9247 H   0  0  0  0  0  0  0  0  0  0  0  0
   -6.4203    5.3850   -5.0686 H   0  0  0  0  0  0  0  0  0  0  0  0
   -6.6756    3.6556   -4.7606 H   0  0  0  0  0  0  0  0  0  0  0  0
   -5.0510    2.2616   -3.8329 H   0  0  0  0  0  0  0  0  0  0  0  0
   -4.1374    0.3498   -2.6465 H   0  0  0  0  0  0  0  0  0  0  0  0
    1.8591   -1.4393   -1.0553 H   0  0  0  0  0  0  0  0  0  0  0  0
    2.7907   -3.6207   -0.5953 H   0  0  0  0  0  0  0  0  0  0  0  0
    4.1743   -5.3657   -0.1403 H   0  0  0  0  0  0  0  0  0  0  0  0
    3.8904   -7.0816   -0.5216 H   0  0  0  0  0  0  0  0  0  0  0  0
    2.5045   -5.9682   -0.3927 H   0  0  0  0  0  0  0  0  0  0  0  0
    3.1183   -4.3649   -4.8005 H   0  0  0  0  0  0  0  0  0  0  0  0
    2.1482   -2.1530   -5.2599 H   0  0  0  0  0  0  0  0  0  0  0  0
   -0.3276    0.5899   -5.2757 H   0  0  0  0  0  0  0  0  0  0  0  0
    0.2680    2.0037   -7.1581 H   0  0  0  0  0  0  0  0  0  0  0  0
    0.7493    3.2501   -9.0623 H   0  0  0  0  0  0  0  0  0  0  0  0
    1.6506    4.7824   -9.0508 H   0  0  0  0  0  0  0  0  0  0  0  0
    0.8244    4.2417   -7.5696 H   0  0  0  0  0  0  0  0  0  0  0  0
    4.4093    1.5659   -6.1862 H   0  0  0  0  0  0  0  0  0  0  0  0
    3.7967    0.0727   -4.3045 H   0  0  0  0  0  0  0  0  0  0  0  0
    4.0602    3.1340    0.5082 H   0  0  0  0  0  0  0  0  0  0  0  0
    6.4505    3.6595    0.7142 H   0  0  0  0  0  0  0  0  0  0  0  0
    7.9515    3.4039   -1.2331 H   0  0  0  0  0  0  0  0  0  0  0  0
    7.0364    2.6201   -3.3876 H   0  0  0  0  0  0  0  0  0  0  0  0
    4.6353    2.1158   -3.5994 H   0  0  0  0  0  0  0  0  0  0  0  0
    3.7157    0.2086   -0.4134 H   0  0  0  0  0  0  0  0  0  0  0  0
    2.6143   -0.9839    1.4386 H   0  0  0  0  0  0  0  0  0  0  0  0
    0.4414   -0.1952    2.2996 H   0  0  0  0  0  0  0  0  0  0  0  0
   -0.5639    1.8723    1.3724 H   0  0  0  0  0  0  0  0  0  0  0  0
    0.5662    3.0920   -0.4314 H   0  0  0  0  0  0  0  0  0  0  0  0
    0.0607    6.8875   -3.2361 H   0  0  0  0  0  0  0  0  0  0  0  0
   -2.3580    6.8957   -2.7704 H   0  0  0  0  0  0  0  0  0  0  0  0
   -3.9764    6.7238   -4.6175 H   0  0  0  0  0  0  0  0  0  0  0  0
   -3.1685    6.5013   -6.9451 H   0  0  0  0  0  0  0  0  0  0  0  0
   -0.7520    6.4592   -7.4135 H   0  0  0  0  0  0  0  0  0  0  0  0
    3.2559    5.9046   -7.1042 H   0  0  0  0  0  0  0  0  0  0  0  0
    4.1612    7.1351   -9.0251 H   0  0  0  0  0  0  0  0  0  0  0  0
    3.1403    9.2740   -9.7246 H   0  0  0  0  0  0  0  0  0  0  0  0
    1.2096   10.1734   -8.4766 H   0  0  0  0  0  0  0  0  0  0  0  0
    0.3072    8.9505   -6.5417 H   0  0  0  0  0  0  0  0  0  0  0  0
    3.7976    8.0187   -5.4537 H   0  0  0  0  0  0  0  0  0  0  0  0
    8.3934   10.3892   -4.1599 H   0  0  0  0  0  0  0  0  0  0  0  0
    7.1658    7.5672   -0.1345 H   0  0  0  0  0  0  0  0  0  0  0  0
    9.7992    9.6408    0.6099 H   0  0  0  0  0  0  0  0  0  0  0  0
   10.7359    7.1770    0.2254 H   0  0  0  0  0  0  0  0  0  0  0  0
   12.7357    8.7271    0.9341 H   0  0  0  0  0  0  0  0  0  0  0  0
   13.4063   10.2203   -1.1581 H   0  0  0  0  0  0  0  0  0  0  0  0
   11.8215    9.5878   -3.1561 H   0  0  0  0  0  0  0  0  0  0  0  0
   12.0284    7.1768   -2.0854 H   0  0  0  0  0  0  0  0  0  0  0  0
   10.3084    7.4973   -2.4078 H   0  0  0  0  0  0  0  0  0  0  0  0
   10.4558   11.1035   -1.4407 H   0  0  0  0  0  0  0  0  0  0  0  0
  1  2  2  0  0  0  0
  2  3  1  0  0  0  0
  3  4  2  0  0  0  0
  3  5  1  0  0  0  0
  5  6  2  0  0  0  0
  6  7  1  0  0  0  0
  7  8  2  0  0  0  0
  8  9  1  0  0  0  0
  9 10  2  0  0  0  0
 10 11  1  0  0  0  0
 11 12  2  0  0  0  0
 12 13  1  0  0  0  0
 13 14  3  0  0  0  0
 12 15  1  0  0  0  0
 15 16  3  0  0  0  0
  8 17  1  0  0  0  0
 17 18  1  0  0  0  0
 18 19  1  0  0  0  0
 19 20  2  0  0  0  0
 20 21  1  0  0  0  0
 21 22  1  0  0  0  0
 21 23  1  0  0  0  0
  1 24  1  0  0  0  0
 24 25  2  0  0  0  0
 25 26  1  0  0  0  0
 26 27  1  0  0  0  0
 27 28  2  0  0  0  0
 28 29  1  0  0  0  0
 29 30  2  0  0  0  0
 30 31  1  0  0  0  0
 31 32  1  0  0  0  0
 30 33  1  0  0  0  0
 33 34  2  0  0  0  0
 26 35  1  0  0  0  0
 35 36  2  0  0  0  0
 36 37  1  0  0  0  0
 37 38  2  0  0  0  0
 38 39  1  0  0  0  0
 39 40  1  0  0  0  0
 38 41  1  0  0  0  0
 41 42  2  0  0  0  0
 25 43  1  0  0  0  0
 43 44  1  0  0  0  0
 44 45  1  0  0  0  0
 45 46  2  0  0  0  0
 46 47  1  0  0  0  0
 47 48  1  0  0  0  0
 48 49  2  0  0  0  0
 49 50  1  0  0  0  0
 50 51  2  0  0  0  0
 51 52  1  0  0  0  0
 52 53  1  0  0  0  0
 51 54  1  0  0  0  0
 54 55  2  0  0  0  0
 47 56  1  0  0  0  0
 56 57  2  0  0  0  0
 57 58  1  0  0  0  0
 58 59  2  0  0  0  0
 59 60  1  0  0  0  0
 60 61  1  0  0  0  0
 59 62  1  0  0  0  0
 62 63  2  0  0  0  0
 46 64  1  0  0  0  0
 64 65  1  0  0  0  0
 45 66  1  0  0  0  0
 66 67  2  0  0  0  0
 67 68  1  0  0  0  0
 68 69  1  0  0  0  0
 69 70  2  0  0  0  0
 70 71  1  0  0  0  0
 71 72  2  0  0  0  0
 72 73  1  0  0  0  0
 73 74  1  0  0  0  0
 72 75  1  0  0  0  0
 75 76  2  0  0  0  0
 68 77  1  0  0  0  0
 77 78  2  0  0  0  0
 78 79  1  0  0  0  0
 79 80  2  0  0  0  0
 80 81  1  0  0  0  0
 81 82  1  0  0  0  0
 80 83  1  0  0  0  0
 83 84  2  0  0  0  0
 67 85  1  0  0  0  0
 85 86  1  0  0  0  0
 86 87  1  0  0  0  0
 87 88  2  0  0  0  0
 88 89  1  0  0  0  0
 89 90  1  0  0  0  0
 90 91  2  0  0  0  0
 91 92  1  0  0  0  0
 92 93  2  0  0  0  0
 93 94  1  0  0  0  0
 94 95  1  0  0  0  0
 93 96  1  0  0  0  0
 96 97  2  0  0  0  0
 89 98  1  0  0  0  0
 98 99  2  0  0  0  0
 99100  1  0  0  0  0
100101  2  0  0  0  0
101102  1  0  0  0  0
102103  1  0  0  0  0
101104  1  0  0  0  0
104105  2  0  0  0  0
 88106  1  0  0  0  0
106107  1  0  0  0  0
 87108  1  0  0  0  0
108109  2  0  0  0  0
109110  1  0  0  0  0
110111  1  0  0  0  0
111112  2  0  0  0  0
112113  1  0  0  0  0
113114  2  0  0  0  0
114115  1  0  0  0  0
115116  2  0  0  0  0
110117  1  0  0  0  0
117118  2  0  0  0  0
118119  1  0  0  0  0
119120  2  0  0  0  0
120121  1  0  0  0  0
121122  2  0  0  0  0
109123  1  0  0  0  0
123124  1  0  0  0  0
124125  1  0  0  0  0
125126  2  0  0  0  0
126127  1  0  0  0  0
127128  1  0  0  0  0
128129  2  0  0  0  0
129130  1  0  0  0  0
130131  2  0  0  0  0
131132  1  0  0  0  0
132133  2  0  0  0  0
127134  1  0  0  0  0
134135  2  0  0  0  0
135136  1  0  0  0  0
136137  2  0  0  0  0
137138  1  0  0  0  0
138139  2  0  0  0  0
126140  1  0  0  0  0
140141  1  0  0  0  0
125142  1  0  0  0  0
142143  2  0  0  0  0
143144  1  0  0  0  0
144145  2  0  0  0  0
144146  1  0  0  0  0
146147  2  0  0  0  0
147148  1  0  0  0  0
148149  2  0  0  0  0
149150  1  0  0  0  0
150151  2  0  0  0  0
151152  1  0  0  0  0
152153  2  0  0  0  0
153154  1  0  0  0  0
154155  3  0  0  0  0
153156  1  0  0  0  0
156157  3  0  0  0  0
149158  1  0  0  0  0
158159  1  0  0  0  0
159160  1  0  0  0  0
160161  2  0  0  0  0
161162  1  0  0  0  0
162163  1  0  0  0  0
162164  1  0  0  0  0
 11  2  1  0  0  0  0
 23 17  1  0  0  0  0
 65 24  1  0  0  0  0
107 66  1  0  0  0  0
141108  1  0  0  0  0
152143  1  0  0  0  0
164158  1  0  0  0  0
 10  5  1  0  0  0  0
 22 18  1  0  0  0  0
 34 27  1  0  0  0  0
 42 35  1  0  0  0  0
 64 43  2  0  0  0  0
 76 69  1  0  0  0  0
 84 77  1  0  0  0  0
106 85  2  0  0  0  0
116111  1  0  0  0  0
122117  1  0  0  0  0
140123  2  0  0  0  0
151146  1  0  0  0  0
163159  1  0  0  0  0
 23  7  1  0  0  0  0
 55 48  1  0  0  0  0
 63 56  1  0  0  0  0
 97 90  1  0  0  0  0
105 98  1  0  0  0  0
133128  1  0  0  0  0
139134  1  0  0  0  0
164148  1  0  0  0  0
  1165  1  0  0  0  0
  6166  1  0  0  0  0
  9167  1  0  0  0  0
 17168  1  0  0  0  0
 18169  1  0  0  0  0
 19170  1  0  0  0  0
 20171  1  0  0  0  0
 21172  1  0  0  0  0
 22173  1  0  0  0  0
 22174  1  0  0  0  0
 23175  1  0  0  0  0
 28176  1  0  0  0  0
 29177  1  0  0  0  0
 32178  1  0  0  0  0
 32179  1  0  0  0  0
 32180  1  0  0  0  0
 33181  1  0  0  0  0
 34182  1  0  0  0  0
 36183  1  0  0  0  0
 37184  1  0  0  0  0
 40185  1  0  0  0  0
 40186  1  0  0  0  0
 40187  1  0  0  0  0
 41188  1  0  0  0  0
 42189  1  0  0  0  0
 49190  1  0  0  0  0
 50191  1  0  0  0  0
 53192  1  0  0  0  0
 53193  1  0  0  0  0
 53194  1  0  0  0  0
 54195  1  0  0  0  0
 55196  1  0  0  0  0
 57197  1  0  0  0  0
 58198  1  0  0  0  0
 61199  1  0  0  0  0
 61200  1  0  0  0  0
 61201  1  0  0  0  0
 62202  1  0  0  0  0
 63203  1  0  0  0  0
 70204  1  0  0  0  0
 71205  1  0  0  0  0
 74206  1  0  0  0  0
 74207  1  0  0  0  0
 74208  1  0  0  0  0
 75209  1  0  0  0  0
 76210  1  0  0  0  0
 78211  1  0  0  0  0
 79212  1  0  0  0  0
 82213  1  0  0  0  0
 82214  1  0  0  0  0
 82215  1  0  0  0  0
 83216  1  0  0  0  0
 84217  1  0  0  0  0
 91218  1  0  0  0  0
 92219  1  0  0  0  0
 95220  1  0  0  0  0
 95221  1  0  0  0  0
 95222  1  0  0  0  0
 96223  1  0  0  0  0
 97224  1  0  0  0  0
 99225  1  0  0  0  0
100226  1  0  0  0  0
103227  1  0  0  0  0
103228  1  0  0  0  0
103229  1  0  0  0  0
104230  1  0  0  0  0
105231  1  0  0  0  0
112232  1  0  0  0  0
113233  1  0  0  0  0
114234  1  0  0  0  0
115235  1  0  0  0  0
116236  1  0  0  0  0
118237  1  0  0  0  0
119238  1  0  0  0  0
120239  1  0  0  0  0
121240  1  0  0  0  0
122241  1  0  0  0  0
129242  1  0  0  0  0
130243  1  0  0  0  0
131244  1  0  0  0  0
132245  1  0  0  0  0
133246  1  0  0  0  0
135247  1  0  0  0  0
136248  1  0  0  0  0
137249  1  0  0  0  0
138250  1  0  0  0  0
139251  1  0  0  0  0
142252  1  0  0  0  0
147253  1  0  0  0  0
150254  1  0  0  0  0
158255  1  0  0  0  0
159256  1  0  0  0  0
160257  1  0  0  0  0
161258  1  0  0  0  0
162259  1  0  0  0  0
163260  1  0  0  0  0
163261  1  0  0  0  0
164262  1  0  0  0  0
M  END
