
  xtb     02122203293D
 energy: -310.240238640636 gnorm: 0.000589975068 xtb: 6.4.1 (unknown)
181199  0     0  0            999 V2000
    7.7320   -2.4663    3.5184 C   0  0  0  0  0  0  0  0  0  0  0  0
    8.9076   -1.7957    3.6470 C   0  0  0  0  0  0  0  0  0  0  0  0
    9.8650   -2.2174    4.7090 C   0  0  0  0  0  0  0  0  0  0  0  0
    9.8209   -3.2402    5.3537 O   0  0  0  0  0  0  0  0  0  0  0  0
   10.8298   -1.1088    4.8297 C   0  0  0  0  0  0  0  0  0  0  0  0
   11.8350   -0.9642    5.7840 C   0  0  0  0  0  0  0  0  0  0  0  0
   12.5576    0.1985    5.6637 C   0  0  0  0  0  0  0  0  0  0  0  0
   12.2953    1.1569    4.6752 C   0  0  0  0  0  0  0  0  0  0  0  0
   11.3095    1.0267    3.7260 C   0  0  0  0  0  0  0  0  0  0  0  0
   10.5724   -0.1568    3.8217 C   0  0  0  0  0  0  0  0  0  0  0  0
    9.4781   -0.6466    2.9844 C   0  0  0  0  0  0  0  0  0  0  0  0
    9.2370   -0.2470    1.6946 C   0  0  0  0  0  0  0  0  0  0  0  0
    9.9762    0.7544    1.0380 C   0  0  0  0  0  0  0  0  0  0  0  0
   10.5467    1.5617    0.4525 N   0  0  0  0  0  0  0  0  0  0  0  0
    8.3151   -0.8688    0.8289 C   0  0  0  0  0  0  0  0  0  0  0  0
    7.6061   -1.3558    0.0690 N   0  0  0  0  0  0  0  0  0  0  0  0
   13.3975    2.0685    5.1536 C   0  0  0  0  0  0  0  0  0  0  0  0
   14.6970    2.0712    4.3208 C   0  0  0  0  0  0  0  0  0  0  0  0
   15.7280    2.6515    5.2618 C   0  0  0  0  0  0  0  0  0  0  0  0
   15.9790    1.7426    6.1954 C   0  0  0  0  0  0  0  0  0  0  0  0
   15.1217    0.5327    5.9012 C   0  0  0  0  0  0  0  0  0  0  0  0
   15.0996    0.5916    4.3683 C   0  0  0  0  0  0  0  0  0  0  0  0
   13.6927    0.9982    6.2530 C   0  0  0  0  0  0  0  0  0  0  0  0
    6.5281   -2.0752    2.8862 C   0  0  0  0  0  0  0  0  0  0  0  0
    6.0450   -0.8206    2.6041 C   0  0  0  0  0  0  0  0  0  0  0  0
    4.7332   -0.8144    2.0898 C   0  0  0  0  0  0  0  0  0  0  0  0
    3.9417    0.2997    1.7227 C   0  0  0  0  0  0  0  0  0  0  0  0
    4.4467    1.6491    1.6643 C   0  0  0  0  0  0  0  0  0  0  0  0
    3.7630    2.8211    1.8621 C   0  0  0  0  0  0  0  0  0  0  0  0
    4.5078    3.9709    1.5692 C   0  0  0  0  0  0  0  0  0  0  0  0
    5.7737    3.6889    1.1320 C   0  0  0  0  0  0  0  0  0  0  0  0
    6.9476    4.9043    0.6961 S   0  0  0  0  0  0  0  0  0  0  0  0
    8.3986    3.9125    0.2078 C   0  0  0  0  0  0  0  0  0  0  0  0
    8.2934    3.3488   -1.1936 C   0  0  0  0  0  0  0  0  0  0  0  0
    6.0698    1.9794    1.1037 S   0  0  0  0  0  0  0  0  0  0  0  0
    2.6353    0.0161    1.3327 C   0  0  0  0  0  0  0  0  0  0  0  0
    2.1388   -1.2973    1.1450 C   0  0  0  0  0  0  0  0  0  0  0  0
    2.9503   -2.4084    1.4488 C   0  0  0  0  0  0  0  0  0  0  0  0
    2.5438   -3.7748    1.1947 C   0  0  0  0  0  0  0  0  0  0  0  0
    2.7590   -4.8816    1.9683 C   0  0  0  0  0  0  0  0  0  0  0  0
    2.3828   -6.0868    1.3503 C   0  0  0  0  0  0  0  0  0  0  0  0
    1.8931   -5.9065    0.0907 C   0  0  0  0  0  0  0  0  0  0  0  0
    1.3266   -7.1670   -0.9752 S   0  0  0  0  0  0  0  0  0  0  0  0
    1.9911   -6.5717   -2.5774 C   0  0  0  0  0  0  0  0  0  0  0  0
    3.5051   -6.6103   -2.6093 C   0  0  0  0  0  0  0  0  0  0  0  0
    1.8255   -4.2187   -0.3304 S   0  0  0  0  0  0  0  0  0  0  0  0
    4.2065   -2.1281    1.9737 C   0  0  0  0  0  0  0  0  0  0  0  0
    5.3504   -3.3173    2.5127 S   0  0  0  0  0  0  0  0  0  0  0  0
    0.8185   -1.2964    0.6468 C   0  0  0  0  0  0  0  0  0  0  0  0
    0.3014   -0.0456    0.4347 C   0  0  0  0  0  0  0  0  0  0  0  0
    1.4334    1.2007    0.9117 S   0  0  0  0  0  0  0  0  0  0  0  0
   -1.0189    0.2356   -0.0163 C   0  0  0  0  0  0  0  0  0  0  0  0
   -1.6037    1.3845   -0.5456 C   0  0  0  0  0  0  0  0  0  0  0  0
   -0.9880    2.5771   -0.8582 N   0  0  0  0  0  0  0  0  0  0  0  0
   -1.7477    3.7635   -0.7889 C   0  0  0  0  0  0  0  0  0  0  0  0
   -1.6908    4.6923   -1.8274 C   0  0  0  0  0  0  0  0  0  0  0  0
   -2.4395    5.8445   -1.7648 C   0  0  0  0  0  0  0  0  0  0  0  0
   -3.2691    6.0934   -0.6714 C   0  0  0  0  0  0  0  0  0  0  0  0
   -4.1751    7.6008   -0.6978 S   0  0  0  0  0  0  0  0  0  0  0  0
   -5.4007    7.3870    0.6234 C   0  0  0  0  0  0  0  0  0  0  0  0
   -3.3188    5.1758    0.3700 C   0  0  0  0  0  0  0  0  0  0  0  0
   -2.5595    4.0234    0.3109 C   0  0  0  0  0  0  0  0  0  0  0  0
    0.3319    2.6609   -1.3133 C   0  0  0  0  0  0  0  0  0  0  0  0
    1.1083    3.7648   -0.9610 C   0  0  0  0  0  0  0  0  0  0  0  0
    2.4293    3.8493   -1.3453 C   0  0  0  0  0  0  0  0  0  0  0  0
    2.9995    2.8306   -2.0970 C   0  0  0  0  0  0  0  0  0  0  0  0
    4.6972    2.8352   -2.5791 S   0  0  0  0  0  0  0  0  0  0  0  0
    5.0987    4.6089   -2.6075 C   0  0  0  0  0  0  0  0  0  0  0  0
    2.2232    1.7385   -2.4753 C   0  0  0  0  0  0  0  0  0  0  0  0
    0.9007    1.6566   -2.0972 C   0  0  0  0  0  0  0  0  0  0  0  0
   -2.9938    1.1785   -0.7602 C   0  0  0  0  0  0  0  0  0  0  0  0
   -4.2753    2.1930   -1.3186 S   0  0  0  0  0  0  0  0  0  0  0  0
   -5.4359    0.8772   -1.1235 C   0  0  0  0  0  0  0  0  0  0  0  0
   -4.8448   -0.2804   -0.6123 C   0  0  0  0  0  0  0  0  0  0  0  0
   -5.4751   -1.4426   -0.2194 N   0  0  0  0  0  0  0  0  0  0  0  0
   -4.7551   -2.6490   -0.3190 C   0  0  0  0  0  0  0  0  0  0  0  0
   -4.0366   -2.9457   -1.4721 C   0  0  0  0  0  0  0  0  0  0  0  0
   -3.3208   -4.1230   -1.5704 C   0  0  0  0  0  0  0  0  0  0  0  0
   -3.3204   -5.0262   -0.5153 C   0  0  0  0  0  0  0  0  0  0  0  0
   -2.4485   -6.5567   -0.5214 S   0  0  0  0  0  0  0  0  0  0  0  0
   -1.8578   -6.7067   -2.2295 C   0  0  0  0  0  0  0  0  0  0  0  0
   -4.0458   -4.7309    0.6397 C   0  0  0  0  0  0  0  0  0  0  0  0
   -4.7552   -3.5567    0.7393 C   0  0  0  0  0  0  0  0  0  0  0  0
   -6.7809   -1.4769    0.2743 C   0  0  0  0  0  0  0  0  0  0  0  0
   -7.6031   -2.5696   -0.0143 C   0  0  0  0  0  0  0  0  0  0  0  0
   -8.9276   -2.5574    0.3545 C   0  0  0  0  0  0  0  0  0  0  0  0
   -9.4719   -1.4503    1.0015 C   0  0  0  0  0  0  0  0  0  0  0  0
  -11.2162   -1.4773    1.2761 S   0  0  0  0  0  0  0  0  0  0  0  0
  -11.6056    0.2414    1.7093 C   0  0  0  0  0  0  0  0  0  0  0  0
   -8.6399   -0.4010    1.3715 C   0  0  0  0  0  0  0  0  0  0  0  0
   -7.3038   -0.4237    1.0238 C   0  0  0  0  0  0  0  0  0  0  0  0
   -3.4520   -0.0865   -0.4366 C   0  0  0  0  0  0  0  0  0  0  0  0
   -2.1724   -1.0920    0.1393 S   0  0  0  0  0  0  0  0  0  0  0  0
   -6.7939    1.1154   -1.4510 C   0  0  0  0  0  0  0  0  0  0  0  0
   -7.4908    2.3225   -1.2878 C   0  0  0  0  0  0  0  0  0  0  0  0
   -6.9375    3.4992   -0.7613 C   0  0  0  0  0  0  0  0  0  0  0  0
   -6.5367    4.4650   -0.2869 N   0  0  0  0  0  0  0  0  0  0  0  0
   -8.8537    2.1899   -1.5523 C   0  0  0  0  0  0  0  0  0  0  0  0
   -9.2310    0.9046   -1.9207 C   0  0  0  0  0  0  0  0  0  0  0  0
   -7.8317   -0.1333   -2.0559 S   0  0  0  0  0  0  0  0  0  0  0  0
  -10.5791    0.5070   -1.9725 C   0  0  0  0  0  0  0  0  0  0  0  0
  -11.1017   -0.7534   -2.0796 C   0  0  0  0  0  0  0  0  0  0  0  0
  -10.3274   -1.9622   -2.4081 C   0  0  0  0  0  0  0  0  0  0  0  0
   -9.1555   -2.0024   -2.7409 O   0  0  0  0  0  0  0  0  0  0  0  0
  -11.2672   -3.0818   -2.3147 C   0  0  0  0  0  0  0  0  0  0  0  0
  -11.0174   -4.4483   -2.4695 C   0  0  0  0  0  0  0  0  0  0  0  0
   -9.7530   -4.8237   -2.7204 O   0  0  0  0  0  0  0  0  0  0  0  0
   -9.4573   -6.1925   -2.8714 C   0  0  0  0  0  0  0  0  0  0  0  0
  -12.1082   -5.3151   -2.3323 C   0  0  0  0  0  0  0  0  0  0  0  0
  -13.3706   -4.8241   -2.0528 C   0  0  0  0  0  0  0  0  0  0  0  0
  -13.6162   -3.4673   -1.8853 C   0  0  0  0  0  0  0  0  0  0  0  0
  -12.5510   -2.5938   -2.0146 C   0  0  0  0  0  0  0  0  0  0  0  0
  -12.4786   -1.1405   -1.8636 C   0  0  0  0  0  0  0  0  0  0  0  0
  -13.5280   -0.3277   -1.5181 C   0  0  0  0  0  0  0  0  0  0  0  0
  -13.4444    1.0597   -1.2850 C   0  0  0  0  0  0  0  0  0  0  0  0
  -13.4544    2.1854   -1.0523 N   0  0  0  0  0  0  0  0  0  0  0  0
  -14.8501   -0.7731   -1.3117 C   0  0  0  0  0  0  0  0  0  0  0  0
  -15.9485   -1.0527   -1.1278 N   0  0  0  0  0  0  0  0  0  0  0  0
    7.6939   -3.4151    4.0462 H   0  0  0  0  0  0  0  0  0  0  0  0
   11.9986   -1.7201    6.5359 H   0  0  0  0  0  0  0  0  0  0  0  0
   11.1070    1.7767    2.9788 H   0  0  0  0  0  0  0  0  0  0  0  0
   13.0892    3.0646    5.4657 H   0  0  0  0  0  0  0  0  0  0  0  0
   14.6092    2.5355    3.3424 H   0  0  0  0  0  0  0  0  0  0  0  0
   16.1148    3.6508    5.1859 H   0  0  0  0  0  0  0  0  0  0  0  0
   16.6170    1.8309    7.0551 H   0  0  0  0  0  0  0  0  0  0  0  0
   15.4221   -0.4039    6.3630 H   0  0  0  0  0  0  0  0  0  0  0  0
   14.3773   -0.0800    3.9079 H   0  0  0  0  0  0  0  0  0  0  0  0
   16.0837    0.4191    3.9359 H   0  0  0  0  0  0  0  0  0  0  0  0
   13.5823    1.2803    7.2985 H   0  0  0  0  0  0  0  0  0  0  0  0
    6.5961    0.0741    2.8336 H   0  0  0  0  0  0  0  0  0  0  0  0
    2.7625    2.8616    2.2514 H   0  0  0  0  0  0  0  0  0  0  0  0
    4.1378    4.9744    1.6731 H   0  0  0  0  0  0  0  0  0  0  0  0
    8.5084    3.1255    0.9523 H   0  0  0  0  0  0  0  0  0  0  0  0
    9.2397    4.6000    0.2908 H   0  0  0  0  0  0  0  0  0  0  0  0
    9.1698    2.7353   -1.3888 H   0  0  0  0  0  0  0  0  0  0  0  0
    7.4078    2.7270   -1.3049 H   0  0  0  0  0  0  0  0  0  0  0  0
    8.2543    4.1520   -1.9253 H   0  0  0  0  0  0  0  0  0  0  0  0
    3.1664   -4.8328    2.9617 H   0  0  0  0  0  0  0  0  0  0  0  0
    2.4870   -7.0561    1.8015 H   0  0  0  0  0  0  0  0  0  0  0  0
    1.6107   -5.5625   -2.7365 H   0  0  0  0  0  0  0  0  0  0  0  0
    1.5600   -7.2433   -3.3192 H   0  0  0  0  0  0  0  0  0  0  0  0
    3.8621   -6.2853   -3.5844 H   0  0  0  0  0  0  0  0  0  0  0  0
    3.9227   -5.9498   -1.8521 H   0  0  0  0  0  0  0  0  0  0  0  0
    3.8632   -7.6203   -2.4237 H   0  0  0  0  0  0  0  0  0  0  0  0
    0.2576   -2.1902    0.4387 H   0  0  0  0  0  0  0  0  0  0  0  0
   -1.0622    4.4961   -2.6833 H   0  0  0  0  0  0  0  0  0  0  0  0
   -2.4036    6.5630   -2.5692 H   0  0  0  0  0  0  0  0  0  0  0  0
   -6.0947    8.2147    0.5149 H   0  0  0  0  0  0  0  0  0  0  0  0
   -4.9170    7.4397    1.5949 H   0  0  0  0  0  0  0  0  0  0  0  0
   -5.9149    6.4426    0.4765 H   0  0  0  0  0  0  0  0  0  0  0  0
   -3.9427    5.3468    1.2311 H   0  0  0  0  0  0  0  0  0  0  0  0
   -2.5923    3.3161    1.1274 H   0  0  0  0  0  0  0  0  0  0  0  0
    0.6755    4.5469   -0.3560 H   0  0  0  0  0  0  0  0  0  0  0  0
    3.0140    4.6994   -1.0332 H   0  0  0  0  0  0  0  0  0  0  0  0
    6.0089    4.6960   -3.1922 H   0  0  0  0  0  0  0  0  0  0  0  0
    4.2925    5.1490   -3.0939 H   0  0  0  0  0  0  0  0  0  0  0  0
    5.2713    4.9804   -1.6014 H   0  0  0  0  0  0  0  0  0  0  0  0
    2.6697    0.9553   -3.0685 H   0  0  0  0  0  0  0  0  0  0  0  0
    0.3053    0.8071   -2.3975 H   0  0  0  0  0  0  0  0  0  0  0  0
   -4.0450   -2.2504   -2.2986 H   0  0  0  0  0  0  0  0  0  0  0  0
   -2.7718   -4.3232   -2.4759 H   0  0  0  0  0  0  0  0  0  0  0  0
   -1.3698   -7.6747   -2.2805 H   0  0  0  0  0  0  0  0  0  0  0  0
   -2.6995   -6.6734   -2.9151 H   0  0  0  0  0  0  0  0  0  0  0  0
   -1.1375   -5.9236   -2.4447 H   0  0  0  0  0  0  0  0  0  0  0  0
   -4.0368   -5.4356    1.4568 H   0  0  0  0  0  0  0  0  0  0  0  0
   -5.3129   -3.3296    1.6355 H   0  0  0  0  0  0  0  0  0  0  0  0
   -7.2095   -3.4028   -0.5742 H   0  0  0  0  0  0  0  0  0  0  0  0
   -9.5685   -3.3895    0.1076 H   0  0  0  0  0  0  0  0  0  0  0  0
  -11.1993    0.9093    0.9548 H   0  0  0  0  0  0  0  0  0  0  0  0
  -12.6894    0.3085    1.7167 H   0  0  0  0  0  0  0  0  0  0  0  0
  -11.2197    0.4784    2.6965 H   0  0  0  0  0  0  0  0  0  0  0  0
   -9.0202    0.4423    1.9255 H   0  0  0  0  0  0  0  0  0  0  0  0
   -6.6671    0.4007    1.3100 H   0  0  0  0  0  0  0  0  0  0  0  0
   -9.5620    2.9900   -1.4208 H   0  0  0  0  0  0  0  0  0  0  0  0
  -11.2720    1.3252   -1.8157 H   0  0  0  0  0  0  0  0  0  0  0  0
   -9.6869   -6.7557   -1.9614 H   0  0  0  0  0  0  0  0  0  0  0  0
   -8.3868   -6.2390   -3.0632 H   0  0  0  0  0  0  0  0  0  0  0  0
   -9.9959   -6.6290   -3.7180 H   0  0  0  0  0  0  0  0  0  0  0  0
  -11.9750   -6.3797   -2.4425 H   0  0  0  0  0  0  0  0  0  0  0  0
  -14.1900   -5.5206   -1.9566 H   0  0  0  0  0  0  0  0  0  0  0  0
  -14.6114   -3.1242   -1.6607 H   0  0  0  0  0  0  0  0  0  0  0  0
  1  2  2  0  0  0  0
  2  3  1  0  0  0  0
  3  4  2  0  0  0  0
  3  5  1  0  0  0  0
  5  6  2  0  0  0  0
  6  7  1  0  0  0  0
  7  8  2  0  0  0  0
  8  9  1  0  0  0  0
  9 10  2  0  0  0  0
 10 11  1  0  0  0  0
 11 12  2  0  0  0  0
 12 13  1  0  0  0  0
 13 14  3  0  0  0  0
 12 15  1  0  0  0  0
 15 16  3  0  0  0  0
  8 17  1  0  0  0  0
 17 18  1  0  0  0  0
 18 19  1  0  0  0  0
 19 20  2  0  0  0  0
 20 21  1  0  0  0  0
 21 22  1  0  0  0  0
 21 23  1  0  0  0  0
  1 24  1  0  0  0  0
 24 25  2  0  0  0  0
 25 26  1  0  0  0  0
 26 27  2  0  0  0  0
 27 28  1  0  0  0  0
 28 29  2  0  0  0  0
 29 30  1  0  0  0  0
 30 31  2  0  0  0  0
 31 32  1  0  0  0  0
 32 33  1  0  0  0  0
 33 34  1  0  0  0  0
 31 35  1  0  0  0  0
 27 36  1  0  0  0  0
 36 37  2  0  0  0  0
 37 38  1  0  0  0  0
 38 39  1  0  0  0  0
 39 40  2  0  0  0  0
 40 41  1  0  0  0  0
 41 42  2  0  0  0  0
 42 43  1  0  0  0  0
 43 44  1  0  0  0  0
 44 45  1  0  0  0  0
 42 46  1  0  0  0  0
 38 47  2  0  0  0  0
 47 48  1  0  0  0  0
 37 49  1  0  0  0  0
 49 50  2  0  0  0  0
 50 51  1  0  0  0  0
 50 52  1  0  0  0  0
 52 53  2  0  0  0  0
 53 54  1  0  0  0  0
 54 55  1  0  0  0  0
 55 56  2  0  0  0  0
 56 57  1  0  0  0  0
 57 58  2  0  0  0  0
 58 59  1  0  0  0  0
 59 60  1  0  0  0  0
 58 61  1  0  0  0  0
 61 62  2  0  0  0  0
 54 63  1  0  0  0  0
 63 64  2  0  0  0  0
 64 65  1  0  0  0  0
 65 66  2  0  0  0  0
 66 67  1  0  0  0  0
 67 68  1  0  0  0  0
 66 69  1  0  0  0  0
 69 70  2  0  0  0  0
 53 71  1  0  0  0  0
 71 72  1  0  0  0  0
 72 73  1  0  0  0  0
 73 74  2  0  0  0  0
 74 75  1  0  0  0  0
 75 76  1  0  0  0  0
 76 77  2  0  0  0  0
 77 78  1  0  0  0  0
 78 79  2  0  0  0  0
 79 80  1  0  0  0  0
 80 81  1  0  0  0  0
 79 82  1  0  0  0  0
 82 83  2  0  0  0  0
 75 84  1  0  0  0  0
 84 85  2  0  0  0  0
 85 86  1  0  0  0  0
 86 87  2  0  0  0  0
 87 88  1  0  0  0  0
 88 89  1  0  0  0  0
 87 90  1  0  0  0  0
 90 91  2  0  0  0  0
 74 92  1  0  0  0  0
 92 93  1  0  0  0  0
 73 94  1  0  0  0  0
 94 95  2  0  0  0  0
 95 96  1  0  0  0  0
 96 97  3  0  0  0  0
 95 98  1  0  0  0  0
 98 99  2  0  0  0  0
 99100  1  0  0  0  0
 99101  1  0  0  0  0
101102  2  0  0  0  0
102103  1  0  0  0  0
103104  2  0  0  0  0
103105  1  0  0  0  0
105106  2  0  0  0  0
106107  1  0  0  0  0
107108  1  0  0  0  0
106109  1  0  0  0  0
109110  2  0  0  0  0
110111  1  0  0  0  0
111112  2  0  0  0  0
112113  1  0  0  0  0
113114  2  0  0  0  0
114115  1  0  0  0  0
115116  3  0  0  0  0
114117  1  0  0  0  0
117118  3  0  0  0  0
 11  2  1  0  0  0  0
 23 17  1  0  0  0  0
 48 24  1  0  0  0  0
 93 52  1  0  0  0  0
100 94  1  0  0  0  0
113102  1  0  0  0  0
 10  5  1  0  0  0  0
 22 18  1  0  0  0  0
 47 26  1  0  0  0  0
 62 55  1  0  0  0  0
 70 63  1  0  0  0  0
 92 71  2  0  0  0  0
112105  1  0  0  0  0
 23  7  1  0  0  0  0
 35 28  1  0  0  0  0
 51 36  1  0  0  0  0
 83 76  1  0  0  0  0
 91 84  1  0  0  0  0
 46 39  1  0  0  0  0
  1119  1  0  0  0  0
  6120  1  0  0  0  0
  9121  1  0  0  0  0
 17122  1  0  0  0  0
 18123  1  0  0  0  0
 19124  1  0  0  0  0
 20125  1  0  0  0  0
 21126  1  0  0  0  0
 22127  1  0  0  0  0
 22128  1  0  0  0  0
 23129  1  0  0  0  0
 25130  1  0  0  0  0
 29131  1  0  0  0  0
 30132  1  0  0  0  0
 33133  1  0  0  0  0
 33134  1  0  0  0  0
 34135  1  0  0  0  0
 34136  1  0  0  0  0
 34137  1  0  0  0  0
 40138  1  0  0  0  0
 41139  1  0  0  0  0
 44140  1  0  0  0  0
 44141  1  0  0  0  0
 45142  1  0  0  0  0
 45143  1  0  0  0  0
 45144  1  0  0  0  0
 49145  1  0  0  0  0
 56146  1  0  0  0  0
 57147  1  0  0  0  0
 60148  1  0  0  0  0
 60149  1  0  0  0  0
 60150  1  0  0  0  0
 61151  1  0  0  0  0
 62152  1  0  0  0  0
 64153  1  0  0  0  0
 65154  1  0  0  0  0
 68155  1  0  0  0  0
 68156  1  0  0  0  0
 68157  1  0  0  0  0
 69158  1  0  0  0  0
 70159  1  0  0  0  0
 77160  1  0  0  0  0
 78161  1  0  0  0  0
 81162  1  0  0  0  0
 81163  1  0  0  0  0
 81164  1  0  0  0  0
 82165  1  0  0  0  0
 83166  1  0  0  0  0
 85167  1  0  0  0  0
 86168  1  0  0  0  0
 89169  1  0  0  0  0
 89170  1  0  0  0  0
 89171  1  0  0  0  0
 90172  1  0  0  0  0
 91173  1  0  0  0  0
 98174  1  0  0  0  0
101175  1  0  0  0  0
108176  1  0  0  0  0
108177  1  0  0  0  0
108178  1  0  0  0  0
109179  1  0  0  0  0
110180  1  0  0  0  0
111181  1  0  0  0  0
M  END
