
  xtb     02052211283D
 energy: -384.563223789217 gnorm: 0.000566015242 xtb: 6.4.1 (unknown)
234258  0     0  0            999 V2000
    2.1384   -5.9737    6.7452 C   0  0  0  0  0  0  0  0  0  0  0  0
    2.7634   -7.1315    6.4079 C   0  0  0  0  0  0  0  0  0  0  0  0
    3.3233   -7.5003    5.0905 C   0  0  0  0  0  0  0  0  0  0  0  0
    3.4651   -6.7943    4.1081 O   0  0  0  0  0  0  0  0  0  0  0  0
    3.6210   -8.9413    5.1643 C   0  0  0  0  0  0  0  0  0  0  0  0
    4.1429   -9.7414    4.1487 C   0  0  0  0  0  0  0  0  0  0  0  0
    4.2752  -11.0655    4.4885 C   0  0  0  0  0  0  0  0  0  0  0  0
    3.9053  -11.5654    5.7446 C   0  0  0  0  0  0  0  0  0  0  0  0
    3.3977  -10.7889    6.7576 C   0  0  0  0  0  0  0  0  0  0  0  0
    3.2685   -9.4334    6.4367 C   0  0  0  0  0  0  0  0  0  0  0  0
    2.7982   -8.3201    7.2505 C   0  0  0  0  0  0  0  0  0  0  0  0
    2.5284   -8.3668    8.5906 C   0  0  0  0  0  0  0  0  0  0  0  0
    2.1891   -7.2592    9.3991 C   0  0  0  0  0  0  0  0  0  0  0  0
    1.9408   -6.4216   10.1442 N   0  0  0  0  0  0  0  0  0  0  0  0
    2.6061   -9.5350    9.3790 C   0  0  0  0  0  0  0  0  0  0  0  0
    2.6515  -10.4430   10.0801 N   0  0  0  0  0  0  0  0  0  0  0  0
    4.3052  -12.9760    5.3904 C   0  0  0  0  0  0  0  0  0  0  0  0
    5.6429  -13.4776    5.9739 C   0  0  0  0  0  0  0  0  0  0  0  0
    6.0012  -14.6555    5.0971 C   0  0  0  0  0  0  0  0  0  0  0  0
    6.3573  -14.1814    3.9101 C   0  0  0  0  0  0  0  0  0  0  0  0
    6.2453  -12.6747    3.9646 C   0  0  0  0  0  0  0  0  0  0  0  0
    6.6284  -12.4349    5.4307 C   0  0  0  0  0  0  0  0  0  0  0  0
    4.7234  -12.4178    3.9921 C   0  0  0  0  0  0  0  0  0  0  0  0
    2.0305   -4.7485    6.0165 C   0  0  0  0  0  0  0  0  0  0  0  0
    0.8307   -4.0229    6.1821 C   0  0  0  0  0  0  0  0  0  0  0  0
   -0.1633   -4.3777    7.0398 N   0  0  0  0  0  0  0  0  0  0  0  0
   -1.1488   -3.5666    7.0254 C   0  0  0  0  0  0  0  0  0  0  0  0
   -2.3608   -3.6836    7.8699 C   0  0  0  0  0  0  0  0  0  0  0  0
   -3.6306   -3.7734    7.0234 C   0  0  0  0  0  0  0  0  0  0  0  0
   -0.9890   -2.2249    5.8853 S   0  0  0  0  0  0  0  0  0  0  0  0
    0.5530   -2.8708    5.4198 C   0  0  0  0  0  0  0  0  0  0  0  0
    1.4382   -2.3724    4.4673 C   0  0  0  0  0  0  0  0  0  0  0  0
    2.7024   -2.9764    4.4377 C   0  0  0  0  0  0  0  0  0  0  0  0
    2.9827   -4.1459    5.1893 C   0  0  0  0  0  0  0  0  0  0  0  0
    4.6312   -4.5928    4.9362 S   0  0  0  0  0  0  0  0  0  0  0  0
    4.7960   -3.2275    3.8289 C   0  0  0  0  0  0  0  0  0  0  0  0
    6.0746   -2.9940    3.1181 C   0  0  0  0  0  0  0  0  0  0  0  0
    6.3320   -4.0972    2.0900 C   0  0  0  0  0  0  0  0  0  0  0  0
    3.7364   -2.5287    3.6765 N   0  0  0  0  0  0  0  0  0  0  0  0
    1.0751   -1.3536    3.5136 C   0  0  0  0  0  0  0  0  0  0  0  0
   -0.0735   -1.3305    2.7415 C   0  0  0  0  0  0  0  0  0  0  0  0
   -1.0862   -2.2842    2.7511 N   0  0  0  0  0  0  0  0  0  0  0  0
   -2.4131   -1.8306    2.7838 C   0  0  0  0  0  0  0  0  0  0  0  0
   -3.4283   -2.5495    2.1536 C   0  0  0  0  0  0  0  0  0  0  0  0
   -4.7393   -2.1400    2.2625 C   0  0  0  0  0  0  0  0  0  0  0  0
   -5.0640   -1.0005    2.9935 C   0  0  0  0  0  0  0  0  0  0  0  0
   -6.7752   -0.5829    3.1502 S   0  0  0  0  0  0  0  0  0  0  0  0
   -6.8141    0.2735    4.7567 C   0  0  0  0  0  0  0  0  0  0  0  0
   -4.0502   -0.2455    3.5662 C   0  0  0  0  0  0  0  0  0  0  0  0
   -2.7379   -0.6600    3.4656 C   0  0  0  0  0  0  0  0  0  0  0  0
   -0.7808   -3.6367    2.9436 C   0  0  0  0  0  0  0  0  0  0  0  0
   -1.6195   -4.4643    3.6926 C   0  0  0  0  0  0  0  0  0  0  0  0
   -1.2605   -5.7672    3.9603 C   0  0  0  0  0  0  0  0  0  0  0  0
   -0.0583   -6.2794    3.4848 C   0  0  0  0  0  0  0  0  0  0  0  0
    0.3526   -7.9468    3.9162 S   0  0  0  0  0  0  0  0  0  0  0  0
    1.3288   -8.4774    2.4791 C   0  0  0  0  0  0  0  0  0  0  0  0
    0.7689   -5.4736    2.7145 C   0  0  0  0  0  0  0  0  0  0  0  0
    0.4041   -4.1716    2.4382 C   0  0  0  0  0  0  0  0  0  0  0  0
   -0.0628   -0.2175    1.8676 C   0  0  0  0  0  0  0  0  0  0  0  0
   -1.1544    0.3861    0.6743 S   0  0  0  0  0  0  0  0  0  0  0  0
   -0.0476    1.7126    0.2997 C   0  0  0  0  0  0  0  0  0  0  0  0
    1.0688    1.7172    1.1262 C   0  0  0  0  0  0  0  0  0  0  0  0
    2.0529    2.6897    1.2292 N   0  0  0  0  0  0  0  0  0  0  0  0
    1.7662    4.0462    1.3973 C   0  0  0  0  0  0  0  0  0  0  0  0
    2.8084    4.9714    1.4602 C   0  0  0  0  0  0  0  0  0  0  0  0
    2.5627    6.3173    1.6352 C   0  0  0  0  0  0  0  0  0  0  0  0
    1.2588    6.7823    1.7280 C   0  0  0  0  0  0  0  0  0  0  0  0
    0.8212    8.4822    1.9027 S   0  0  0  0  0  0  0  0  0  0  0  0
    2.4130    9.3511    1.8884 C   0  0  0  0  0  0  0  0  0  0  0  0
    0.2128    5.8659    1.6752 C   0  0  0  0  0  0  0  0  0  0  0  0
    0.4596    4.5192    1.5244 C   0  0  0  0  0  0  0  0  0  0  0  0
    3.3371    2.1893    1.5470 C   0  0  0  0  0  0  0  0  0  0  0  0
    3.9442    1.2899    0.6733 C   0  0  0  0  0  0  0  0  0  0  0  0
    5.1720    0.7452    0.9798 C   0  0  0  0  0  0  0  0  0  0  0  0
    5.8165    1.0880    2.1650 C   0  0  0  0  0  0  0  0  0  0  0  0
    7.3924    0.3467    2.4643 S   0  0  0  0  0  0  0  0  0  0  0  0
    7.5982    0.5186    4.2607 C   0  0  0  0  0  0  0  0  0  0  0  0
    5.2189    1.9896    3.0354 C   0  0  0  0  0  0  0  0  0  0  0  0
    3.9852    2.5293    2.7307 C   0  0  0  0  0  0  0  0  0  0  0  0
    1.0661    0.5772    1.9756 C   0  0  0  0  0  0  0  0  0  0  0  0
    2.1871   -0.0652    3.1270 S   0  0  0  0  0  0  0  0  0  0  0  0
   -0.4048    2.5288   -0.8168 C   0  0  0  0  0  0  0  0  0  0  0  0
    0.3905    3.2006   -1.7260 C   0  0  0  0  0  0  0  0  0  0  0  0
    1.8029    3.2100   -1.7403 N   0  0  0  0  0  0  0  0  0  0  0  0
    2.3638    2.1762   -2.5256 C   0  0  0  0  0  0  0  0  0  0  0  0
    3.2339    2.4498   -3.5820 C   0  0  0  0  0  0  0  0  0  0  0  0
    3.7695    1.4264   -4.3303 C   0  0  0  0  0  0  0  0  0  0  0  0
    3.4401    0.0995   -4.0600 C   0  0  0  0  0  0  0  0  0  0  0  0
    4.2089   -1.1243   -5.0746 S   0  0  0  0  0  0  0  0  0  0  0  0
    3.4325   -2.6791   -4.5489 C   0  0  0  0  0  0  0  0  0  0  0  0
    2.5449   -0.1782   -3.0382 C   0  0  0  0  0  0  0  0  0  0  0  0
    2.0104    0.8516   -2.2849 C   0  0  0  0  0  0  0  0  0  0  0  0
    2.4699    4.4283   -1.5994 C   0  0  0  0  0  0  0  0  0  0  0  0
    1.7878    5.6416   -1.5040 C   0  0  0  0  0  0  0  0  0  0  0  0
    2.4790    6.8246   -1.3591 C   0  0  0  0  0  0  0  0  0  0  0  0
    3.8662    6.8288   -1.2854 C   0  0  0  0  0  0  0  0  0  0  0  0
    4.6684    8.3942   -1.0647 S   0  0  0  0  0  0  0  0  0  0  0  0
    6.3439    8.0896   -1.6940 C   0  0  0  0  0  0  0  0  0  0  0  0
    4.5518    5.6234   -1.3246 C   0  0  0  0  0  0  0  0  0  0  0  0
    3.8607    4.4397   -1.4784 C   0  0  0  0  0  0  0  0  0  0  0  0
   -0.3825    3.7723   -2.7597 C   0  0  0  0  0  0  0  0  0  0  0  0
    0.0327    4.6470   -4.1850 S   0  0  0  0  0  0  0  0  0  0  0  0
   -1.6774    4.7797   -4.6252 C   0  0  0  0  0  0  0  0  0  0  0  0
   -2.5044    4.0422   -3.7495 C   0  0  0  0  0  0  0  0  0  0  0  0
   -3.8106    3.7151   -3.9661 N   0  0  0  0  0  0  0  0  0  0  0  0
   -4.3807    3.7160   -5.2477 C   0  0  0  0  0  0  0  0  0  0  0  0
   -5.6622    4.2293   -5.4326 C   0  0  0  0  0  0  0  0  0  0  0  0
   -6.2126    4.3149   -6.6972 C   0  0  0  0  0  0  0  0  0  0  0  0
   -5.4892    3.8815   -7.8002 C   0  0  0  0  0  0  0  0  0  0  0  0
   -6.0469    4.0212   -9.4632 S   0  0  0  0  0  0  0  0  0  0  0  0
   -7.4511    5.1658   -9.3476 C   0  0  0  0  0  0  0  0  0  0  0  0
   -4.2368    3.2932   -7.6083 C   0  0  0  0  0  0  0  0  0  0  0  0
   -3.6880    3.2124   -6.3506 C   0  0  0  0  0  0  0  0  0  0  0  0
   -4.6304    3.3230   -2.8901 C   0  0  0  0  0  0  0  0  0  0  0  0
   -5.4455    2.1997   -3.0239 C   0  0  0  0  0  0  0  0  0  0  0  0
   -6.2508    1.8067   -1.9802 C   0  0  0  0  0  0  0  0  0  0  0  0
   -6.2594    2.5254   -0.7847 C   0  0  0  0  0  0  0  0  0  0  0  0
   -7.3427    1.9288    0.4682 S   0  0  0  0  0  0  0  0  0  0  0  0
   -6.9022    2.9161    1.9253 C   0  0  0  0  0  0  0  0  0  0  0  0
   -5.4598    3.6542   -0.6582 C   0  0  0  0  0  0  0  0  0  0  0  0
   -4.6515    4.0510   -1.7061 C   0  0  0  0  0  0  0  0  0  0  0  0
   -1.7471    3.5362   -2.6673 C   0  0  0  0  0  0  0  0  0  0  0  0
   -2.1069    2.5989   -1.2553 S   0  0  0  0  0  0  0  0  0  0  0  0
   -1.9774    5.5539   -5.7482 C   0  0  0  0  0  0  0  0  0  0  0  0
   -3.1852    6.1648   -6.0114 C   0  0  0  0  0  0  0  0  0  0  0  0
   -4.1600    6.5390   -4.9770 C   0  0  0  0  0  0  0  0  0  0  0  0
   -4.0826    6.3422   -3.7770 O   0  0  0  0  0  0  0  0  0  0  0  0
   -5.2033    7.3231   -5.6724 C   0  0  0  0  0  0  0  0  0  0  0  0
   -6.3384    7.8960   -5.1082 C   0  0  0  0  0  0  0  0  0  0  0  0
   -7.1392    8.5591   -6.0083 C   0  0  0  0  0  0  0  0  0  0  0  0
   -6.8266    8.6560   -7.3691 C   0  0  0  0  0  0  0  0  0  0  0  0
   -5.7032    8.1008   -7.9377 C   0  0  0  0  0  0  0  0  0  0  0  0
   -4.8828    7.4137   -7.0402 C   0  0  0  0  0  0  0  0  0  0  0  0
   -3.6430    6.6739   -7.2746 C   0  0  0  0  0  0  0  0  0  0  0  0
   -3.1035    6.3798   -8.5034 C   0  0  0  0  0  0  0  0  0  0  0  0
   -3.6278    6.8298   -9.7294 C   0  0  0  0  0  0  0  0  0  0  0  0
   -4.0130    7.1722  -10.7563 N   0  0  0  0  0  0  0  0  0  0  0  0
   -1.9922    5.5352   -8.6924 C   0  0  0  0  0  0  0  0  0  0  0  0
   -1.1113    4.8328   -8.9183 N   0  0  0  0  0  0  0  0  0  0  0  0
   -8.0577    9.4724   -7.6772 C   0  0  0  0  0  0  0  0  0  0  0  0
   -7.8807   10.9967   -7.8831 C   0  0  0  0  0  0  0  0  0  0  0  0
   -6.6525   11.3945   -7.1029 C   0  0  0  0  0  0  0  0  0  0  0  0
   -6.9458   11.3037   -5.8127 C   0  0  0  0  0  0  0  0  0  0  0  0
   -8.3780   10.8436   -5.6973 C   0  0  0  0  0  0  0  0  0  0  0  0
   -8.9793   11.5158   -6.9418 C   0  0  0  0  0  0  0  0  0  0  0  0
   -8.4057    9.3655   -6.1587 C   0  0  0  0  0  0  0  0  0  0  0  0
    1.5365   -5.9716    7.6461 H   0  0  0  0  0  0  0  0  0  0  0  0
    4.4141   -9.3231    3.1915 H   0  0  0  0  0  0  0  0  0  0  0  0
    3.1131  -11.1875    7.7168 H   0  0  0  0  0  0  0  0  0  0  0  0
    3.5131  -13.7206    5.4384 H   0  0  0  0  0  0  0  0  0  0  0  0
    5.6350  -13.6493    7.0467 H   0  0  0  0  0  0  0  0  0  0  0  0
    5.9089  -15.6811    5.4028 H   0  0  0  0  0  0  0  0  0  0  0  0
    6.6215  -14.7317    3.0261 H   0  0  0  0  0  0  0  0  0  0  0  0
    6.7883  -12.1163    3.2066 H   0  0  0  0  0  0  0  0  0  0  0  0
    7.6639  -12.7024    5.6342 H   0  0  0  0  0  0  0  0  0  0  0  0
    6.4391  -11.4213    5.7795 H   0  0  0  0  0  0  0  0  0  0  0  0
    4.2130  -12.7933    3.1068 H   0  0  0  0  0  0  0  0  0  0  0  0
   -2.4228   -2.8074    8.5213 H   0  0  0  0  0  0  0  0  0  0  0  0
   -2.2518   -4.5722    8.4929 H   0  0  0  0  0  0  0  0  0  0  0  0
   -4.5036   -3.8328    7.6679 H   0  0  0  0  0  0  0  0  0  0  0  0
   -3.7269   -2.8962    6.3857 H   0  0  0  0  0  0  0  0  0  0  0  0
   -3.6039   -4.6603    6.3949 H   0  0  0  0  0  0  0  0  0  0  0  0
    6.8935   -2.9775    3.8408 H   0  0  0  0  0  0  0  0  0  0  0  0
    6.0192   -2.0257    2.6198 H   0  0  0  0  0  0  0  0  0  0  0  0
    5.5357   -4.1139    1.3499 H   0  0  0  0  0  0  0  0  0  0  0  0
    6.3729   -5.0687    2.5776 H   0  0  0  0  0  0  0  0  0  0  0  0
    7.2762   -3.9169    1.5832 H   0  0  0  0  0  0  0  0  0  0  0  0
   -3.1825   -3.4408    1.5962 H   0  0  0  0  0  0  0  0  0  0  0  0
   -5.5284   -2.7042    1.7902 H   0  0  0  0  0  0  0  0  0  0  0  0
   -7.8607    0.3241    5.0400 H   0  0  0  0  0  0  0  0  0  0  0  0
   -6.4089    1.2778    4.6721 H   0  0  0  0  0  0  0  0  0  0  0  0
   -6.2589   -0.3074    5.4866 H   0  0  0  0  0  0  0  0  0  0  0  0
   -4.2729    0.6589    4.1100 H   0  0  0  0  0  0  0  0  0  0  0  0
   -1.9591   -0.0845    3.9437 H   0  0  0  0  0  0  0  0  0  0  0  0
   -2.5484   -4.0740    4.0797 H   0  0  0  0  0  0  0  0  0  0  0  0
   -1.9026   -6.3978    4.5559 H   0  0  0  0  0  0  0  0  0  0  0  0
    0.7835   -8.2390    1.5712 H   0  0  0  0  0  0  0  0  0  0  0  0
    2.2994   -7.9906    2.4943 H   0  0  0  0  0  0  0  0  0  0  0  0
    1.4482   -9.5518    2.5780 H   0  0  0  0  0  0  0  0  0  0  0  0
    1.7107   -5.8450    2.3451 H   0  0  0  0  0  0  0  0  0  0  0  0
    1.0564   -3.5538    1.8388 H   0  0  0  0  0  0  0  0  0  0  0  0
    3.8292    4.6393    1.3595 H   0  0  0  0  0  0  0  0  0  0  0  0
    3.4003    6.9932    1.6835 H   0  0  0  0  0  0  0  0  0  0  0  0
    3.0068    9.0496    2.7463 H   0  0  0  0  0  0  0  0  0  0  0  0
    2.9377    9.1586    0.9567 H   0  0  0  0  0  0  0  0  0  0  0  0
    2.1687   10.4062    1.9630 H   0  0  0  0  0  0  0  0  0  0  0  0
   -0.8023    6.2229    1.7606 H   0  0  0  0  0  0  0  0  0  0  0  0
   -0.3735    3.8348    1.5190 H   0  0  0  0  0  0  0  0  0  0  0  0
    3.4432    1.0174   -0.2431 H   0  0  0  0  0  0  0  0  0  0  0  0
    5.6442    0.0488    0.3038 H   0  0  0  0  0  0  0  0  0  0  0  0
    6.6983    0.1719    4.7597 H   0  0  0  0  0  0  0  0  0  0  0  0
    8.4397   -0.1147    4.5235 H   0  0  0  0  0  0  0  0  0  0  0  0
    7.8232    1.5490    4.5203 H   0  0  0  0  0  0  0  0  0  0  0  0
    5.6995    2.2725    3.9580 H   0  0  0  0  0  0  0  0  0  0  0  0
    3.5135    3.2127    3.4210 H   0  0  0  0  0  0  0  0  0  0  0  0
    3.4770    3.4729   -3.8241 H   0  0  0  0  0  0  0  0  0  0  0  0
    4.4409    1.6443   -5.1466 H   0  0  0  0  0  0  0  0  0  0  0  0
    3.6859   -2.8938   -3.5148 H   0  0  0  0  0  0  0  0  0  0  0  0
    3.8485   -3.4452   -5.1958 H   0  0  0  0  0  0  0  0  0  0  0  0
    2.3571   -2.6214   -4.6897 H   0  0  0  0  0  0  0  0  0  0  0  0
    2.2506   -1.1902   -2.8107 H   0  0  0  0  0  0  0  0  0  0  0  0
    1.3049    0.6141   -1.5038 H   0  0  0  0  0  0  0  0  0  0  0  0
    0.7110    5.6725   -1.5297 H   0  0  0  0  0  0  0  0  0  0  0  0
    1.9408    7.7585   -1.3053 H   0  0  0  0  0  0  0  0  0  0  0  0
    6.2796    7.5718   -2.6461 H   0  0  0  0  0  0  0  0  0  0  0  0
    6.7943    9.0679   -1.8298 H   0  0  0  0  0  0  0  0  0  0  0  0
    6.9214    7.5169   -0.9737 H   0  0  0  0  0  0  0  0  0  0  0  0
    5.6256    5.5912   -1.2254 H   0  0  0  0  0  0  0  0  0  0  0  0
    4.4055    3.5073   -1.4888 H   0  0  0  0  0  0  0  0  0  0  0  0
   -6.2222    4.5790   -4.5784 H   0  0  0  0  0  0  0  0  0  0  0  0
   -7.1983    4.7368   -6.8088 H   0  0  0  0  0  0  0  0  0  0  0  0
   -7.1523    6.0547   -8.7988 H   0  0  0  0  0  0  0  0  0  0  0  0
   -7.6942    5.4281  -10.3724 H   0  0  0  0  0  0  0  0  0  0  0  0
   -8.3007    4.6765   -8.8799 H   0  0  0  0  0  0  0  0  0  0  0  0
   -3.6957    2.9183   -8.4633 H   0  0  0  0  0  0  0  0  0  0  0  0
   -2.7123    2.7699   -6.2197 H   0  0  0  0  0  0  0  0  0  0  0  0
   -5.4355    1.6387   -3.9467 H   0  0  0  0  0  0  0  0  0  0  0  0
   -6.8800    0.9348   -2.0716 H   0  0  0  0  0  0  0  0  0  0  0  0
   -7.1549    3.9603    1.7668 H   0  0  0  0  0  0  0  0  0  0  0  0
   -5.8450    2.7922    2.1410 H   0  0  0  0  0  0  0  0  0  0  0  0
   -7.5025    2.5128    2.7343 H   0  0  0  0  0  0  0  0  0  0  0  0
   -5.4650    4.2424    0.2449 H   0  0  0  0  0  0  0  0  0  0  0  0
   -4.0589    4.9492   -1.6304 H   0  0  0  0  0  0  0  0  0  0  0  0
   -1.1565    5.7170   -6.4362 H   0  0  0  0  0  0  0  0  0  0  0  0
   -6.5417    7.8015   -4.0527 H   0  0  0  0  0  0  0  0  0  0  0  0
   -5.4660    8.1957   -8.9847 H   0  0  0  0  0  0  0  0  0  0  0  0
   -8.7545    9.0362   -8.3912 H   0  0  0  0  0  0  0  0  0  0  0  0
   -7.9161   11.3190   -8.9204 H   0  0  0  0  0  0  0  0  0  0  0  0
   -5.7086   11.6369   -7.5548 H   0  0  0  0  0  0  0  0  0  0  0  0
   -6.2953   11.4547   -4.9713 H   0  0  0  0  0  0  0  0  0  0  0  0
   -8.8660   11.0281   -4.7437 H   0  0  0  0  0  0  0  0  0  0  0  0
   -9.9746   11.1517   -7.1937 H   0  0  0  0  0  0  0  0  0  0  0  0
   -8.9929   12.6023   -6.8689 H   0  0  0  0  0  0  0  0  0  0  0  0
   -9.3311    8.8629   -5.8824 H   0  0  0  0  0  0  0  0  0  0  0  0
  1  2  2  0  0  0  0
  2  3  1  0  0  0  0
  3  4  2  0  0  0  0
  3  5  1  0  0  0  0
  5  6  2  0  0  0  0
  6  7  1  0  0  0  0
  7  8  2  0  0  0  0
  8  9  1  0  0  0  0
  9 10  2  0  0  0  0
 10 11  1  0  0  0  0
 11 12  2  0  0  0  0
 12 13  1  0  0  0  0
 13 14  3  0  0  0  0
 12 15  1  0  0  0  0
 15 16  3  0  0  0  0
  8 17  1  0  0  0  0
 17 18  1  0  0  0  0
 18 19  1  0  0  0  0
 19 20  2  0  0  0  0
 20 21  1  0  0  0  0
 21 22  1  0  0  0  0
 21 23  1  0  0  0  0
  1 24  1  0  0  0  0
 24 25  2  0  0  0  0
 25 26  1  0  0  0  0
 26 27  2  0  0  0  0
 27 28  1  0  0  0  0
 28 29  1  0  0  0  0
 27 30  1  0  0  0  0
 30 31  1  0  0  0  0
 31 32  2  0  0  0  0
 32 33  1  0  0  0  0
 33 34  2  0  0  0  0
 34 35  1  0  0  0  0
 35 36  1  0  0  0  0
 36 37  1  0  0  0  0
 37 38  1  0  0  0  0
 36 39  2  0  0  0  0
 32 40  1  0  0  0  0
 40 41  2  0  0  0  0
 41 42  1  0  0  0  0
 42 43  1  0  0  0  0
 43 44  2  0  0  0  0
 44 45  1  0  0  0  0
 45 46  2  0  0  0  0
 46 47  1  0  0  0  0
 47 48  1  0  0  0  0
 46 49  1  0  0  0  0
 49 50  2  0  0  0  0
 42 51  1  0  0  0  0
 51 52  2  0  0  0  0
 52 53  1  0  0  0  0
 53 54  2  0  0  0  0
 54 55  1  0  0  0  0
 55 56  1  0  0  0  0
 54 57  1  0  0  0  0
 57 58  2  0  0  0  0
 41 59  1  0  0  0  0
 59 60  1  0  0  0  0
 60 61  1  0  0  0  0
 61 62  2  0  0  0  0
 62 63  1  0  0  0  0
 63 64  1  0  0  0  0
 64 65  2  0  0  0  0
 65 66  1  0  0  0  0
 66 67  2  0  0  0  0
 67 68  1  0  0  0  0
 68 69  1  0  0  0  0
 67 70  1  0  0  0  0
 70 71  2  0  0  0  0
 63 72  1  0  0  0  0
 72 73  2  0  0  0  0
 73 74  1  0  0  0  0
 74 75  2  0  0  0  0
 75 76  1  0  0  0  0
 76 77  1  0  0  0  0
 75 78  1  0  0  0  0
 78 79  2  0  0  0  0
 62 80  1  0  0  0  0
 80 81  1  0  0  0  0
 61 82  1  0  0  0  0
 82 83  2  0  0  0  0
 83 84  1  0  0  0  0
 84 85  1  0  0  0  0
 85 86  2  0  0  0  0
 86 87  1  0  0  0  0
 87 88  2  0  0  0  0
 88 89  1  0  0  0  0
 89 90  1  0  0  0  0
 88 91  1  0  0  0  0
 91 92  2  0  0  0  0
 84 93  1  0  0  0  0
 93 94  2  0  0  0  0
 94 95  1  0  0  0  0
 95 96  2  0  0  0  0
 96 97  1  0  0  0  0
 97 98  1  0  0  0  0
 96 99  1  0  0  0  0
 99100  2  0  0  0  0
 83101  1  0  0  0  0
101102  1  0  0  0  0
102103  1  0  0  0  0
103104  2  0  0  0  0
104105  1  0  0  0  0
105106  1  0  0  0  0
106107  2  0  0  0  0
107108  1  0  0  0  0
108109  2  0  0  0  0
109110  1  0  0  0  0
110111  1  0  0  0  0
109112  1  0  0  0  0
112113  2  0  0  0  0
105114  1  0  0  0  0
114115  2  0  0  0  0
115116  1  0  0  0  0
116117  2  0  0  0  0
117118  1  0  0  0  0
118119  1  0  0  0  0
117120  1  0  0  0  0
120121  2  0  0  0  0
104122  1  0  0  0  0
122123  1  0  0  0  0
103124  1  0  0  0  0
124125  2  0  0  0  0
125126  1  0  0  0  0
126127  2  0  0  0  0
126128  1  0  0  0  0
128129  2  0  0  0  0
129130  1  0  0  0  0
130131  2  0  0  0  0
131132  1  0  0  0  0
132133  2  0  0  0  0
133134  1  0  0  0  0
134135  2  0  0  0  0
135136  1  0  0  0  0
136137  3  0  0  0  0
135138  1  0  0  0  0
138139  3  0  0  0  0
131140  1  0  0  0  0
140141  1  0  0  0  0
141142  1  0  0  0  0
142143  2  0  0  0  0
143144  1  0  0  0  0
144145  1  0  0  0  0
144146  1  0  0  0  0
 11  2  1  0  0  0  0
 23 17  1  0  0  0  0
 34 24  1  0  0  0  0
 81 40  1  0  0  0  0
123 82  1  0  0  0  0
134125  1  0  0  0  0
146140  1  0  0  0  0
 10  5  1  0  0  0  0
 22 18  1  0  0  0  0
 31 25  1  0  0  0  0
 39 33  1  0  0  0  0
 50 43  1  0  0  0  0
 58 51  1  0  0  0  0
 80 59  2  0  0  0  0
 92 85  1  0  0  0  0
100 93  1  0  0  0  0
122101  2  0  0  0  0
133128  1  0  0  0  0
145141  1  0  0  0  0
 23  7  1  0  0  0  0
 71 64  1  0  0  0  0
 79 72  1  0  0  0  0
113106  1  0  0  0  0
121114  1  0  0  0  0
146130  1  0  0  0  0
  1147  1  0  0  0  0
  6148  1  0  0  0  0
  9149  1  0  0  0  0
 17150  1  0  0  0  0
 18151  1  0  0  0  0
 19152  1  0  0  0  0
 20153  1  0  0  0  0
 21154  1  0  0  0  0
 22155  1  0  0  0  0
 22156  1  0  0  0  0
 23157  1  0  0  0  0
 28158  1  0  0  0  0
 28159  1  0  0  0  0
 29160  1  0  0  0  0
 29161  1  0  0  0  0
 29162  1  0  0  0  0
 37163  1  0  0  0  0
 37164  1  0  0  0  0
 38165  1  0  0  0  0
 38166  1  0  0  0  0
 38167  1  0  0  0  0
 44168  1  0  0  0  0
 45169  1  0  0  0  0
 48170  1  0  0  0  0
 48171  1  0  0  0  0
 48172  1  0  0  0  0
 49173  1  0  0  0  0
 50174  1  0  0  0  0
 52175  1  0  0  0  0
 53176  1  0  0  0  0
 56177  1  0  0  0  0
 56178  1  0  0  0  0
 56179  1  0  0  0  0
 57180  1  0  0  0  0
 58181  1  0  0  0  0
 65182  1  0  0  0  0
 66183  1  0  0  0  0
 69184  1  0  0  0  0
 69185  1  0  0  0  0
 69186  1  0  0  0  0
 70187  1  0  0  0  0
 71188  1  0  0  0  0
 73189  1  0  0  0  0
 74190  1  0  0  0  0
 77191  1  0  0  0  0
 77192  1  0  0  0  0
 77193  1  0  0  0  0
 78194  1  0  0  0  0
 79195  1  0  0  0  0
 86196  1  0  0  0  0
 87197  1  0  0  0  0
 90198  1  0  0  0  0
 90199  1  0  0  0  0
 90200  1  0  0  0  0
 91201  1  0  0  0  0
 92202  1  0  0  0  0
 94203  1  0  0  0  0
 95204  1  0  0  0  0
 98205  1  0  0  0  0
 98206  1  0  0  0  0
 98207  1  0  0  0  0
 99208  1  0  0  0  0
100209  1  0  0  0  0
107210  1  0  0  0  0
108211  1  0  0  0  0
111212  1  0  0  0  0
111213  1  0  0  0  0
111214  1  0  0  0  0
112215  1  0  0  0  0
113216  1  0  0  0  0
115217  1  0  0  0  0
116218  1  0  0  0  0
119219  1  0  0  0  0
119220  1  0  0  0  0
119221  1  0  0  0  0
120222  1  0  0  0  0
121223  1  0  0  0  0
124224  1  0  0  0  0
129225  1  0  0  0  0
132226  1  0  0  0  0
140227  1  0  0  0  0
141228  1  0  0  0  0
142229  1  0  0  0  0
143230  1  0  0  0  0
144231  1  0  0  0  0
145232  1  0  0  0  0
145233  1  0  0  0  0
146234  1  0  0  0  0
M  END
