159

C         -5.00720       -0.04220        0.66360
C         -4.99850        0.79020       -0.43250
C         -3.93230        1.76260       -0.71850
O         -2.90710        1.94670       -0.08700
C         -4.42280        2.57390       -1.85350
C         -3.76630        3.63280       -2.47440
C         -4.47300        4.20330       -3.50700
C         -5.74740        3.76380       -3.88430
C         -6.40940        2.72270       -3.27550
C         -5.69990        2.11950       -2.23350
C         -6.05690        0.98190       -1.38740
C         -7.12510        0.14120       -1.58050
C         -7.34920       -1.02900       -0.82830
N         -7.57360       -2.00710       -0.26940
C         -8.08580        0.30150       -2.59690
N         -8.89110        0.38880       -3.41140
C         -5.87390        4.80310       -4.97110
C         -6.76260        6.02440       -4.65620
C         -6.31970        7.06360       -5.66090
C         -5.11130        7.47980       -5.30470
C         -4.71720        6.72900       -4.05310
C         -6.09320        6.57820       -3.39170
C         -4.45060        5.29290       -4.55140
C         -3.88480       -0.46490        1.38580
C         -2.53470       -0.61880        1.01150
N         -2.02920       -0.54360       -0.25980
C         -0.67420       -0.23190       -0.47320
C          0.03970       -0.89650       -1.46850
C          1.36510       -0.59090       -1.70100
C          1.99770        0.37960       -0.93720
S          3.70230        0.80510       -1.19610
C          3.76260        0.93290       -3.01200
C          1.29290        1.04180        0.06010
C         -0.03640        0.74800        0.28530
C         -2.83900       -0.79270       -1.37760
C         -2.73810        0.01200       -2.51050
C         -3.58990       -0.16990       -3.58390
C         -4.55780       -1.16450       -3.54260
S         -5.74990       -1.43400       -4.80940
C         -5.68290        0.09370       -5.78770
C         -4.61110       -2.02090       -2.44030
C         -3.76600       -1.83730       -1.37190
C         -1.75630       -1.00680        2.12590
S         -0.07830       -1.35990        2.33640
C         -0.35280       -1.72310        4.03420
C         -1.69130       -1.64180        4.39960
N         -2.22050       -1.93370        5.64220
C         -1.75340       -3.01690        6.39330
C         -1.79070       -2.97210        7.78560
C         -1.32540       -4.03050        8.54170
C         -0.80480       -5.15610        7.91740
S         -0.16580       -6.56270        8.77010
C         -0.49620       -6.20430       10.51910
C         -0.76640       -5.20560        6.52500
C         -1.23650       -4.15450        5.77150
C         -3.31750       -1.17820        6.09070
C         -3.33650        0.20030        5.90030
C         -4.41600        0.95610        6.31440
C         -5.49550        0.34200        6.93400
S         -6.92380        1.19970        7.51370
C         -6.72460        2.87610        6.84590
C         -5.47470       -1.03750        7.13670
C         -4.40260       -1.79110        6.71730
C         -2.47290       -1.21310        3.29790
S         -4.16120       -0.94120        3.06880
C          0.85040       -1.96580        4.75330
C          1.24100       -2.09920        6.07510
C          2.64220       -2.16830        6.07060
C          3.04090       -2.07020        4.75050
O          1.94710       -1.95910        3.96690
C          4.27840       -1.99390        4.05770
C          5.57960       -1.93520        4.52400
C          6.49180       -1.75760        3.49210
S          8.23790       -1.61670        3.75750
C          8.39780        0.20950        3.84730
C          7.68790        0.79200        5.05090
C          5.91040       -1.71640        2.21680
S          4.18580       -1.90930        2.32940
C          6.61670       -1.44390        1.03600
C          6.16540       -1.45490       -0.25650
C          4.91040       -2.05980       -0.73020
O          3.96520       -2.45030       -0.07050
C          5.04680       -2.16870       -2.19560
C          4.15110       -2.76980       -3.07810
C          4.53640       -2.70650       -4.39650
C          5.72960       -2.09740       -4.80810
C          6.62490       -1.50700       -3.94760
C          6.24890       -1.55650       -2.60210
C          6.92400       -1.03870       -1.41520
C          8.00690       -0.19770       -1.40800
C          8.52700        0.41310       -0.24850
N          8.97410        0.97660        0.64710
C          8.68930        0.22960       -2.56420
N          9.28330        0.61050       -3.47040
C          5.48510       -2.41700       -6.26220
C          6.28420       -3.59780       -6.85220
C          5.50910       -3.97440       -8.09440
C          4.37850       -4.54970       -7.70550
C          4.37050       -4.57200       -6.19380
C          5.87060       -4.74800       -5.92480
C          4.15360       -3.09470       -5.80370
H         -5.96260       -0.37580        1.05050
H         -2.78650        3.94570       -2.14830
H         -7.39730        2.40400       -3.56550
H         -6.01730        4.42180       -5.98090
H         -7.82720        5.81220       -4.60830
H         -6.88900        7.33970       -6.52890
H         -4.46910        8.17290       -5.81580
H         -3.91830        7.15950       -3.45520
H         -6.10650        5.89330       -2.54600
H         -6.51230        7.53690       -3.09050
H         -3.64520        5.23890       -5.28210
H         -0.44800       -1.66040       -2.05650
H          1.90640       -1.11760       -2.47090
H          3.71610       -0.05010       -3.47070
H          2.94120        1.55730       -3.34870
H          4.71150        1.40280       -3.25050
H          1.79030        1.80030        0.64400
H         -0.60370        1.30130        1.01650
H         -1.99480        0.79450       -2.54230
H         -3.49870        0.48140       -4.43830
H         -4.77910        0.11980       -6.38970
H         -6.55560        0.06180       -6.43220
H         -5.74390        0.95330       -5.12610
H         -5.33690       -2.81910       -2.42980
H         -3.82950       -2.49600       -0.51950
H         -2.18270       -2.09580        8.28070
H         -1.36760       -3.95710        9.61640
H         -0.16140       -7.08170       11.06350
H         -1.56150       -6.05930       10.67270
H          0.07250       -5.33550       10.83780
H         -0.36900       -6.08550        6.04320
H         -1.21510       -4.21550        4.69460
H         -2.49540        0.68490        5.42630
H         -4.39610        2.02170        6.15330
H         -7.64580        3.39760        7.08670
H         -5.88580        3.37480        7.32310
H         -6.59700        2.82830        5.76860
H         -6.31850       -1.50900        7.61610
H         -4.40160       -2.86080        6.86150
H          0.60520       -2.13250        6.93450
H          3.28120       -2.27110        6.92340
H          5.85640       -2.00200        5.56020
H          9.47320        0.37060        3.90330
H          8.02640        0.62570        2.91160
H          8.05800        0.33880        5.96810
H          6.61430        0.62280        4.98640
H          7.86640        1.86450        5.09500
H          7.66470       -1.21420        1.19650
H          3.24680       -3.23620       -2.71750
H          7.54380       -1.05090       -4.27640
H          5.43060       -1.56210       -6.93380
H          7.34720       -3.41080       -6.97630
H          5.82740       -3.74180       -9.09360
H          3.56320       -4.89370       -8.31470
H          3.69020       -5.27370       -5.71850
H          6.24060       -5.71070       -6.27320
H          6.15540       -4.60400       -4.88410
H          3.21100       -2.69180       -6.17130
