
  xtb     02142209253D
 energy: -343.605612005205 gnorm: 0.000507264313 xtb: 6.4.1 (unknown)
206227  0     0  0            999 V2000
   -0.9178    0.5651   -7.4566 C   0  0  0  0  0  0  0  0  0  0  0  0
   -1.8486    1.0996   -8.3214 C   0  0  0  0  0  0  0  0  0  0  0  0
   -3.3026    1.0468   -8.1009 C   0  0  0  0  0  0  0  0  0  0  0  0
   -3.8871    0.5792   -7.1403 O   0  0  0  0  0  0  0  0  0  0  0  0
   -3.9154    1.5612   -9.3436 C   0  0  0  0  0  0  0  0  0  0  0  0
   -5.2717    1.7158   -9.6094 C   0  0  0  0  0  0  0  0  0  0  0  0
   -5.5421    2.2566  -10.8446 C   0  0  0  0  0  0  0  0  0  0  0  0
   -4.5376    2.6113  -11.7527 C   0  0  0  0  0  0  0  0  0  0  0  0
   -3.1936    2.4571  -11.5049 C   0  0  0  0  0  0  0  0  0  0  0  0
   -2.8999    1.9114  -10.2545 C   0  0  0  0  0  0  0  0  0  0  0  0
   -1.6081    1.6460   -9.6266 C   0  0  0  0  0  0  0  0  0  0  0  0
   -0.3804    2.0176  -10.1201 C   0  0  0  0  0  0  0  0  0  0  0  0
    0.8179    1.9324   -9.3855 C   0  0  0  0  0  0  0  0  0  0  0  0
    1.8246    1.9539   -8.8309 N   0  0  0  0  0  0  0  0  0  0  0  0
   -0.1653    2.6145  -11.3756 C   0  0  0  0  0  0  0  0  0  0  0  0
    0.0951    3.1138  -12.3776 N   0  0  0  0  0  0  0  0  0  0  0  0
   -5.5278    3.0871  -12.7863 C   0  0  0  0  0  0  0  0  0  0  0  0
   -5.8155    2.1610  -13.9935 C   0  0  0  0  0  0  0  0  0  0  0  0
   -5.5398    0.7528  -13.5288 C   0  0  0  0  0  0  0  0  0  0  0  0
   -6.4909    0.4170  -12.6677 C   0  0  0  0  0  0  0  0  0  0  0  0
   -7.4274    1.5923  -12.5349 C   0  0  0  0  0  0  0  0  0  0  0  0
   -7.3523    2.1607  -13.9610 C   0  0  0  0  0  0  0  0  0  0  0  0
   -6.6483    2.6927  -11.7730 C   0  0  0  0  0  0  0  0  0  0  0  0
   -1.0864    0.3879   -6.0804 C   0  0  0  0  0  0  0  0  0  0  0  0
   -1.9157    1.0484   -5.1507 C   0  0  0  0  0  0  0  0  0  0  0  0
   -2.6719    2.1650   -5.3732 N   0  0  0  0  0  0  0  0  0  0  0  0
   -3.7858    2.4112   -4.5448 C   0  0  0  0  0  0  0  0  0  0  0  0
   -4.6970    1.3936   -4.2663 C   0  0  0  0  0  0  0  0  0  0  0  0
   -5.7742    1.6418   -3.4471 C   0  0  0  0  0  0  0  0  0  0  0  0
   -5.9642    2.9067   -2.8909 C   0  0  0  0  0  0  0  0  0  0  0  0
   -7.3731    3.0960   -1.8480 S   0  0  0  0  0  0  0  0  0  0  0  0
   -7.2701    4.8145   -1.2714 C   0  0  0  0  0  0  0  0  0  0  0  0
   -5.0679    3.9258   -3.1847 C   0  0  0  0  0  0  0  0  0  0  0  0
   -3.9863    3.6772   -4.0077 C   0  0  0  0  0  0  0  0  0  0  0  0
   -2.3799    3.0923   -6.3794 C   0  0  0  0  0  0  0  0  0  0  0  0
   -1.0658    3.4452   -6.6800 C   0  0  0  0  0  0  0  0  0  0  0  0
   -0.7855    4.3133   -7.7150 C   0  0  0  0  0  0  0  0  0  0  0  0
   -1.8195    4.8459   -8.4782 C   0  0  0  0  0  0  0  0  0  0  0  0
   -1.5848    5.8860   -9.8778 S   0  0  0  0  0  0  0  0  0  0  0  0
    0.2165    6.0315  -10.0325 C   0  0  0  0  0  0  0  0  0  0  0  0
   -3.1386    4.5432   -8.1421 C   0  0  0  0  0  0  0  0  0  0  0  0
   -3.4179    3.6824   -7.1048 C   0  0  0  0  0  0  0  0  0  0  0  0
   -1.7738    0.4780   -3.8628 C   0  0  0  0  0  0  0  0  0  0  0  0
   -2.4353    0.8601   -2.3052 S   0  0  0  0  0  0  0  0  0  0  0  0
   -1.4895   -0.4086   -1.5790 C   0  0  0  0  0  0  0  0  0  0  0  0
   -0.6258   -1.0292   -2.4726 C   0  0  0  0  0  0  0  0  0  0  0  0
    0.3728   -1.9260   -2.1132 N   0  0  0  0  0  0  0  0  0  0  0  0
    1.0741   -1.7270   -0.9140 C   0  0  0  0  0  0  0  0  0  0  0  0
    1.4640   -2.8065   -0.1200 C   0  0  0  0  0  0  0  0  0  0  0  0
    2.0677   -2.5907    1.0997 C   0  0  0  0  0  0  0  0  0  0  0  0
    2.2817   -1.2966    1.5665 C   0  0  0  0  0  0  0  0  0  0  0  0
    3.0018   -1.1209    3.1688 S   0  0  0  0  0  0  0  0  0  0  0  0
    2.6240    0.5977    3.6149 C   0  0  0  0  0  0  0  0  0  0  0  0
    1.9387   -0.2196    0.7597 C   0  0  0  0  0  0  0  0  0  0  0  0
    1.3510   -0.4357   -0.4695 C   0  0  0  0  0  0  0  0  0  0  0  0
    0.6867   -2.9892   -2.9655 C   0  0  0  0  0  0  0  0  0  0  0  0
   -0.3051   -3.5853   -3.7403 C   0  0  0  0  0  0  0  0  0  0  0  0
   -0.0042   -4.6248   -4.5990 C   0  0  0  0  0  0  0  0  0  0  0  0
    1.2976   -5.0941   -4.6901 C   0  0  0  0  0  0  0  0  0  0  0  0
    1.7971   -6.4230   -5.7426 S   0  0  0  0  0  0  0  0  0  0  0  0
    0.3572   -6.6956   -6.8123 C   0  0  0  0  0  0  0  0  0  0  0  0
    2.2918   -4.5107   -3.9069 C   0  0  0  0  0  0  0  0  0  0  0  0
    1.9946   -3.4682   -3.0603 C   0  0  0  0  0  0  0  0  0  0  0  0
   -0.8185   -0.5271   -3.7801 C   0  0  0  0  0  0  0  0  0  0  0  0
   -0.0589   -0.8265   -5.2991 S   0  0  0  0  0  0  0  0  0  0  0  0
   -1.5503   -0.6849   -0.1660 C   0  0  0  0  0  0  0  0  0  0  0  0
   -1.4925   -1.9824    0.3105 C   0  0  0  0  0  0  0  0  0  0  0  0
   -1.2627   -2.2461    1.6517 C   0  0  0  0  0  0  0  0  0  0  0  0
   -1.0473   -1.2374    2.5787 C   0  0  0  0  0  0  0  0  0  0  0  0
   -1.2559    0.1075    2.1521 C   0  0  0  0  0  0  0  0  0  0  0  0
   -1.1411    1.1313    3.0167 N   0  0  0  0  0  0  0  0  0  0  0  0
   -1.3313    2.3463    2.5720 C   0  0  0  0  0  0  0  0  0  0  0  0
   -1.6427    2.6022    1.2264 C   0  0  0  0  0  0  0  0  0  0  0  0
   -1.7268    1.6349    0.3519 N   0  0  0  0  0  0  0  0  0  0  0  0
   -1.5381    0.3756    0.7800 C   0  0  0  0  0  0  0  0  0  0  0  0
   -0.4780   -1.5594    3.8602 C   0  0  0  0  0  0  0  0  0  0  0  0
   -0.2568   -0.7683    4.9500 C   0  0  0  0  0  0  0  0  0  0  0  0
    0.5670   -1.3649    5.9339 C   0  0  0  0  0  0  0  0  0  0  0  0
    1.0082   -0.8098    7.1560 C   0  0  0  0  0  0  0  0  0  0  0  0
    0.6782    0.5375    7.5630 C   0  0  0  0  0  0  0  0  0  0  0  0
    0.4331    1.0054    8.8309 C   0  0  0  0  0  0  0  0  0  0  0  0
    0.1877    2.3816    8.8842 C   0  0  0  0  0  0  0  0  0  0  0  0
    0.2552    3.0024    7.6579 C   0  0  0  0  0  0  0  0  0  0  0  0
    0.0373    4.3767    7.3602 C   0  0  0  0  0  0  0  0  0  0  0  0
    0.0835    4.9031    6.1192 C   0  0  0  0  0  0  0  0  0  0  0  0
   -0.1513    6.2687    5.7945 C   0  0  0  0  0  0  0  0  0  0  0  0
   -0.1303    6.8432    4.5468 C   0  0  0  0  0  0  0  0  0  0  0  0
   -0.4107    8.2199    4.5606 C   0  0  0  0  0  0  0  0  0  0  0  0
   -0.6443    8.7140    5.8097 C   0  0  0  0  0  0  0  0  0  0  0  0
   -1.0043   10.1045    6.2029 C   0  0  0  0  0  0  0  0  0  0  0  0
   -2.4825   10.2086    6.5858 C   0  0  0  0  0  0  0  0  0  0  0  0
   -0.5258    7.4663    7.0063 S   0  0  0  0  0  0  0  0  0  0  0  0
    0.6279    1.8446    6.4130 S   0  0  0  0  0  0  0  0  0  0  0  0
    1.8281   -1.6192    7.9387 C   0  0  0  0  0  0  0  0  0  0  0  0
    2.2673   -2.9128    7.5419 C   0  0  0  0  0  0  0  0  0  0  0  0
    1.8265   -3.4674    6.3164 C   0  0  0  0  0  0  0  0  0  0  0  0
    2.2781   -4.7499    5.8351 C   0  0  0  0  0  0  0  0  0  0  0  0
    2.5389   -5.9181    6.5120 C   0  0  0  0  0  0  0  0  0  0  0  0
    2.9396   -6.9692    5.6800 C   0  0  0  0  0  0  0  0  0  0  0  0
    3.0015   -6.6274    4.3465 C   0  0  0  0  0  0  0  0  0  0  0  0
    3.3121   -7.4442    3.2212 C   0  0  0  0  0  0  0  0  0  0  0  0
    3.2124   -6.9956    1.9509 C   0  0  0  0  0  0  0  0  0  0  0  0
    3.4561   -7.7346    0.7602 C   0  0  0  0  0  0  0  0  0  0  0  0
    3.8752   -9.0296    0.5709 C   0  0  0  0  0  0  0  0  0  0  0  0
    3.9765   -9.3869   -0.7829 C   0  0  0  0  0  0  0  0  0  0  0  0
    3.6356   -8.3830   -1.6435 C   0  0  0  0  0  0  0  0  0  0  0  0
    3.6659   -8.3887   -3.1313 C   0  0  0  0  0  0  0  0  0  0  0  0
    4.9349   -7.7166   -3.6611 C   0  0  0  0  0  0  0  0  0  0  0  0
    3.1839   -6.9547   -0.7798 S   0  0  0  0  0  0  0  0  0  0  0  0
    2.5628   -4.9600    4.1316 S   0  0  0  0  0  0  0  0  0  0  0  0
    0.9707   -2.6707    5.5618 C   0  0  0  0  0  0  0  0  0  0  0  0
    0.2678   -3.1323    4.0424 S   0  0  0  0  0  0  0  0  0  0  0  0
    3.1949   -3.4630    8.4445 C   0  0  0  0  0  0  0  0  0  0  0  0
    3.4606   -2.6638    9.5304 C   0  0  0  0  0  0  0  0  0  0  0  0
    2.5457   -1.1575    9.4515 S   0  0  0  0  0  0  0  0  0  0  0  0
    4.2961   -2.8202   10.6576 C   0  0  0  0  0  0  0  0  0  0  0  0
    5.1418   -3.8257   11.0360 C   0  0  0  0  0  0  0  0  0  0  0  0
    5.4689   -5.0871   10.3289 C   0  0  0  0  0  0  0  0  0  0  0  0
    4.9576   -5.5609    9.3342 O   0  0  0  0  0  0  0  0  0  0  0  0
    6.5664   -5.7027   11.0986 C   0  0  0  0  0  0  0  0  0  0  0  0
    7.2574   -6.8636   10.8188 C   0  0  0  0  0  0  0  0  0  0  0  0
    8.2720   -7.2690   11.6821 C   0  0  0  0  0  0  0  0  0  0  0  0
    9.0637   -8.5063   11.4017 C   0  0  0  0  0  0  0  0  0  0  0  0
    8.5555   -6.4894   12.8021 C   0  0  0  0  0  0  0  0  0  0  0  0
    7.8620   -5.3242   13.0906 C   0  0  0  0  0  0  0  0  0  0  0  0
    6.8515   -4.9213   12.2298 C   0  0  0  0  0  0  0  0  0  0  0  0
    5.9495   -3.7750   12.2485 C   0  0  0  0  0  0  0  0  0  0  0  0
    5.8741   -2.8575   13.2638 C   0  0  0  0  0  0  0  0  0  0  0  0
    6.6924   -2.8855   14.4136 C   0  0  0  0  0  0  0  0  0  0  0  0
    7.3215   -2.8387   15.3729 N   0  0  0  0  0  0  0  0  0  0  0  0
    4.9749   -1.7738   13.3605 C   0  0  0  0  0  0  0  0  0  0  0  0
    4.2799   -0.8779   13.5472 N   0  0  0  0  0  0  0  0  0  0  0  0
    0.0243    0.2143   -7.8620 H   0  0  0  0  0  0  0  0  0  0  0  0
   -6.0166    1.4356   -8.8805 H   0  0  0  0  0  0  0  0  0  0  0  0
   -2.4293    2.7322  -12.2128 H   0  0  0  0  0  0  0  0  0  0  0  0
   -5.4472    4.1332  -13.0754 H   0  0  0  0  0  0  0  0  0  0  0  0
   -5.3342    2.4639  -14.9196 H   0  0  0  0  0  0  0  0  0  0  0  0
   -4.6757    0.1846  -13.8199 H   0  0  0  0  0  0  0  0  0  0  0  0
   -6.5800   -0.4877  -12.0951 H   0  0  0  0  0  0  0  0  0  0  0  0
   -8.4143    1.3767  -12.1333 H   0  0  0  0  0  0  0  0  0  0  0  0
   -7.7898    1.4951  -14.7037 H   0  0  0  0  0  0  0  0  0  0  0  0
   -7.7882    3.1544  -14.0552 H   0  0  0  0  0  0  0  0  0  0  0  0
   -7.3006    3.4817  -11.4030 H   0  0  0  0  0  0  0  0  0  0  0  0
   -4.5604    0.4268   -4.7235 H   0  0  0  0  0  0  0  0  0  0  0  0
   -6.4878    0.8620   -3.2300 H   0  0  0  0  0  0  0  0  0  0  0  0
   -7.3522    5.4967   -2.1125 H   0  0  0  0  0  0  0  0  0  0  0  0
   -8.1167    4.9493   -0.6054 H   0  0  0  0  0  0  0  0  0  0  0  0
   -6.3437    4.9667   -0.7255 H   0  0  0  0  0  0  0  0  0  0  0  0
   -5.1944    4.9159   -2.7776 H   0  0  0  0  0  0  0  0  0  0  0  0
   -3.2877    4.4702   -4.2318 H   0  0  0  0  0  0  0  0  0  0  0  0
   -0.2514    3.0300   -6.1055 H   0  0  0  0  0  0  0  0  0  0  0  0
    0.2441    4.5549   -7.9230 H   0  0  0  0  0  0  0  0  0  0  0  0
    0.3806    6.6524  -10.9077 H   0  0  0  0  0  0  0  0  0  0  0  0
    0.6607    5.0538  -10.1937 H   0  0  0  0  0  0  0  0  0  0  0  0
    0.6280    6.5160   -9.1520 H   0  0  0  0  0  0  0  0  0  0  0  0
   -3.9390    4.9749   -8.7231 H   0  0  0  0  0  0  0  0  0  0  0  0
   -4.4409    3.4398   -6.8608 H   0  0  0  0  0  0  0  0  0  0  0  0
    1.2763   -3.8155   -0.4550 H   0  0  0  0  0  0  0  0  0  0  0  0
    2.3566   -3.4236    1.7208 H   0  0  0  0  0  0  0  0  0  0  0  0
    3.2466    1.2825    3.0464 H   0  0  0  0  0  0  0  0  0  0  0  0
    1.5669    0.7923    3.4575 H   0  0  0  0  0  0  0  0  0  0  0  0
    2.8572    0.6838    4.6716 H   0  0  0  0  0  0  0  0  0  0  0  0
    2.1305    0.7936    1.0755 H   0  0  0  0  0  0  0  0  0  0  0  0
    1.0910    0.4108   -1.0880 H   0  0  0  0  0  0  0  0  0  0  0  0
   -1.3255   -3.2386   -3.6664 H   0  0  0  0  0  0  0  0  0  0  0  0
   -0.7986   -5.0617   -5.1822 H   0  0  0  0  0  0  0  0  0  0  0  0
    0.0799   -5.7636   -7.2959 H   0  0  0  0  0  0  0  0  0  0  0  0
   -0.4682   -7.1034   -6.2357 H   0  0  0  0  0  0  0  0  0  0  0  0
    0.6770   -7.4189   -7.5561 H   0  0  0  0  0  0  0  0  0  0  0  0
    3.3031   -4.8779   -3.9838 H   0  0  0  0  0  0  0  0  0  0  0  0
    2.7759   -3.0107   -2.4732 H   0  0  0  0  0  0  0  0  0  0  0  0
   -1.5846   -2.8059   -0.3811 H   0  0  0  0  0  0  0  0  0  0  0  0
   -1.1792   -3.2739    1.9724 H   0  0  0  0  0  0  0  0  0  0  0  0
   -1.2365    3.1441    3.2971 H   0  0  0  0  0  0  0  0  0  0  0  0
   -1.8159    3.6052    0.8607 H   0  0  0  0  0  0  0  0  0  0  0  0
   -0.6698    0.2191    5.0196 H   0  0  0  0  0  0  0  0  0  0  0  0
    0.3902    0.3665    9.6944 H   0  0  0  0  0  0  0  0  0  0  0  0
   -0.0372    2.9109    9.7927 H   0  0  0  0  0  0  0  0  0  0  0  0
   -0.1887    5.0143    8.2054 H   0  0  0  0  0  0  0  0  0  0  0  0
    0.3142    4.2575    5.2797 H   0  0  0  0  0  0  0  0  0  0  0  0
    0.0838    6.2855    3.6518 H   0  0  0  0  0  0  0  0  0  0  0  0
   -0.4348    8.8310    3.6752 H   0  0  0  0  0  0  0  0  0  0  0  0
   -0.3931   10.4164    7.0534 H   0  0  0  0  0  0  0  0  0  0  0  0
   -0.7931   10.7730    5.3653 H   0  0  0  0  0  0  0  0  0  0  0  0
   -2.7285   11.2298    6.8652 H   0  0  0  0  0  0  0  0  0  0  0  0
   -2.6995    9.5548    7.4275 H   0  0  0  0  0  0  0  0  0  0  0  0
   -3.1121    9.9149    5.7487 H   0  0  0  0  0  0  0  0  0  0  0  0
    2.3993   -6.0318    7.5718 H   0  0  0  0  0  0  0  0  0  0  0  0
    3.1655   -7.9568    6.0413 H   0  0  0  0  0  0  0  0  0  0  0  0
    3.6095   -8.4616    3.4316 H   0  0  0  0  0  0  0  0  0  0  0  0
    2.8992   -5.9700    1.7969 H   0  0  0  0  0  0  0  0  0  0  0  0
    4.1027   -9.6989    1.3808 H   0  0  0  0  0  0  0  0  0  0  0  0
    4.2880  -10.3608   -1.1183 H   0  0  0  0  0  0  0  0  0  0  0  0
    2.7973   -7.8547   -3.5218 H   0  0  0  0  0  0  0  0  0  0  0  0
    3.6245   -9.4208   -3.4853 H   0  0  0  0  0  0  0  0  0  0  0  0
    4.9108   -7.6821   -4.7469 H   0  0  0  0  0  0  0  0  0  0  0  0
    5.0070   -6.6999   -3.2817 H   0  0  0  0  0  0  0  0  0  0  0  0
    5.8185   -8.2657   -3.3436 H   0  0  0  0  0  0  0  0  0  0  0  0
    3.6820   -4.4080    8.2994 H   0  0  0  0  0  0  0  0  0  0  0  0
    4.2526   -1.9662   11.3235 H   0  0  0  0  0  0  0  0  0  0  0  0
    7.0065   -7.4389    9.9400 H   0  0  0  0  0  0  0  0  0  0  0  0
    9.3513   -9.0019   12.3260 H   0  0  0  0  0  0  0  0  0  0  0  0
    9.9762   -8.2452   10.8643 H   0  0  0  0  0  0  0  0  0  0  0  0
    8.4967   -9.1996   10.7857 H   0  0  0  0  0  0  0  0  0  0  0  0
    9.3438   -6.8044   13.4704 H   0  0  0  0  0  0  0  0  0  0  0  0
    8.1188   -4.7547   13.9684 H   0  0  0  0  0  0  0  0  0  0  0  0
  1  2  2  0  0  0  0
  2  3  1  0  0  0  0
  3  4  2  0  0  0  0
  3  5  1  0  0  0  0
  5  6  2  0  0  0  0
  6  7  1  0  0  0  0
  7  8  2  0  0  0  0
  8  9  1  0  0  0  0
  9 10  2  0  0  0  0
 10 11  1  0  0  0  0
 11 12  2  0  0  0  0
 12 13  1  0  0  0  0
 13 14  3  0  0  0  0
 12 15  1  0  0  0  0
 15 16  3  0  0  0  0
  8 17  1  0  0  0  0
 17 18  1  0  0  0  0
 18 19  1  0  0  0  0
 19 20  2  0  0  0  0
 20 21  1  0  0  0  0
 21 22  1  0  0  0  0
 21 23  1  0  0  0  0
  1 24  1  0  0  0  0
 24 25  2  0  0  0  0
 25 26  1  0  0  0  0
 26 27  1  0  0  0  0
 27 28  2  0  0  0  0
 28 29  1  0  0  0  0
 29 30  2  0  0  0  0
 30 31  1  0  0  0  0
 31 32  1  0  0  0  0
 30 33  1  0  0  0  0
 33 34  2  0  0  0  0
 26 35  1  0  0  0  0
 35 36  2  0  0  0  0
 36 37  1  0  0  0  0
 37 38  2  0  0  0  0
 38 39  1  0  0  0  0
 39 40  1  0  0  0  0
 38 41  1  0  0  0  0
 41 42  2  0  0  0  0
 25 43  1  0  0  0  0
 43 44  1  0  0  0  0
 44 45  1  0  0  0  0
 45 46  2  0  0  0  0
 46 47  1  0  0  0  0
 47 48  1  0  0  0  0
 48 49  2  0  0  0  0
 49 50  1  0  0  0  0
 50 51  2  0  0  0  0
 51 52  1  0  0  0  0
 52 53  1  0  0  0  0
 51 54  1  0  0  0  0
 54 55  2  0  0  0  0
 47 56  1  0  0  0  0
 56 57  2  0  0  0  0
 57 58  1  0  0  0  0
 58 59  2  0  0  0  0
 59 60  1  0  0  0  0
 60 61  1  0  0  0  0
 59 62  1  0  0  0  0
 62 63  2  0  0  0  0
 46 64  1  0  0  0  0
 64 65  1  0  0  0  0
 45 66  1  0  0  0  0
 66 67  2  0  0  0  0
 67 68  1  0  0  0  0
 68 69  2  0  0  0  0
 69 70  1  0  0  0  0
 70 71  2  0  0  0  0
 71 72  1  0  0  0  0
 72 73  2  0  0  0  0
 73 74  1  0  0  0  0
 74 75  2  0  0  0  0
 69 76  1  0  0  0  0
 76 77  2  0  0  0  0
 77 78  1  0  0  0  0
 78 79  2  0  0  0  0
 79 80  1  0  0  0  0
 80 81  2  0  0  0  0
 81 82  1  0  0  0  0
 82 83  2  0  0  0  0
 83 84  1  0  0  0  0
 84 85  2  0  0  0  0
 85 86  1  0  0  0  0
 86 87  2  0  0  0  0
 87 88  1  0  0  0  0
 88 89  2  0  0  0  0
 89 90  1  0  0  0  0
 90 91  1  0  0  0  0
 89 92  1  0  0  0  0
 83 93  1  0  0  0  0
 79 94  1  0  0  0  0
 94 95  2  0  0  0  0
 95 96  1  0  0  0  0
 96 97  1  0  0  0  0
 97 98  2  0  0  0  0
 98 99  1  0  0  0  0
 99100  2  0  0  0  0
100101  1  0  0  0  0
101102  2  0  0  0  0
102103  1  0  0  0  0
103104  2  0  0  0  0
104105  1  0  0  0  0
105106  2  0  0  0  0
106107  1  0  0  0  0
107108  1  0  0  0  0
106109  1  0  0  0  0
100110  1  0  0  0  0
 96111  2  0  0  0  0
111112  1  0  0  0  0
 95113  1  0  0  0  0
113114  2  0  0  0  0
114115  1  0  0  0  0
114116  1  0  0  0  0
116117  2  0  0  0  0
117118  1  0  0  0  0
118119  2  0  0  0  0
118120  1  0  0  0  0
120121  2  0  0  0  0
121122  1  0  0  0  0
122123  1  0  0  0  0
122124  2  0  0  0  0
124125  1  0  0  0  0
125126  2  0  0  0  0
126127  1  0  0  0  0
127128  2  0  0  0  0
128129  1  0  0  0  0
129130  3  0  0  0  0
128131  1  0  0  0  0
131132  3  0  0  0  0
 11  2  1  0  0  0  0
 23 17  1  0  0  0  0
 65 24  1  0  0  0  0
 75 66  1  0  0  0  0
112 76  1  0  0  0  0
127117  1  0  0  0  0
 10  5  1  0  0  0  0
 22 18  1  0  0  0  0
 34 27  1  0  0  0  0
 42 35  1  0  0  0  0
 64 43  2  0  0  0  0
 75 70  1  0  0  0  0
111 78  1  0  0  0  0
126120  1  0  0  0  0
 23  7  1  0  0  0  0
 55 48  1  0  0  0  0
 63 56  1  0  0  0  0
 93 80  1  0  0  0  0
115 94  1  0  0  0  0
 92 86  1  0  0  0  0
110 97  1  0  0  0  0
109103  1  0  0  0  0
  1133  1  0  0  0  0
  6134  1  0  0  0  0
  9135  1  0  0  0  0
 17136  1  0  0  0  0
 18137  1  0  0  0  0
 19138  1  0  0  0  0
 20139  1  0  0  0  0
 21140  1  0  0  0  0
 22141  1  0  0  0  0
 22142  1  0  0  0  0
 23143  1  0  0  0  0
 28144  1  0  0  0  0
 29145  1  0  0  0  0
 32146  1  0  0  0  0
 32147  1  0  0  0  0
 32148  1  0  0  0  0
 33149  1  0  0  0  0
 34150  1  0  0  0  0
 36151  1  0  0  0  0
 37152  1  0  0  0  0
 40153  1  0  0  0  0
 40154  1  0  0  0  0
 40155  1  0  0  0  0
 41156  1  0  0  0  0
 42157  1  0  0  0  0
 49158  1  0  0  0  0
 50159  1  0  0  0  0
 53160  1  0  0  0  0
 53161  1  0  0  0  0
 53162  1  0  0  0  0
 54163  1  0  0  0  0
 55164  1  0  0  0  0
 57165  1  0  0  0  0
 58166  1  0  0  0  0
 61167  1  0  0  0  0
 61168  1  0  0  0  0
 61169  1  0  0  0  0
 62170  1  0  0  0  0
 63171  1  0  0  0  0
 67172  1  0  0  0  0
 68173  1  0  0  0  0
 72174  1  0  0  0  0
 73175  1  0  0  0  0
 77176  1  0  0  0  0
 81177  1  0  0  0  0
 82178  1  0  0  0  0
 84179  1  0  0  0  0
 85180  1  0  0  0  0
 87181  1  0  0  0  0
 88182  1  0  0  0  0
 90183  1  0  0  0  0
 90184  1  0  0  0  0
 91185  1  0  0  0  0
 91186  1  0  0  0  0
 91187  1  0  0  0  0
 98188  1  0  0  0  0
 99189  1  0  0  0  0
101190  1  0  0  0  0
102191  1  0  0  0  0
104192  1  0  0  0  0
105193  1  0  0  0  0
107194  1  0  0  0  0
107195  1  0  0  0  0
108196  1  0  0  0  0
108197  1  0  0  0  0
108198  1  0  0  0  0
113199  1  0  0  0  0
116200  1  0  0  0  0
121201  1  0  0  0  0
123202  1  0  0  0  0
123203  1  0  0  0  0
123204  1  0  0  0  0
124205  1  0  0  0  0
125206  1  0  0  0  0
M  END
