265

C          5.34120       -1.86680        6.42120
C          6.58260       -2.39200        6.16010
C          7.21250       -3.29990        7.13890
O          6.81870       -3.54610        8.26330
C          8.36750       -3.89550        6.43600
C          9.22700       -4.88520        6.90430
C         10.19900       -5.25640        6.00520
C         10.31220       -4.68680        4.73080
C          9.47740       -3.70120        4.25780
C          8.48260       -3.31270        5.15580
C          7.45160       -2.28560        5.01990
C          7.47180       -1.24710        4.11570
C          8.34740       -1.14100        3.02280
N          9.00960       -0.99150        2.09480
C          6.65010       -0.11090        4.24050
N          6.03760        0.85690        4.34500
C         11.49470       -5.54750        4.36310
C         11.24590       -6.75570        3.42660
C          9.80750       -7.16390        3.62560
C          9.70280       -7.70240        4.83320
C         11.06860       -7.66750        5.47270
C         11.95400       -7.85770        4.23070
C         11.37090       -6.18070        5.78470
C          4.40190       -1.41110        5.48640
C          3.37940       -0.45120        5.63550
N          3.03790        0.15710        6.81250
C          3.18320       -0.53860        8.02520
C          3.78290        0.07000        9.12680
C          4.03120       -0.66080       10.26870
C          3.69640       -2.01000       10.32570
S          4.15550       -2.93380       11.75940
C          4.72290       -4.48490       10.99540
C          3.02720       -2.59850        9.25880
C          2.76590       -1.86580        8.11980
C          2.66910        1.51190        6.85870
C          1.71160        1.91740        7.78340
C          1.41400        3.25480        7.94440
C          2.07130        4.20470        7.17450
S          1.83950        5.94050        7.38090
C          0.95060        6.07750        8.96020
C          2.98280        3.79730        6.20280
C          3.28730        2.46250        6.04650
C          2.78420       -0.15610        4.38930
S          1.58110        0.96730        3.82780
C          1.75210        0.36890        2.19050
C          2.68970       -0.64900        2.09630
N          3.00400       -1.31960        0.89810
C          4.16350       -0.93040        0.20380
C          4.31340       -1.29020       -1.13660
C          5.45750       -0.95240       -1.82260
C          6.47310       -0.23160       -1.19580
S          7.92370        0.10800       -2.14130
C          9.12770        0.64340       -0.89180
C          6.29550        0.19070        0.11290
C          5.15020       -0.15620        0.80470
C          2.49260       -2.62250        0.78960
C          3.26960       -3.69120        0.35230
C          2.73230       -4.95860        0.24590
C          1.40750       -5.18400        0.58960
S          0.61400       -6.76630        0.43910
C          2.00510       -7.93170        0.43660
C          0.62760       -4.12690        1.04780
C          1.16550       -2.86310        1.15120
C          3.25690       -0.93870        3.34230
S          4.47240       -2.04820        3.83970
C          0.92820        0.79100        1.12280
C         -0.20450        1.59120        1.17080
N         -0.66910        2.30090        2.27920
C          0.03290        3.41680        2.73720
C         -0.32660        4.02870        3.93750
C          0.26990        5.20650        4.33400
C          1.27070        5.77640        3.55900
S          2.02330        7.33100        3.93930
C          0.69770        8.19700        4.83200
C          1.70920        5.11320        2.41840
C          1.09160        3.95390        2.00370
C         -2.05080        2.15280        2.51410
C         -2.91100        3.23620        2.65400
C         -4.26630        3.03830        2.83450
C         -4.78810        1.75260        2.86400
S         -6.50050        1.37780        3.07130
C         -7.29330        3.00400        3.22120
C         -3.93030        0.66400        2.71720
C         -2.57920        0.86130        2.54790
C         -0.88310        1.57370       -0.06420
S         -2.33650        2.31550       -0.62030
C         -2.10200        1.61170       -2.21260
C         -0.93680        0.86250       -2.29000
N         -0.48510        0.26710       -3.45520
C         -0.64900        0.92980       -4.68170
C         -0.96590        0.20700       -5.83130
C         -1.12580        0.85600       -7.03520
C         -0.97270        2.23910       -7.12180
S         -1.21600        2.96420       -8.71210
C         -0.67730        4.68340       -8.50150
C         -0.66330        2.96230       -5.97700
C         -0.50380        2.31080       -4.77030
C          0.26430       -0.91130       -3.38430
C          1.38460       -1.08160       -4.19780
C          2.13080       -2.23670       -4.11870
C          1.77650       -3.23960       -3.22260
S          2.80160       -4.68560       -3.14910
C          1.55470       -6.01000       -3.08430
C          0.67010       -3.07230       -2.40160
C         -0.08680       -1.92090       -2.48860
C         -0.24870        0.84420       -1.05680
S          1.20280        0.10450       -0.47660
C         -3.15010        1.56110       -3.19170
C         -3.93700        2.51700       -3.81190
N         -3.74890        3.88550       -3.77090
C         -3.30390        4.52850       -2.59490
C         -2.07180        5.17100       -2.57930
C         -1.61500        5.79080       -1.43280
C         -2.40400        5.80000       -0.28960
S         -1.90380        6.54110        1.23360
C         -0.36510        7.40530        0.81890
C         -3.65920        5.19530       -0.31580
C         -4.10370        4.55700       -1.45460
C         -3.92890        4.65550       -4.92470
C         -3.73820        4.11380       -6.19700
C         -3.95810        4.87760       -7.32100
C         -4.34490        6.20950       -7.20600
S         -4.57030        7.10810       -8.71080
C         -5.58940        8.52240       -8.20020
C         -4.49760        6.76630       -5.94390
C         -4.30170        5.99320       -4.81650
C         -4.94500        1.90880       -4.60940
S         -6.22210        2.53440       -5.59150
C         -6.73340        0.89000       -5.99750
C         -5.86100       -0.08550       -5.44380
N         -5.91010       -1.43430       -5.66010
C         -5.35540       -2.27530       -4.67090
C         -5.75330       -2.13830       -3.34080
C         -5.14660       -2.88670       -2.35850
C         -4.13150       -3.78740       -2.68210
S         -3.36230       -4.61050       -1.32890
C         -2.13470       -5.69390       -2.10810
C         -3.77750       -3.96750       -4.01390
C         -4.38810       -3.21760       -5.00040
C         -6.33050       -2.00780       -6.87190
C         -7.01080       -3.22140       -6.85880
C         -7.48620       -3.76990       -8.03420
C         -7.30380       -3.10100       -9.23630
S         -7.96630       -3.66040      -10.77120
C         -9.31090       -4.76730      -10.25600
C         -6.56130       -1.91970       -9.25950
C         -6.06840       -1.38300       -8.09320
C         -4.89160        0.52290       -4.62900
S         -3.61310       -0.08240       -3.63820
C         -7.89540        0.56870       -6.68910
C         -8.79090        1.37020       -7.36850
C         -8.67370        2.81160       -7.58260
O         -7.86250        3.58290       -7.10300
C         -9.75990        3.16910       -8.52360
C        -10.06860        4.40580       -9.04900
C        -11.15110        4.50020       -9.91640
Cl       -11.59220        6.01390      -10.60620
C        -11.88370        3.35360      -10.22430
F        -12.92790        3.45260      -11.05800
C        -11.57760        2.10670       -9.69890
C        -10.49750        2.01510       -8.83690
C         -9.92970        0.88270       -8.10550
C        -10.42710       -0.39880       -8.13100
C         -9.99360       -1.46750       -7.32560
N         -9.74480       -2.39210       -6.68740
C        -11.48370       -0.82420       -8.96040
N        -12.31940       -1.25610       -9.61940
H          5.06280       -1.88390        7.46720
H          9.11180       -5.29860        7.89420
H          9.56780       -3.26910        3.27430
H         12.41320       -5.01690        4.11960
H         11.56350       -6.60270        2.39860
H          9.02640       -6.97120        2.91360
H          8.81660       -8.05000        5.33140
H         11.22540       -8.34550        6.30770
H         11.84410       -8.84390        3.78180
H         13.00780       -7.65210        4.41360
H         12.20880       -6.06260        6.46920
H          4.09100        1.10270        9.06310
H          4.52510       -0.20510       11.11250
H          5.34060       -4.24730       10.13380
H          5.31410       -4.99000       11.75250
H          3.87650       -5.10620       10.71780
H          2.71750       -3.63020        9.30980
H          2.26440       -2.32710        7.28160
H          1.21260        1.17930        8.39400
H          0.67590        3.54000        8.67640
H          1.48600        5.52900        9.72910
H          0.94190        7.13620        9.20110
H         -0.06920        5.71710        8.85660
H          3.47400        4.54190        5.59580
H          4.03870        2.15800        5.33410
H          3.52920       -1.84330       -1.63010
H          5.57960       -1.24910       -2.85290
H          8.88860        1.64580       -0.54730
H         10.08910        0.64930       -1.39590
H          9.14140       -0.06350       -0.06730
H          7.04400        0.77990        0.61710
H          5.04140        0.18320        1.82350
H          4.30470       -3.53470        0.09180
H          3.36120       -5.75910       -0.10870
H          1.56490       -8.91760        0.54960
H          2.65640       -7.71410        1.27750
H          2.54580       -7.87560       -0.50390
H         -0.40370       -4.30530        1.31300
H          0.55090       -2.05200        1.51040
H         -1.09460        3.58460        4.55210
H         -0.04840        5.67700        5.24950
H         -0.25150        8.00570        4.34040
H          0.94330        9.25310        4.78110
H          0.67470        7.87420        5.86810
H          2.51980        5.53470        1.84280
H          1.41120        3.47870        1.08810
H         -2.52510        4.24250        2.60230
H         -4.90400        3.90140        2.93840
H         -7.14250        3.57700        2.31100
H         -6.90540        3.52910        4.08920
H         -8.35110        2.80050        3.35680
H         -4.33900       -0.33460        2.73900
H         -1.91870        0.01420        2.43480
H         -1.08580       -0.86420       -5.76730
H         -1.37490        0.30060       -7.92650
H          0.34780        4.70470       -8.14350
H         -0.73410        5.12770       -9.49040
H         -1.34990        5.20730       -7.82790
H         -0.54470        4.03330       -6.01460
H         -0.25610        2.87670       -3.88410
H          1.66630       -0.30080       -4.88820
H          3.00200       -2.36840       -4.74140
H          0.82780       -5.85170       -3.87460
H          1.07120       -6.03760       -2.11320
H          2.09170       -6.93680       -3.25950
H          0.40140       -3.83100       -1.68380
H         -0.95850       -1.80190       -1.86200
H         -1.46510        5.17120       -3.47290
H         -0.64210        6.25490       -1.44200
H         -0.54610        8.11040        0.01300
H          0.40590        6.68560        0.56120
H         -0.07150        7.93920        1.71670
H         -4.27410        5.22390        0.56980
H         -5.06870        4.07330       -1.47030
H         -3.41340        3.09070       -6.30490
H         -3.83150        4.44670       -8.30220
H         -5.94420        8.97880       -9.11910
H         -6.42900        8.16500       -7.61190
H         -4.99330        9.23930       -7.64250
H         -4.77970        7.80010       -5.82340
H         -4.44390        6.43060       -3.83930
H         -6.52950       -1.43170       -3.08780
H         -5.44020       -2.77480       -1.32640
H         -2.63280       -6.44230       -2.71730
H         -1.44390       -5.09730       -2.69610
H         -1.60730       -6.17530       -1.28920
H         -3.01570       -4.67540       -4.29690
H         -4.09690       -3.34350       -6.03280
H         -7.19010       -3.72330       -5.92090
H         -8.02230       -4.70320       -7.99300
H         -9.89890       -4.28290       -9.48220
H         -9.91910       -4.92410      -11.14130
H         -8.90960       -5.71640       -9.91280
H         -6.38370       -1.42920      -10.20410
H         -5.50100       -0.46460       -8.11660
H         -8.11680       -0.49070       -6.70740
H         -9.48430        5.27470       -8.79170
H        -12.18420        1.26060       -9.97770
