206

C          6.04510        1.78620       -5.13370
C          6.57010        1.17490       -6.25190
C          5.79810        0.36100       -7.20340
O          4.60710        0.11070       -7.15960
C          6.73750        0.03090       -8.29780
C          6.48350       -0.74920       -9.42160
C          7.56870       -0.90780      -10.25160
C          8.80960       -0.31070      -10.00000
C          9.07170        0.47120       -8.90030
C          7.98770        0.62390       -8.03340
C          7.90460        1.32580       -6.75610
C          8.96100        1.86610       -6.06010
C          8.87000        2.35830       -4.74380
N          8.88990        2.72640       -3.65470
C         10.28850        1.90330       -6.52160
N         11.39940        1.94390       -6.81510
C          9.43340       -0.88890      -11.24600
C         10.37760       -2.09280      -11.04740
C         10.43880       -2.73570      -12.41360
C          9.26650       -3.31480      -12.63950
C          8.39270       -3.07100      -11.42990
C          9.45900       -3.08720      -10.32710
C          8.05290       -1.56780      -11.51940
C          4.95360        1.35900       -4.37690
C          4.33480        0.10060       -4.22460
N          4.72360       -1.09820       -4.76080
C          3.72650       -2.07830       -4.96500
C          2.56380       -1.75710       -5.66240
C          1.60080       -2.71850       -5.87000
C          1.77470       -4.01180       -5.37790
S          0.47570       -5.15900       -5.70840
C          0.92770       -6.62620       -4.73880
C          2.93680       -4.33330       -4.68940
C          3.90730       -3.37070       -4.48760
C          6.03730       -1.41950       -5.10320
C          7.12820       -0.91330       -4.39880
C          8.42170       -1.19740       -4.79320
C          8.65390       -2.00110       -5.90250
S         10.24630       -2.36430       -6.55940
C         11.40150       -1.52480       -5.44170
C          7.56590       -2.56160       -6.57230
C          6.27930       -2.27470       -6.18350
C          3.26890        0.18530       -3.29670
S          2.14220       -0.96610       -2.65190
C          1.54410        0.22310       -1.52580
C          2.10860        1.47510       -1.70570
N          1.71170        2.63190       -1.05380
C          0.37390        2.79830       -0.68080
C          0.03130        3.36800        0.54350
C         -1.28300        3.39500        0.97060
C         -2.28750        2.88010        0.16330
S         -3.98650        2.75030        0.63670
C         -4.08580        3.70720        2.17320
C         -1.96070        2.39880       -1.10300
C         -0.65040        2.35060       -1.51810
C          2.69120        3.56290       -0.68420
C          3.94950        3.13110       -0.27430
C          4.94520        4.04100        0.02030
C          4.69330        5.40190       -0.08330
S          5.90260        6.64530        0.24870
C          7.47280        5.73720        0.15210
C          3.42190        5.83840       -0.45070
C          2.43080        4.93130       -0.75240
C          3.10900        1.43130       -2.70510
S          4.25070        2.57530       -3.29610
C          0.56490       -0.09950       -0.51670
C         -0.59900       -0.80990       -0.78170
O         -0.74850       -1.28160       -2.05610
C         -0.99390       -2.67750       -2.22220
C         -1.46130       -2.89220       -3.65030
C         -1.65740       -0.89070        0.16600
O         -2.82720       -1.50630       -0.21140
C         -3.62560       -0.78320       -1.15210
C         -4.75330       -1.69190       -1.60930
C         -1.55250       -0.33350        1.44150
C         -0.30040        0.24870        1.76990
C          0.74320        0.37790        0.79850
N          1.83410        0.95210        1.30200
S          1.55960        1.31880        2.84430
N          0.05410        0.75690        2.94550
C         -2.63690       -0.23070        2.37540
S         -2.43950        0.78330        3.79400
C         -4.08720        0.53760        4.20970
C         -4.99850        0.99430        5.22060
C         -6.26420        0.44850        4.91300
C         -6.20270       -0.39620        3.65380
C         -6.71090       -1.78470        3.96900
C         -8.06500       -2.07690        3.86750
C         -8.53940       -3.32860        4.21220
C         -7.67850       -4.31470        4.67550
C         -8.18660       -5.68700        5.01310
C         -8.05660       -6.61910        3.80690
C         -6.32640       -4.01530        4.77910
C         -5.84640       -2.76570        4.43490
C         -6.89300        0.24090        2.46070
C         -7.11060       -0.51720        1.31690
C         -7.59130        0.07330        0.16500
C         -7.85590        1.43620        0.11970
C         -8.27410        2.09100       -1.16400
C         -7.03710        2.42890       -1.99910
C         -7.65700        2.18490        1.27050
C         -7.18150        1.59720        2.42870
C         -4.73210       -0.30750        3.32600
C         -3.91440       -0.74940        2.28990
C         -7.34980        0.72250        5.71770
C         -7.17420        1.54650        6.81570
C         -5.91670        2.07490        7.14590
C         -4.81820        1.80770        6.32310
C         -5.83100        2.92870        8.30690
C         -4.80290        3.06770        9.17820
C         -3.62670        2.16020        9.31640
O         -3.29680        1.26080        8.57420
C         -2.99070        2.53420       10.59340
C         -3.67520        3.60370       11.16940
C         -3.26430        4.12950       12.40310
C         -2.17540        3.57860       13.02510
C         -1.45430        2.50230       12.46290
C         -0.32860        1.95020       13.10660
C          0.35470        0.90750       12.54350
C         -0.05590        0.36900       11.31370
C         -1.14410        0.87680       10.65920
C         -1.86690        1.95280       11.21420
C         -4.77310        3.99890       10.29840
C         -5.57370        5.09650       10.46130
C         -6.56970        5.51830        9.55310
N         -7.38080        5.94440        8.86090
C         -5.49640        5.99130       11.55030
N         -5.49670        6.75670       12.40560
H          6.50850        2.70350       -4.78940
H          5.50990       -1.18400       -9.58700
H         10.02860        0.93270       -8.72060
H          9.80810       -0.16630      -11.96860
H         11.32490       -1.85500      -10.57200
H         11.28040       -2.65850      -13.07690
H          8.93330       -3.81660      -13.52930
H          7.53370       -3.72600      -11.30810
H          9.92100       -4.06630      -10.21270
H          9.11120       -2.73540       -9.35830
H          7.51410       -1.30730      -12.42890
H          2.44870       -0.76170       -6.06100
H          0.70740       -2.48490       -6.42890
H          1.83070       -7.07870       -5.13800
H          0.09550       -7.31490       -4.84690
H          1.04900       -6.35370       -3.69470
H          3.10220       -5.32740       -4.30690
H          4.81300       -3.62260       -3.95560
H          6.96920       -0.28550       -3.53490
H          9.23810       -0.77190       -4.23150
H         11.27350       -1.89540       -4.42900
H         11.26300       -0.44910       -5.49540
H         12.39160       -1.78110       -5.80570
H          7.74590       -3.20850       -7.41700
H          5.44550       -2.68610       -6.73100
H          0.80840        3.76030        1.18350
H         -1.50350        3.79940        1.94540
H         -3.74550        4.72280        1.99370
H         -5.13630        3.70690        2.44560
H         -3.50390        3.22470        2.95330
H         -2.75050        2.05720       -1.75380
H         -0.40950        1.95310       -2.49230
H          4.13890        2.07320       -0.17350
H          5.91020        3.67640        0.33270
H          7.60010        5.10690        1.02780
H          7.50020        5.15310       -0.76270
H          8.24980        6.49510        0.13220
H          3.22940        6.89830       -0.51480
H          1.45410        5.27420       -1.05980
H         -1.74160       -3.02840       -1.50490
H         -0.05250       -3.21750       -2.04320
H         -0.71300       -2.50880       -4.33780
H         -1.60620       -3.95150       -3.83930
H         -2.39660       -2.36720       -3.82510
H         -4.02910        0.11410       -0.66240
H         -3.01110       -0.47420       -2.00500
H         -4.35250       -2.59120       -2.07030
H         -5.36940       -1.98000       -0.76240
H         -5.37060       -1.16610       -2.33220
H         -8.75020       -1.32300        3.50650
H         -9.59570       -3.54090        4.12460
H         -9.23480       -5.63070        5.31330
H         -7.61400       -6.09760        5.84750
H         -8.42300       -7.61330        4.05200
H         -8.63170       -6.23370        2.96790
H         -7.01590       -6.69800        3.50030
H         -5.64050       -4.76860        5.14040
H         -4.79230       -2.54980        4.52970
H         -6.90000       -1.57710        1.33420
H         -7.75480       -0.52970       -0.71690
H         -8.92310        1.42130       -1.73260
H         -8.82850        3.00710       -0.95240
H         -6.36950        3.07810       -1.43760
H         -6.49080        1.52200       -2.24910
H         -7.32330        2.92990       -2.92090
H         -7.86770        3.24510        1.25880
H         -7.02720        2.20050        3.31210
H         -4.22150       -1.41820        1.51050
H         -8.32270        0.31330        5.49110
H         -8.01800        1.77340        7.45110
H         -3.85400        2.24390        6.52290
H         -6.73540        3.49150        8.50950
H         -3.79560        4.94720       12.86110
H         -1.84800        3.97150       13.97680
H         -0.01510        2.36760       14.05250
H          1.21680        0.49050       13.04280
H          0.49720       -0.45400       10.88640
H         -1.46800        0.46890        9.71490
