
  xtb     02082211433D
 energy: -299.630350630095 gnorm: 0.000858158867 xtb: 6.4.1 (unknown)
169186  0     0  0            999 V2000
   -6.0458   -1.3391   -4.6633 C   0  0  0  0  0  0  0  0  0  0  0  0
   -7.3445   -1.1642   -4.3280 C   0  0  0  0  0  0  0  0  0  0  0  0
   -8.4240   -1.7359   -5.1897 C   0  0  0  0  0  0  0  0  0  0  0  0
   -8.3074   -2.1225   -6.3287 O   0  0  0  0  0  0  0  0  0  0  0  0
   -9.6219   -1.7748   -4.3301 C   0  0  0  0  0  0  0  0  0  0  0  0
  -10.8516   -2.3640   -4.6172 C   0  0  0  0  0  0  0  0  0  0  0  0
  -11.7692   -2.2718   -3.5980 C   0  0  0  0  0  0  0  0  0  0  0  0
  -11.4839   -1.6562   -2.3707 C   0  0  0  0  0  0  0  0  0  0  0  0
  -10.2791   -1.0660   -2.0743 C   0  0  0  0  0  0  0  0  0  0  0  0
   -9.3396   -1.1306   -3.1059 C   0  0  0  0  0  0  0  0  0  0  0  0
   -7.9857   -0.5956   -3.1611 C   0  0  0  0  0  0  0  0  0  0  0  0
   -7.5038    0.4328   -2.3969 C   0  0  0  0  0  0  0  0  0  0  0  0
   -6.2626    1.0607   -2.6203 C   0  0  0  0  0  0  0  0  0  0  0  0
   -5.2741    1.6265   -2.7654 N   0  0  0  0  0  0  0  0  0  0  0  0
   -8.2178    1.0376   -1.3474 C   0  0  0  0  0  0  0  0  0  0  0  0
   -8.7448    1.5761   -0.4800 N   0  0  0  0  0  0  0  0  0  0  0  0
  -12.8552   -1.9463   -1.8154 C   0  0  0  0  0  0  0  0  0  0  0  0
  -13.8685   -0.7767   -1.7588 C   0  0  0  0  0  0  0  0  0  0  0  0
  -13.4674    0.1885   -2.8470 C   0  0  0  0  0  0  0  0  0  0  0  0
  -13.7395   -0.3815   -4.0133 C   0  0  0  0  0  0  0  0  0  0  0  0
  -14.3295   -1.7420   -3.7350 C   0  0  0  0  0  0  0  0  0  0  0  0
  -15.0790   -1.4493   -2.4253 C   0  0  0  0  0  0  0  0  0  0  0  0
  -13.1774   -2.6206   -3.1862 C   0  0  0  0  0  0  0  0  0  0  0  0
   -4.8822   -1.2075   -3.8327 C   0  0  0  0  0  0  0  0  0  0  0  0
   -3.6390   -0.9511   -4.3871 C   0  0  0  0  0  0  0  0  0  0  0  0
   -2.4977   -0.8007   -3.6000 C   0  0  0  0  0  0  0  0  0  0  0  0
   -1.3531   -0.4893   -4.2362 F   0  0  0  0  0  0  0  0  0  0  0  0
   -2.4810   -0.9212   -2.2211 C   0  0  0  0  0  0  0  0  0  0  0  0
   -3.7158   -1.2847   -1.6392 C   0  0  0  0  0  0  0  0  0  0  0  0
   -4.9121   -1.4108   -2.4272 C   0  0  0  0  0  0  0  0  0  0  0  0
   -5.9508   -1.7932   -1.6848 N   0  0  0  0  0  0  0  0  0  0  0  0
   -5.4671   -1.9794   -0.1615 S   0  0  0  0  0  0  0  0  0  0  0  0
   -3.9262   -1.5957   -0.3617 N   0  0  0  0  0  0  0  0  0  0  0  0
   -1.2747   -0.7015   -1.4416 C   0  0  0  0  0  0  0  0  0  0  0  0
   -1.0079    0.3177   -0.5529 C   0  0  0  0  0  0  0  0  0  0  0  0
   -1.8616    1.3739   -0.2322 N   0  0  0  0  0  0  0  0  0  0  0  0
   -3.0307    1.1266    0.4993 C   0  0  0  0  0  0  0  0  0  0  0  0
   -3.0250    0.1858    1.5288 C   0  0  0  0  0  0  0  0  0  0  0  0
   -4.1723   -0.0558    2.2507 C   0  0  0  0  0  0  0  0  0  0  0  0
   -5.3484    0.6295    1.9543 C   0  0  0  0  0  0  0  0  0  0  0  0
   -6.7759    0.2021    2.9040 S   0  0  0  0  0  0  0  0  0  0  0  0
   -7.8950    1.6112    2.6583 C   0  0  0  0  0  0  0  0  0  0  0  0
   -5.3583    1.5668    0.9289 C   0  0  0  0  0  0  0  0  0  0  0  0
   -4.2045    1.8162    0.2111 C   0  0  0  0  0  0  0  0  0  0  0  0
   -1.3763    2.6669   -0.4273 C   0  0  0  0  0  0  0  0  0  0  0  0
   -1.7643    3.7212    0.3968 C   0  0  0  0  0  0  0  0  0  0  0  0
   -1.2497    4.9894    0.2121 C   0  0  0  0  0  0  0  0  0  0  0  0
   -0.3282    5.2283   -0.7976 C   0  0  0  0  0  0  0  0  0  0  0  0
    0.4193    6.7992   -1.1064 S   0  0  0  0  0  0  0  0  0  0  0  0
   -0.5307    7.9450   -0.0659 C   0  0  0  0  0  0  0  0  0  0  0  0
    0.0628    4.1793   -1.6266 C   0  0  0  0  0  0  0  0  0  0  0  0
   -0.4574    2.9187   -1.4505 C   0  0  0  0  0  0  0  0  0  0  0  0
    0.3310    0.2480   -0.0896 C   0  0  0  0  0  0  0  0  0  0  0  0
    1.2669    1.2193    0.9850 S   0  0  0  0  0  0  0  0  0  0  0  0
    2.6416    0.1759    0.7362 C   0  0  0  0  0  0  0  0  0  0  0  0
    2.3918   -0.8612   -0.1326 C   0  0  0  0  0  0  0  0  0  0  0  0
    3.3545   -1.7870   -0.5112 N   0  0  0  0  0  0  0  0  0  0  0  0
    4.6565   -1.2966   -0.7434 C   0  0  0  0  0  0  0  0  0  0  0  0
    4.8495   -0.2831   -1.6796 C   0  0  0  0  0  0  0  0  0  0  0  0
    6.1011    0.2658   -1.8586 C   0  0  0  0  0  0  0  0  0  0  0  0
    7.1810   -0.1852   -1.1025 C   0  0  0  0  0  0  0  0  0  0  0  0
    8.7301    0.6215   -1.3736 S   0  0  0  0  0  0  0  0  0  0  0  0
    9.7639    0.0640    0.0081 C   0  0  0  0  0  0  0  0  0  0  0  0
    7.0003   -1.2290   -0.2061 C   0  0  0  0  0  0  0  0  0  0  0  0
    5.7473   -1.7820   -0.0316 C   0  0  0  0  0  0  0  0  0  0  0  0
    3.0516   -3.1369   -0.6328 C   0  0  0  0  0  0  0  0  0  0  0  0
    3.8361   -3.9638   -1.4352 C   0  0  0  0  0  0  0  0  0  0  0  0
    3.5414   -5.3063   -1.5693 C   0  0  0  0  0  0  0  0  0  0  0  0
    2.4429   -5.8475   -0.9164 C   0  0  0  0  0  0  0  0  0  0  0  0
    1.9664   -7.5473   -1.0175 S   0  0  0  0  0  0  0  0  0  0  0  0
    3.0059   -8.2097   -2.3507 C   0  0  0  0  0  0  0  0  0  0  0  0
    1.6603   -5.0283   -0.1065 C   0  0  0  0  0  0  0  0  0  0  0  0
    1.9626   -3.6939    0.0434 C   0  0  0  0  0  0  0  0  0  0  0  0
    1.0563   -0.8087   -0.6078 C   0  0  0  0  0  0  0  0  0  0  0  0
    0.1045   -1.7508   -1.6979 S   0  0  0  0  0  0  0  0  0  0  0  0
    3.8930    0.4352    1.4504 C   0  0  0  0  0  0  0  0  0  0  0  0
    4.1742   -0.3398    2.5910 C   0  0  0  0  0  0  0  0  0  0  0  0
    3.0877   -1.6651    2.9665 S   0  0  0  0  0  0  0  0  0  0  0  0
    4.2265   -2.9924    3.5354 C   0  0  0  0  0  0  0  0  0  0  0  0
    3.8760   -4.2968    2.8473 C   0  0  0  0  0  0  0  0  0  0  0  0
    5.2544   -0.0108    3.4129 C   0  0  0  0  0  0  0  0  0  0  0  0
    5.3619   -0.6476    5.0694 S   0  0  0  0  0  0  0  0  0  0  0  0
    5.2820    0.9110    6.0243 C   0  0  0  0  0  0  0  0  0  0  0  0
    4.0218    1.6966    5.7255 C   0  0  0  0  0  0  0  0  0  0  0  0
    6.2141    0.8869    2.9486 C   0  0  0  0  0  0  0  0  0  0  0  0
    5.9977    1.5665    1.7430 C   0  0  0  0  0  0  0  0  0  0  0  0
    4.7899    1.4225    1.0390 C   0  0  0  0  0  0  0  0  0  0  0  0
    4.5027    2.2499   -0.1574 C   0  0  0  0  0  0  0  0  0  0  0  0
    3.4375    2.2312   -0.7439 O   0  0  0  0  0  0  0  0  0  0  0  0
    5.6113    3.1120   -0.5796 C   0  0  0  0  0  0  0  0  0  0  0  0
    6.8693    3.1655    0.0925 C   0  0  0  0  0  0  0  0  0  0  0  0
    7.1244    2.3735    1.2798 C   0  0  0  0  0  0  0  0  0  0  0  0
    8.1984    2.3372    1.8760 O   0  0  0  0  0  0  0  0  0  0  0  0
    7.7477    4.0204   -0.5161 C   0  0  0  0  0  0  0  0  0  0  0  0
    7.0650    4.7644   -1.8942 S   0  0  0  0  0  0  0  0  0  0  0  0
    5.5837    3.9336   -1.6706 C   0  0  0  0  0  0  0  0  0  0  0  0
    7.4420    1.1586    3.6896 C   0  0  0  0  0  0  0  0  0  0  0  0
    8.3530    0.1990    3.9909 C   0  0  0  0  0  0  0  0  0  0  0  0
    8.3438   -1.1627    3.4085 C   0  0  0  0  0  0  0  0  0  0  0  0
    7.4680   -1.6897    2.7529 O   0  0  0  0  0  0  0  0  0  0  0  0
    9.6450   -1.7532    3.7754 C   0  0  0  0  0  0  0  0  0  0  0  0
   10.1605   -2.9909    3.4404 C   0  0  0  0  0  0  0  0  0  0  0  0
   11.4276   -3.3259    3.8904 C   0  0  0  0  0  0  0  0  0  0  0  0
   12.1467   -2.4218    4.6604 C   0  0  0  0  0  0  0  0  0  0  0  0
   14.0785   -2.9567    5.3245 I   0  0  0  0  0  0  0  0  0  0  0  0
   11.6420   -1.1776    5.0103 C   0  0  0  0  0  0  0  0  0  0  0  0
   10.3740   -0.8427    4.5614 C   0  0  0  0  0  0  0  0  0  0  0  0
    9.5702    0.3584    4.7669 C   0  0  0  0  0  0  0  0  0  0  0  0
    9.8738    1.3994    5.6008 C   0  0  0  0  0  0  0  0  0  0  0  0
    8.9948    2.4669    5.8792 C   0  0  0  0  0  0  0  0  0  0  0  0
    8.2988    3.3309    6.1757 N   0  0  0  0  0  0  0  0  0  0  0  0
   11.0746    1.5070    6.3334 C   0  0  0  0  0  0  0  0  0  0  0  0
   12.0326    1.6443    6.9501 N   0  0  0  0  0  0  0  0  0  0  0  0
   -5.8685   -1.6869   -5.6760 H   0  0  0  0  0  0  0  0  0  0  0  0
  -11.0303   -2.8418   -5.5677 H   0  0  0  0  0  0  0  0  0  0  0  0
  -10.0618   -0.6062   -1.1241 H   0  0  0  0  0  0  0  0  0  0  0  0
  -12.8854   -2.5674   -0.9225 H   0  0  0  0  0  0  0  0  0  0  0  0
  -14.0126   -0.3517   -0.7692 H   0  0  0  0  0  0  0  0  0  0  0  0
  -12.9889    1.1325   -2.6630 H   0  0  0  0  0  0  0  0  0  0  0  0
  -13.5341   -0.0083   -4.9995 H   0  0  0  0  0  0  0  0  0  0  0  0
  -14.8951   -2.1948   -4.5450 H   0  0  0  0  0  0  0  0  0  0  0  0
  -15.4162   -2.3466   -1.9082 H   0  0  0  0  0  0  0  0  0  0  0  0
  -15.9165   -0.7673   -2.5630 H   0  0  0  0  0  0  0  0  0  0  0  0
  -13.4274   -3.6797   -3.1889 H   0  0  0  0  0  0  0  0  0  0  0  0
   -3.5409   -0.8065   -5.4521 H   0  0  0  0  0  0  0  0  0  0  0  0
   -2.1161   -0.3485    1.7584 H   0  0  0  0  0  0  0  0  0  0  0  0
   -4.1733   -0.7785    3.0519 H   0  0  0  0  0  0  0  0  0  0  0  0
   -8.2932    1.6097    1.6472 H   0  0  0  0  0  0  0  0  0  0  0  0
   -8.7004    1.4723    3.3728 H   0  0  0  0  0  0  0  0  0  0  0  0
   -7.3620    2.5326    2.8725 H   0  0  0  0  0  0  0  0  0  0  0  0
   -6.2607    2.0985    0.6724 H   0  0  0  0  0  0  0  0  0  0  0  0
   -4.2157    2.5346   -0.5943 H   0  0  0  0  0  0  0  0  0  0  0  0
   -2.4619    3.5444    1.2016 H   0  0  0  0  0  0  0  0  0  0  0  0
   -1.5659    5.7772    0.8770 H   0  0  0  0  0  0  0  0  0  0  0  0
   -0.1761    8.9382   -0.3228 H   0  0  0  0  0  0  0  0  0  0  0  0
   -1.5881    7.8580   -0.2967 H   0  0  0  0  0  0  0  0  0  0  0  0
   -0.3378    7.7466    0.9846 H   0  0  0  0  0  0  0  0  0  0  0  0
    0.7769    4.3672   -2.4131 H   0  0  0  0  0  0  0  0  0  0  0  0
   -0.1542    2.1216   -2.1115 H   0  0  0  0  0  0  0  0  0  0  0  0
    4.0090    0.0804   -2.2511 H   0  0  0  0  0  0  0  0  0  0  0  0
    6.2579    1.0455   -2.5883 H   0  0  0  0  0  0  0  0  0  0  0  0
    9.9505   -1.0036   -0.0638 H   0  0  0  0  0  0  0  0  0  0  0  0
    9.2859    0.3234    0.9485 H   0  0  0  0  0  0  0  0  0  0  0  0
   10.6981    0.6084   -0.0903 H   0  0  0  0  0  0  0  0  0  0  0  0
    7.8183   -1.6129    0.3794 H   0  0  0  0  0  0  0  0  0  0  0  0
    5.6174   -2.5844    0.6778 H   0  0  0  0  0  0  0  0  0  0  0  0
    4.6835   -3.5491   -1.9606 H   0  0  0  0  0  0  0  0  0  0  0  0
    4.1749   -5.9152   -2.1940 H   0  0  0  0  0  0  0  0  0  0  0  0
    2.8700   -7.6167   -3.2502 H   0  0  0  0  0  0  0  0  0  0  0  0
    4.0474   -8.2281   -2.0428 H   0  0  0  0  0  0  0  0  0  0  0  0
    2.6556   -9.2232   -2.5187 H   0  0  0  0  0  0  0  0  0  0  0  0
    0.8163   -5.4557    0.4124 H   0  0  0  0  0  0  0  0  0  0  0  0
    1.3692   -3.0810    0.7036 H   0  0  0  0  0  0  0  0  0  0  0  0
    5.2380   -2.6714    3.2921 H   0  0  0  0  0  0  0  0  0  0  0  0
    4.1202   -3.0805    4.6151 H   0  0  0  0  0  0  0  0  0  0  0  0
    4.5318   -5.0836    3.2140 H   0  0  0  0  0  0  0  0  0  0  0  0
    2.8466   -4.5785    3.0558 H   0  0  0  0  0  0  0  0  0  0  0  0
    3.9940   -4.2177    1.7693 H   0  0  0  0  0  0  0  0  0  0  0  0
    5.2967    0.5695    7.0592 H   0  0  0  0  0  0  0  0  0  0  0  0
    6.1812    1.4951    5.8323 H   0  0  0  0  0  0  0  0  0  0  0  0
    3.1398    1.0832    5.8953 H   0  0  0  0  0  0  0  0  0  0  0  0
    3.9748    2.5671    6.3760 H   0  0  0  0  0  0  0  0  0  0  0  0
    4.0103    2.0380    4.6916 H   0  0  0  0  0  0  0  0  0  0  0  0
    8.7538    4.2369   -0.2159 H   0  0  0  0  0  0  0  0  0  0  0  0
    4.7639    4.0814   -2.3455 H   0  0  0  0  0  0  0  0  0  0  0  0
    7.5638    2.1633    4.0742 H   0  0  0  0  0  0  0  0  0  0  0  0
    9.5821   -3.6780    2.8419 H   0  0  0  0  0  0  0  0  0  0  0  0
   11.8550   -4.2854    3.6437 H   0  0  0  0  0  0  0  0  0  0  0  0
   12.2280   -0.4991    5.6086 H   0  0  0  0  0  0  0  0  0  0  0  0
  1  2  2  0  0  0  0
  2  3  1  0  0  0  0
  3  4  2  0  0  0  0
  3  5  1  0  0  0  0
  5  6  2  0  0  0  0
  6  7  1  0  0  0  0
  7  8  2  0  0  0  0
  8  9  1  0  0  0  0
  9 10  2  0  0  0  0
 10 11  1  0  0  0  0
 11 12  2  0  0  0  0
 12 13  1  0  0  0  0
 13 14  3  0  0  0  0
 12 15  1  0  0  0  0
 15 16  3  0  0  0  0
  8 17  1  0  0  0  0
 17 18  1  0  0  0  0
 18 19  1  0  0  0  0
 19 20  2  0  0  0  0
 20 21  1  0  0  0  0
 21 22  1  0  0  0  0
 21 23  1  0  0  0  0
  1 24  1  0  0  0  0
 24 25  2  0  0  0  0
 25 26  1  0  0  0  0
 26 27  1  0  0  0  0
 26 28  2  0  0  0  0
 28 29  1  0  0  0  0
 29 30  1  0  0  0  0
 30 31  2  0  0  0  0
 31 32  1  0  0  0  0
 32 33  1  0  0  0  0
 28 34  1  0  0  0  0
 34 35  2  0  0  0  0
 35 36  1  0  0  0  0
 36 37  1  0  0  0  0
 37 38  2  0  0  0  0
 38 39  1  0  0  0  0
 39 40  2  0  0  0  0
 40 41  1  0  0  0  0
 41 42  1  0  0  0  0
 40 43  1  0  0  0  0
 43 44  2  0  0  0  0
 36 45  1  0  0  0  0
 45 46  2  0  0  0  0
 46 47  1  0  0  0  0
 47 48  2  0  0  0  0
 48 49  1  0  0  0  0
 49 50  1  0  0  0  0
 48 51  1  0  0  0  0
 51 52  2  0  0  0  0
 35 53  1  0  0  0  0
 53 54  1  0  0  0  0
 54 55  1  0  0  0  0
 55 56  2  0  0  0  0
 56 57  1  0  0  0  0
 57 58  1  0  0  0  0
 58 59  2  0  0  0  0
 59 60  1  0  0  0  0
 60 61  2  0  0  0  0
 61 62  1  0  0  0  0
 62 63  1  0  0  0  0
 61 64  1  0  0  0  0
 64 65  2  0  0  0  0
 57 66  1  0  0  0  0
 66 67  2  0  0  0  0
 67 68  1  0  0  0  0
 68 69  2  0  0  0  0
 69 70  1  0  0  0  0
 70 71  1  0  0  0  0
 69 72  1  0  0  0  0
 72 73  2  0  0  0  0
 56 74  1  0  0  0  0
 74 75  1  0  0  0  0
 55 76  1  0  0  0  0
 76 77  2  0  0  0  0
 77 78  1  0  0  0  0
 78 79  1  0  0  0  0
 79 80  1  0  0  0  0
 77 81  1  0  0  0  0
 81 82  1  0  0  0  0
 82 83  1  0  0  0  0
 83 84  1  0  0  0  0
 81 85  2  0  0  0  0
 85 86  1  0  0  0  0
 86 87  2  0  0  0  0
 87 88  1  0  0  0  0
 88 89  2  0  0  0  0
 88 90  1  0  0  0  0
 90 91  1  0  0  0  0
 91 92  1  0  0  0  0
 92 93  2  0  0  0  0
 91 94  2  0  0  0  0
 94 95  1  0  0  0  0
 95 96  1  0  0  0  0
 85 97  1  0  0  0  0
 97 98  2  0  0  0  0
 98 99  1  0  0  0  0
 99100  2  0  0  0  0
 99101  1  0  0  0  0
101102  2  0  0  0  0
102103  1  0  0  0  0
103104  2  0  0  0  0
104105  1  0  0  0  0
104106  1  0  0  0  0
106107  2  0  0  0  0
107108  1  0  0  0  0
108109  2  0  0  0  0
109110  1  0  0  0  0
110111  3  0  0  0  0
109112  1  0  0  0  0
112113  3  0  0  0  0
 11  2  1  0  0  0  0
 23 17  1  0  0  0  0
 30 24  1  0  0  0  0
 75 34  1  0  0  0  0
 87 76  1  0  0  0  0
 96 90  2  0  0  0  0
108 98  1  0  0  0  0
 10  5  1  0  0  0  0
 22 18  1  0  0  0  0
 33 29  2  0  0  0  0
 44 37  1  0  0  0  0
 52 45  1  0  0  0  0
 74 53  2  0  0  0  0
 92 86  1  0  0  0  0
107101  1  0  0  0  0
 23  7  1  0  0  0  0
 65 58  1  0  0  0  0
 73 66  1  0  0  0  0
  1114  1  0  0  0  0
  6115  1  0  0  0  0
  9116  1  0  0  0  0
 17117  1  0  0  0  0
 18118  1  0  0  0  0
 19119  1  0  0  0  0
 20120  1  0  0  0  0
 21121  1  0  0  0  0
 22122  1  0  0  0  0
 22123  1  0  0  0  0
 23124  1  0  0  0  0
 25125  1  0  0  0  0
 38126  1  0  0  0  0
 39127  1  0  0  0  0
 42128  1  0  0  0  0
 42129  1  0  0  0  0
 42130  1  0  0  0  0
 43131  1  0  0  0  0
 44132  1  0  0  0  0
 46133  1  0  0  0  0
 47134  1  0  0  0  0
 50135  1  0  0  0  0
 50136  1  0  0  0  0
 50137  1  0  0  0  0
 51138  1  0  0  0  0
 52139  1  0  0  0  0
 59140  1  0  0  0  0
 60141  1  0  0  0  0
 63142  1  0  0  0  0
 63143  1  0  0  0  0
 63144  1  0  0  0  0
 64145  1  0  0  0  0
 65146  1  0  0  0  0
 67147  1  0  0  0  0
 68148  1  0  0  0  0
 71149  1  0  0  0  0
 71150  1  0  0  0  0
 71151  1  0  0  0  0
 72152  1  0  0  0  0
 73153  1  0  0  0  0
 79154  1  0  0  0  0
 79155  1  0  0  0  0
 80156  1  0  0  0  0
 80157  1  0  0  0  0
 80158  1  0  0  0  0
 83159  1  0  0  0  0
 83160  1  0  0  0  0
 84161  1  0  0  0  0
 84162  1  0  0  0  0
 84163  1  0  0  0  0
 94164  1  0  0  0  0
 96165  1  0  0  0  0
 97166  1  0  0  0  0
102167  1  0  0  0  0
103168  1  0  0  0  0
106169  1  0  0  0  0
M  END
