
  xtb     02092205333D
 energy: -259.985472717679 gnorm: 0.000691873694 xtb: 6.4.1 (unknown)
154170  0     0  0            999 V2000
    5.3887   -7.3719   -0.2580 C   0  0  0  0  0  0  0  0  0  0  0  0
    5.5501   -8.2880    0.7481 C   0  0  0  0  0  0  0  0  0  0  0  0
    5.0714   -8.1612    2.1449 C   0  0  0  0  0  0  0  0  0  0  0  0
    4.3589   -7.3038    2.6374 O   0  0  0  0  0  0  0  0  0  0  0  0
    5.7268   -9.2463    2.8938 C   0  0  0  0  0  0  0  0  0  0  0  0
    5.5853   -9.5126    4.2547 C   0  0  0  0  0  0  0  0  0  0  0  0
    6.3133  -10.5937    4.6889 C   0  0  0  0  0  0  0  0  0  0  0  0
    7.1247  -11.3528    3.8342 C   0  0  0  0  0  0  0  0  0  0  0  0
    7.2708  -11.1016    2.4905 C   0  0  0  0  0  0  0  0  0  0  0  0
    6.5376  -10.0047    2.0267 C   0  0  0  0  0  0  0  0  0  0  0  0
    6.4265   -9.4431    0.6838 C   0  0  0  0  0  0  0  0  0  0  0  0
    6.9907   -9.9700   -0.4495 C   0  0  0  0  0  0  0  0  0  0  0  0
    7.8305  -11.1028   -0.4707 C   0  0  0  0  0  0  0  0  0  0  0  0
    8.5272  -12.0110   -0.5635 N   0  0  0  0  0  0  0  0  0  0  0  0
    6.7983   -9.4834   -1.7601 C   0  0  0  0  0  0  0  0  0  0  0  0
    6.6817   -9.1696   -2.8589 N   0  0  0  0  0  0  0  0  0  0  0  0
    7.5653  -12.2769    4.9420 C   0  0  0  0  0  0  0  0  0  0  0  0
    8.9787  -12.0423    5.5161 C   0  0  0  0  0  0  0  0  0  0  0  0
    8.9446  -12.7398    6.8568 C   0  0  0  0  0  0  0  0  0  0  0  0
    8.1759  -12.0219    7.6657 C   0  0  0  0  0  0  0  0  0  0  0  0
    7.6773  -10.8270    6.8854 C   0  0  0  0  0  0  0  0  0  0  0  0
    8.8886  -10.5816    5.9764 C   0  0  0  0  0  0  0  0  0  0  0  0
    6.6599  -11.4316    5.8945 C   0  0  0  0  0  0  0  0  0  0  0  0
    4.4568   -6.3159   -0.2819 C   0  0  0  0  0  0  0  0  0  0  0  0
    3.2715   -6.1967    0.4018 C   0  0  0  0  0  0  0  0  0  0  0  0
    2.6220   -4.9658    0.2191 C   0  0  0  0  0  0  0  0  0  0  0  0
    1.4557   -4.5124    0.8833 C   0  0  0  0  0  0  0  0  0  0  0  0
    0.8712   -5.2501    1.9750 C   0  0  0  0  0  0  0  0  0  0  0  0
   -0.4439   -5.2426    2.3642 C   0  0  0  0  0  0  0  0  0  0  0  0
   -0.7537   -5.9581    3.5319 C   0  0  0  0  0  0  0  0  0  0  0  0
    0.3223   -6.5385    4.1415 C   0  0  0  0  0  0  0  0  0  0  0  0
    0.3810   -7.5245    5.5842 S   0  0  0  0  0  0  0  0  0  0  0  0
   -1.2186   -7.1675    6.3945 C   0  0  0  0  0  0  0  0  0  0  0  0
   -1.2857   -5.7511    6.9309 C   0  0  0  0  0  0  0  0  0  0  0  0
    1.9167   -6.2552    3.2098 Se  0  0  0  0  0  2  0  0  0  0  0  0
    0.9807   -3.2648    0.4782 C   0  0  0  0  0  0  0  0  0  0  0  0
    1.6147   -2.4780   -0.5163 C   0  0  0  0  0  0  0  0  0  0  0  0
    2.7975   -2.9230   -1.1544 C   0  0  0  0  0  0  0  0  0  0  0  0
    3.4581   -2.1311   -2.1672 C   0  0  0  0  0  0  0  0  0  0  0  0
    2.8782   -1.3945   -3.1635 C   0  0  0  0  0  0  0  0  0  0  0  0
    3.7600   -0.7039   -4.0164 C   0  0  0  0  0  0  0  0  0  0  0  0
    5.0854   -0.8551   -3.7237 C   0  0  0  0  0  0  0  0  0  0  0  0
    6.3668   -0.0229   -4.5730 S   0  0  0  0  0  0  0  0  0  0  0  0
    7.8101   -1.0645   -4.1592 C   0  0  0  0  0  0  0  0  0  0  0  0
    7.7672   -2.4074   -4.8588 C   0  0  0  0  0  0  0  0  0  0  0  0
    5.3369   -1.9784   -2.2283 Se  0  0  0  0  0  2  0  0  0  0  0  0
    3.2857   -4.1526   -0.7352 C   0  0  0  0  0  0  0  0  0  0  0  0
    4.7379   -4.9196   -1.3156 S   0  0  0  0  0  0  0  0  0  0  0  0
    0.9851   -1.2245   -0.6742 C   0  0  0  0  0  0  0  0  0  0  0  0
   -0.0913   -1.0340    0.1481 C   0  0  0  0  0  0  0  0  0  0  0  0
   -0.3979   -2.4315    1.1486 S   0  0  0  0  0  0  0  0  0  0  0  0
   -0.9781    0.0993    0.1914 C   0  0  0  0  0  0  0  0  0  0  0  0
   -0.6808    1.3436   -0.3697 C   0  0  0  0  0  0  0  0  0  0  0  0
    0.6080    1.5973   -0.8011 O   0  0  0  0  0  0  0  0  0  0  0  0
    1.4993    2.1113    0.1901 C   0  0  0  0  0  0  0  0  0  0  0  0
    1.9149    1.1376    1.2851 C   0  0  0  0  0  0  0  0  0  0  0  0
   -1.6914    2.3227   -0.5787 C   0  0  0  0  0  0  0  0  0  0  0  0
   -1.5631    3.3953   -1.4004 O   0  0  0  0  0  0  0  0  0  0  0  0
   -0.4185    4.2247   -1.5224 C   0  0  0  0  0  0  0  0  0  0  0  0
   -0.3320    5.2235   -0.3725 C   0  0  0  0  0  0  0  0  0  0  0  0
   -2.9970    2.1625   -0.0783 C   0  0  0  0  0  0  0  0  0  0  0  0
   -3.2611    0.9785    0.6564 C   0  0  0  0  0  0  0  0  0  0  0  0
   -2.2651   -0.0495    0.7607 C   0  0  0  0  0  0  0  0  0  0  0  0
   -2.6991   -1.1067    1.4396 N   0  0  0  0  0  0  0  0  0  0  0  0
   -4.2104   -0.8361    1.9162 S   0  0  0  0  0  0  0  0  0  0  0  0
   -4.3881    0.6294    1.2749 N   0  0  0  0  0  0  0  0  0  0  0  0
   -4.0213    3.1348   -0.3112 C   0  0  0  0  0  0  0  0  0  0  0  0
   -3.7725    4.4983   -1.3680 S   0  0  0  0  0  0  0  0  0  0  0  0
   -5.3756    5.0474   -1.0731 C   0  0  0  0  0  0  0  0  0  0  0  0
   -6.0733    6.1603   -1.5851 C   0  0  0  0  0  0  0  0  0  0  0  0
   -7.4026    6.3042   -1.1510 C   0  0  0  0  0  0  0  0  0  0  0  0
   -7.8169    4.9057    0.0538 Si  0  0  0  0  0  4  0  0  0  0  0  0
   -9.1802    3.7391   -0.5914 C   0  0  0  0  0  0  0  0  0  0  0  0
   -9.3479    2.5036    0.2875 C   0  0  0  0  0  0  0  0  0  0  0  0
   -8.1211    5.5242    1.8331 C   0  0  0  0  0  0  0  0  0  0  0  0
   -9.4670    6.2255    1.9861 C   0  0  0  0  0  0  0  0  0  0  0  0
   -6.0725    4.2204   -0.1897 C   0  0  0  0  0  0  0  0  0  0  0  0
   -5.3005    3.1457    0.2271 C   0  0  0  0  0  0  0  0  0  0  0  0
   -7.9965    7.4024   -1.7283 C   0  0  0  0  0  0  0  0  0  0  0  0
   -7.1609    8.1142   -2.6036 C   0  0  0  0  0  0  0  0  0  0  0  0
   -5.5736    7.3723   -2.6888 S   0  0  0  0  0  0  0  0  0  0  0  0
   -7.6029    9.2458   -3.2957 C   0  0  0  0  0  0  0  0  0  0  0  0
   -6.9573   10.0513   -4.2036 C   0  0  0  0  0  0  0  0  0  0  0  0
   -5.5743    9.8878   -4.6686 C   0  0  0  0  0  0  0  0  0  0  0  0
   -4.7636    9.0487   -4.3144 O   0  0  0  0  0  0  0  0  0  0  0  0
   -5.3506   10.9520   -5.6613 C   0  0  0  0  0  0  0  0  0  0  0  0
   -4.2214   11.2286   -6.4060 C   0  0  0  0  0  0  0  0  0  0  0  0
   -4.2633   12.2923   -7.2942 C   0  0  0  0  0  0  0  0  0  0  0  0
   -5.4105   13.0682   -7.4384 C   0  0  0  0  0  0  0  0  0  0  0  0
   -5.4274   14.2230   -8.3896 C   0  0  0  0  0  0  0  0  0  0  0  0
   -6.5452   12.7832   -6.6785 C   0  0  0  0  0  0  0  0  0  0  0  0
   -6.5178   11.7246   -5.7883 C   0  0  0  0  0  0  0  0  0  0  0  0
   -7.5353   11.1923   -4.8798 C   0  0  0  0  0  0  0  0  0  0  0  0
   -8.7960   11.7118   -4.7203 C   0  0  0  0  0  0  0  0  0  0  0  0
   -9.2864   12.8322   -5.4219 C   0  0  0  0  0  0  0  0  0  0  0  0
   -9.7554   13.7358   -5.9539 N   0  0  0  0  0  0  0  0  0  0  0  0
   -9.7875   11.2273   -3.8434 C   0  0  0  0  0  0  0  0  0  0  0  0
  -10.6528   10.9042   -3.1590 N   0  0  0  0  0  0  0  0  0  0  0  0
    6.0618   -7.4170   -1.1053 H   0  0  0  0  0  0  0  0  0  0  0  0
    4.9425   -8.9047    4.8723 H   0  0  0  0  0  0  0  0  0  0  0  0
    7.8975  -11.6960    1.8471 H   0  0  0  0  0  0  0  0  0  0  0  0
    7.3332  -13.3307    4.8007 H   0  0  0  0  0  0  0  0  0  0  0  0
    9.7918  -12.3083    4.8463 H   0  0  0  0  0  0  0  0  0  0  0  0
    9.4219  -13.6814    7.0555 H   0  0  0  0  0  0  0  0  0  0  0  0
    7.8827  -12.2441    8.6751 H   0  0  0  0  0  0  0  0  0  0  0  0
    7.3053   -9.9853    7.4632 H   0  0  0  0  0  0  0  0  0  0  0  0
    8.7030   -9.8730    5.1714 H   0  0  0  0  0  0  0  0  0  0  0  0
    9.7686  -10.2725    6.5381 H   0  0  0  0  0  0  0  0  0  0  0  0
    5.8232  -11.9216    6.3889 H   0  0  0  0  0  0  0  0  0  0  0  0
    2.8517   -7.0133    0.9573 H   0  0  0  0  0  0  0  0  0  0  0  0
   -1.2136   -4.7598    1.7865 H   0  0  0  0  0  0  0  0  0  0  0  0
   -1.7625   -6.0305    3.8997 H   0  0  0  0  0  0  0  0  0  0  0  0
   -1.2703   -7.8965    7.2029 H   0  0  0  0  0  0  0  0  0  0  0  0
   -2.0128   -7.3782    5.6796 H   0  0  0  0  0  0  0  0  0  0  0  0
   -0.4882   -5.5832    7.6511 H   0  0  0  0  0  0  0  0  0  0  0  0
   -2.2419   -5.5882    7.4242 H   0  0  0  0  0  0  0  0  0  0  0  0
   -1.1808   -5.0266    6.1261 H   0  0  0  0  0  0  0  0  0  0  0  0
    1.8144   -1.3954   -3.3319 H   0  0  0  0  0  0  0  0  0  0  0  0
    3.4216   -0.1102   -4.8478 H   0  0  0  0  0  0  0  0  0  0  0  0
    7.8266   -1.1737   -3.0701 H   0  0  0  0  0  0  0  0  0  0  0  0
    8.6729   -0.4783   -4.4738 H   0  0  0  0  0  0  0  0  0  0  0  0
    7.7274   -2.2730   -5.9371 H   0  0  0  0  0  0  0  0  0  0  0  0
    6.8913   -2.9763   -4.5465 H   0  0  0  0  0  0  0  0  0  0  0  0
    8.6560   -2.9822   -4.6082 H   0  0  0  0  0  0  0  0  0  0  0  0
    1.3225   -0.4736   -1.3621 H   0  0  0  0  0  0  0  0  0  0  0  0
    1.0554    2.9991    0.6590 H   0  0  0  0  0  0  0  0  0  0  0  0
    2.3774    2.4179   -0.3846 H   0  0  0  0  0  0  0  0  0  0  0  0
    2.4392    0.2818    0.8701 H   0  0  0  0  0  0  0  0  0  0  0  0
    2.5795    1.6581    1.9704 H   0  0  0  0  0  0  0  0  0  0  0  0
    1.0515    0.7839    1.8442 H   0  0  0  0  0  0  0  0  0  0  0  0
   -0.5895    4.7595   -2.4606 H   0  0  0  0  0  0  0  0  0  0  0  0
    0.4926    3.6339   -1.6187 H   0  0  0  0  0  0  0  0  0  0  0  0
   -1.2025    5.8745   -0.3827 H   0  0  0  0  0  0  0  0  0  0  0  0
    0.5647    5.8275   -0.4777 H   0  0  0  0  0  0  0  0  0  0  0  0
   -0.3019    4.7114    0.5879 H   0  0  0  0  0  0  0  0  0  0  0  0
   -8.9500    3.4244   -1.6101 H   0  0  0  0  0  0  0  0  0  0  0  0
  -10.1272    4.2770   -0.6387 H   0  0  0  0  0  0  0  0  0  0  0  0
   -8.4239    1.9324    0.3237 H   0  0  0  0  0  0  0  0  0  0  0  0
   -9.6133    2.7869    1.3028 H   0  0  0  0  0  0  0  0  0  0  0  0
  -10.1337    1.8584   -0.1010 H   0  0  0  0  0  0  0  0  0  0  0  0
   -7.3254    6.2094    2.1285 H   0  0  0  0  0  0  0  0  0  0  0  0
   -8.0766    4.6809    2.5226 H   0  0  0  0  0  0  0  0  0  0  0  0
   -9.5294    7.0838    1.3225 H   0  0  0  0  0  0  0  0  0  0  0  0
  -10.2829    5.5491    1.7454 H   0  0  0  0  0  0  0  0  0  0  0  0
   -9.6058    6.5743    3.0077 H   0  0  0  0  0  0  0  0  0  0  0  0
   -5.6352    2.3807    0.9020 H   0  0  0  0  0  0  0  0  0  0  0  0
   -9.0123    7.7106   -1.5503 H   0  0  0  0  0  0  0  0  0  0  0  0
   -8.6313    9.5011   -3.0693 H   0  0  0  0  0  0  0  0  0  0  0  0
   -3.3358   10.6223   -6.2926 H   0  0  0  0  0  0  0  0  0  0  0  0
   -3.3925   12.5258   -7.8894 H   0  0  0  0  0  0  0  0  0  0  0  0
   -4.7650   14.0437   -9.2331 H   0  0  0  0  0  0  0  0  0  0  0  0
   -6.4336   14.4076   -8.7574 H   0  0  0  0  0  0  0  0  0  0  0  0
   -5.0866   15.1247   -7.8795 H   0  0  0  0  0  0  0  0  0  0  0  0
   -7.4261   13.3925   -6.8008 H   0  0  0  0  0  0  0  0  0  0  0  0
  1  2  2  0  0  0  0
  2  3  1  0  0  0  0
  3  4  2  0  0  0  0
  3  5  1  0  0  0  0
  5  6  2  0  0  0  0
  6  7  1  0  0  0  0
  7  8  2  0  0  0  0
  8  9  1  0  0  0  0
  9 10  2  0  0  0  0
 10 11  1  0  0  0  0
 11 12  2  0  0  0  0
 12 13  1  0  0  0  0
 13 14  3  0  0  0  0
 12 15  1  0  0  0  0
 15 16  3  0  0  0  0
  8 17  1  0  0  0  0
 17 18  1  0  0  0  0
 18 19  1  0  0  0  0
 19 20  2  0  0  0  0
 20 21  1  0  0  0  0
 21 22  1  0  0  0  0
 21 23  1  0  0  0  0
  1 24  1  0  0  0  0
 24 25  2  0  0  0  0
 25 26  1  0  0  0  0
 26 27  2  0  0  0  0
 27 28  1  0  0  0  0
 28 29  2  0  0  0  0
 29 30  1  0  0  0  0
 30 31  2  0  0  0  0
 31 32  1  0  0  0  0
 32 33  1  0  0  0  0
 33 34  1  0  0  0  0
 31 35  1  0  0  0  0
 27 36  1  0  0  0  0
 36 37  2  0  0  0  0
 37 38  1  0  0  0  0
 38 39  1  0  0  0  0
 39 40  2  0  0  0  0
 40 41  1  0  0  0  0
 41 42  2  0  0  0  0
 42 43  1  0  0  0  0
 43 44  1  0  0  0  0
 44 45  1  0  0  0  0
 42 46  1  0  0  0  0
 38 47  2  0  0  0  0
 47 48  1  0  0  0  0
 37 49  1  0  0  0  0
 49 50  2  0  0  0  0
 50 51  1  0  0  0  0
 50 52  1  0  0  0  0
 52 53  2  0  0  0  0
 53 54  1  0  0  0  0
 54 55  1  0  0  0  0
 55 56  1  0  0  0  0
 53 57  1  0  0  0  0
 57 58  1  0  0  0  0
 58 59  1  0  0  0  0
 59 60  1  0  0  0  0
 57 61  2  0  0  0  0
 61 62  1  0  0  0  0
 62 63  1  0  0  0  0
 63 64  2  0  0  0  0
 64 65  1  0  0  0  0
 65 66  1  0  0  0  0
 61 67  1  0  0  0  0
 67 68  1  0  0  0  0
 68 69  1  0  0  0  0
 69 70  1  0  0  0  0
 70 71  2  0  0  0  0
 71 72  1  0  0  0  0
 72 73  1  0  0  0  0
 73 74  1  0  0  0  0
 72 75  1  0  0  0  0
 75 76  1  0  0  0  0
 72 77  1  0  0  0  0
 77 78  1  0  0  0  0
 71 79  1  0  0  0  0
 79 80  2  0  0  0  0
 80 81  1  0  0  0  0
 80 82  1  0  0  0  0
 82 83  2  0  0  0  0
 83 84  1  0  0  0  0
 84 85  2  0  0  0  0
 84 86  1  0  0  0  0
 86 87  2  0  0  0  0
 87 88  1  0  0  0  0
 88 89  2  0  0  0  0
 89 90  1  0  0  0  0
 89 91  1  0  0  0  0
 91 92  2  0  0  0  0
 92 93  1  0  0  0  0
 93 94  2  0  0  0  0
 94 95  1  0  0  0  0
 95 96  3  0  0  0  0
 94 97  1  0  0  0  0
 97 98  3  0  0  0  0
 11  2  1  0  0  0  0
 23 17  1  0  0  0  0
 48 24  1  0  0  0  0
 63 52  1  0  0  0  0
 78 67  2  0  0  0  0
 93 83  1  0  0  0  0
 10  5  1  0  0  0  0
 22 18  1  0  0  0  0
 47 26  1  0  0  0  0
 66 62  2  0  0  0  0
 77 69  2  0  0  0  0
 92 86  1  0  0  0  0
 23  7  1  0  0  0  0
 35 28  1  0  0  0  0
 51 36  1  0  0  0  0
 81 70  1  0  0  0  0
 46 39  1  0  0  0  0
  1 99  1  0  0  0  0
  6100  1  0  0  0  0
  9101  1  0  0  0  0
 17102  1  0  0  0  0
 18103  1  0  0  0  0
 19104  1  0  0  0  0
 20105  1  0  0  0  0
 21106  1  0  0  0  0
 22107  1  0  0  0  0
 22108  1  0  0  0  0
 23109  1  0  0  0  0
 25110  1  0  0  0  0
 29111  1  0  0  0  0
 30112  1  0  0  0  0
 33113  1  0  0  0  0
 33114  1  0  0  0  0
 34115  1  0  0  0  0
 34116  1  0  0  0  0
 34117  1  0  0  0  0
 40118  1  0  0  0  0
 41119  1  0  0  0  0
 44120  1  0  0  0  0
 44121  1  0  0  0  0
 45122  1  0  0  0  0
 45123  1  0  0  0  0
 45124  1  0  0  0  0
 49125  1  0  0  0  0
 55126  1  0  0  0  0
 55127  1  0  0  0  0
 56128  1  0  0  0  0
 56129  1  0  0  0  0
 56130  1  0  0  0  0
 59131  1  0  0  0  0
 59132  1  0  0  0  0
 60133  1  0  0  0  0
 60134  1  0  0  0  0
 60135  1  0  0  0  0
 73136  1  0  0  0  0
 73137  1  0  0  0  0
 74138  1  0  0  0  0
 74139  1  0  0  0  0
 74140  1  0  0  0  0
 75141  1  0  0  0  0
 75142  1  0  0  0  0
 76143  1  0  0  0  0
 76144  1  0  0  0  0
 76145  1  0  0  0  0
 78146  1  0  0  0  0
 79147  1  0  0  0  0
 82148  1  0  0  0  0
 87149  1  0  0  0  0
 88150  1  0  0  0  0
 90151  1  0  0  0  0
 90152  1  0  0  0  0
 90153  1  0  0  0  0
 91154  1  0  0  0  0
M  END
