187

C          5.72290        1.40190        3.32790
C          5.50620        0.83480        4.55440
C          4.30250        0.11710        4.99700
O          3.20080        0.10780        4.47420
C          4.69150       -0.61950        6.21160
C          3.90630       -1.51320        6.93800
C          4.54800       -2.07040        8.01780
C          5.87230       -1.75950        8.35510
C          6.65490       -0.87300        7.65370
C          6.02250       -0.29690        6.54840
C          6.52150        0.67450        5.57810
C          7.69530        1.37450        5.67000
C          8.07990        2.42950        4.81270
N          8.44710        3.33290        4.20660
C          8.65050        1.18960        6.69060
N          9.46790        1.08220        7.49010
C          5.87660       -2.69790        9.53590
C          6.60450       -4.04490        9.34120
C          6.04480       -4.92080       10.43880
C          4.79090       -5.21530       10.12000
C          4.48210       -4.54350        8.80140
C          5.86050       -4.62880        8.13320
C          4.40010       -3.04440        9.16040
C          4.82890        1.60830        2.26460
S          3.09820        1.44030        2.37930
C          2.86600        2.01550        0.75260
C          4.09990        2.33730        0.15450
C          4.24810        2.96470       -1.14910
O          3.29450        3.28020       -1.85980
C          5.62030        3.23340       -1.54730
C          5.97450        3.82630       -2.73720
C          5.07480        4.32560       -3.80660
C          5.80510        4.71380       -5.08300
S          7.69480        3.95790       -2.86210
C          7.94220        3.21460       -1.31650
C          9.31900        2.99090       -0.80810
C          9.81500        1.59310       -1.19100
C          6.74450        2.87510       -0.73950
C          6.59790        2.21310        0.55470
O          7.54640        1.76920        1.18340
C          5.19910        2.07850        0.99810
C          1.58430        1.91840        0.17330
C          0.42700        1.48490        0.84690
N          0.27990        1.44060        2.22010
C         -0.37530        0.32960        2.76850
C         -0.10240       -0.93840        2.26290
C         -0.74880       -2.05210        2.75910
C         -1.68090       -1.91450        3.77870
S         -2.56560       -3.26240        4.49670
C         -2.20120       -4.65690        3.39200
C         -1.94820       -0.64820        4.29610
C         -1.30800        0.46310        3.79620
C          0.55540        2.57160        2.99770
C          0.95990        2.43060        4.32460
C          1.23490        3.53950        5.09850
C          1.11980        4.81350        4.55630
S          1.44000        6.30460        5.44150
C          1.94040        5.74010        7.09220
C          0.72460        4.95720        3.22680
C          0.44400        3.85260        2.45560
C         -0.57660        1.08730       -0.05770
S         -2.19260        0.48040        0.10800
C         -2.34780        0.41240       -1.63360
C         -1.22630        0.87540       -2.29700
N         -1.13560        0.99230       -3.67460
C          0.12760        0.96190       -4.27340
C          1.08490        0.05520       -3.82310
C          2.37850        0.10340       -4.30090
C          2.73300        1.06040       -5.24060
S          4.39090        1.25960       -5.82470
C          5.37400        0.61580       -4.43630
C          1.75900        1.90840       -5.75960
C          0.46660        1.85930       -5.28520
C         -2.27470        1.40280       -4.39160
C         -3.03660        2.47750       -3.94360
C         -4.21340        2.81980       -4.57950
C         -4.64550        2.08670       -5.67640
S         -6.18730        2.36860       -6.48930
C         -6.64600        4.04480       -5.96100
C         -3.85820        1.04280       -6.15920
C         -2.67820        0.70870       -5.53090
C         -0.21710        1.26170       -1.38520
S          1.33630        1.99460       -1.56710
C         -3.51230       -0.11540       -2.29600
S         -3.37080       -1.57310       -3.21420
C         -5.00800       -1.42420       -3.79100
C         -5.62070       -0.28280       -3.26530
C         -6.97650        0.17510       -3.60450
O         -7.76520       -0.47830       -4.26980
C         -7.30040        1.49630       -3.06700
C         -8.45530        2.17830       -3.36290
C         -9.57670        1.78200       -4.25140
C        -10.56720        0.88060       -3.50840
S         -8.51990        3.68440       -2.50970
C         -6.98320        3.40850       -1.75760
C         -6.40520        4.43310       -0.84960
C         -5.45990        5.36930       -1.60860
C         -6.44700        2.21290       -2.16470
C         -5.13830        1.70900       -1.74930
O         -4.39440        2.29720       -0.98320
C         -4.77700        0.43710       -2.38920
C         -5.63670       -2.31340       -4.68900
C         -5.24540       -3.54190       -5.11970
S         -6.27280       -4.48790       -6.18470
C         -5.22730       -5.88080       -6.02190
C         -5.55470       -7.07390       -6.61090
C         -4.87140       -8.29350       -6.47010
N         -4.38890       -9.33050       -6.36930
C         -6.71630       -7.15730       -7.40840
N         -7.65440       -7.23750       -8.06300
N         -4.14030       -5.59610       -5.25220
C         -3.03720       -6.50990       -5.03250
C         -2.26500       -6.81360       -6.29360
C         -2.16680       -5.88280       -7.31830
C         -1.45200       -6.18010       -8.46570
C         -0.82210       -7.40510       -8.59350
C         -0.90290       -8.33050       -7.56640
C         -1.62150       -8.03720       -6.42260
C         -4.06780       -4.30900       -4.74860
O         -3.12840       -3.92360       -4.07880
H          6.73810        1.70720        3.10140
H          2.88950       -1.72360        6.64450
H          7.67240       -0.64460        7.92400
H          6.07590       -2.24260       10.50400
H          7.68670       -3.97210        9.27670
H          6.58270       -5.18150       11.33120
H          4.07200       -5.77110       10.69290
H          3.63040       -4.92590        8.24500
H          5.95190       -4.03460        7.22570
H          6.15470       -5.65640        7.92650
H          3.61340       -2.82100        9.87860
H          4.32250        3.55950       -4.01670
H          4.51920        5.18320       -3.41210
H          5.09520        5.07780       -5.82050
H          6.53540        5.49680       -4.88820
H          6.32110        3.85400       -5.50410
H          9.99050        3.74510       -1.22290
H          9.31060        3.07220        0.28060
H         10.83220        1.45340       -0.83670
H          9.79800        1.46200       -2.27130
H          9.18150        0.83940       -0.73110
H          0.63210       -1.05040        1.47930
H         -0.50890       -3.01940        2.34860
H         -1.15560       -4.93940        3.47390
H         -2.82900       -5.47360        3.73460
H         -2.46120       -4.39250        2.37130
H         -2.67550       -0.54860        5.08730
H         -1.53870        1.44180        4.18810
H          1.08420        1.44170        4.73700
H          1.55010        3.39360        6.11890
H          2.83910        5.13440        7.02110
H          1.12830        5.19160        7.56070
H          2.14920        6.64300        7.65770
H          0.63360        5.94910        2.81150
H          0.12710        3.97790        1.43130
H          0.81270       -0.68260       -3.08310
H          3.10300       -0.60330       -3.92860
H          6.37950        1.00130       -4.57430
H          4.95760        0.98230       -3.50280
H          5.39480       -0.47020       -4.45600
H          2.03540        2.62660       -6.51610
H         -0.27830        2.54230       -5.66560
H         -2.71310        3.03060       -3.07440
H         -4.78850        3.65160       -4.20640
H         -6.92570        4.05110       -4.91180
H         -7.50280        4.31860       -6.56850
H         -5.82160        4.72470       -6.15300
H         -4.19370        0.49100       -7.02380
H         -2.07010       -0.10370       -5.89960
H         -9.17250        1.23210       -5.10370
H        -10.09150        2.67600       -4.60930
H        -10.95400        1.38250       -2.62370
H        -11.39830        0.63120       -4.16170
H        -10.07400       -0.03980       -3.20840
H         -5.83970        3.92830       -0.06440
H         -7.21140        5.01490       -0.39850
H         -4.60750        4.80890       -1.98300
H         -5.97400        5.84290       -2.44350
H         -5.09480        6.14440       -0.94080
H         -6.60380       -1.96350       -5.03660
H         -3.40870       -7.43440       -4.58190
H         -2.38330       -6.00400       -4.31100
H         -2.64520       -4.91710       -7.22660
H         -1.38940       -5.45110       -9.25980
H         -0.26970       -7.63810       -9.49120
H         -0.41300       -9.28760       -7.65890
H         -1.69680       -8.76600       -5.63000
