
  xtb     02072212193D
 energy: -349.723826510675 gnorm: 0.000579443351 xtb: 6.4.1 (unknown)
212231  0     0  0            999 V2000
    0.8923    7.0182    1.8243 C   0  0  0  0  0  0  0  0  0  0  0  0
    1.9867    7.7606    2.1411 C   0  0  0  0  0  0  0  0  0  0  0  0
    3.3654    7.3762    1.7593 C   0  0  0  0  0  0  0  0  0  0  0  0
    3.7292    6.3073    1.3157 O   0  0  0  0  0  0  0  0  0  0  0  0
    4.1661    8.6087    1.8959 C   0  0  0  0  0  0  0  0  0  0  0  0
    5.5107    8.7805    1.5728 C   0  0  0  0  0  0  0  0  0  0  0  0
    5.9726   10.0648    1.7419 C   0  0  0  0  0  0  0  0  0  0  0  0
    5.1534   11.1149    2.1772 C   0  0  0  0  0  0  0  0  0  0  0  0
    3.8308   10.9589    2.5176 C   0  0  0  0  0  0  0  0  0  0  0  0
    3.3487    9.6559    2.3701 C   0  0  0  0  0  0  0  0  0  0  0  0
    2.0137    9.1259    2.6122 C   0  0  0  0  0  0  0  0  0  0  0  0
    0.9949    9.7388    3.2927 C   0  0  0  0  0  0  0  0  0  0  0  0
    1.0514   11.0510    3.8015 C   0  0  0  0  0  0  0  0  0  0  0  0
    1.0404   12.1155    4.2316 N   0  0  0  0  0  0  0  0  0  0  0  0
   -0.2081    9.0802    3.6207 C   0  0  0  0  0  0  0  0  0  0  0  0
   -1.1875    8.5747    3.9433 N   0  0  0  0  0  0  0  0  0  0  0  0
    6.2499   12.1413    2.0262 C   0  0  0  0  0  0  0  0  0  0  0  0
    6.9289   12.6437    3.3161 C   0  0  0  0  0  0  0  0  0  0  0  0
    8.2405   13.2235    2.8387 C   0  0  0  0  0  0  0  0  0  0  0  0
    9.0180   12.2133    2.4704 C   0  0  0  0  0  0  0  0  0  0  0  0
    8.2422   10.9333    2.6875 C   0  0  0  0  0  0  0  0  0  0  0  0
    7.4251   11.3274    3.9248 C   0  0  0  0  0  0  0  0  0  0  0  0
    7.1728   10.9639    1.5743 C   0  0  0  0  0  0  0  0  0  0  0  0
    0.8993    5.6189    1.5394 C   0  0  0  0  0  0  0  0  0  0  0  0
    1.1924    4.5417    2.3708 C   0  0  0  0  0  0  0  0  0  0  0  0
    1.5165    4.6084    3.7103 N   0  0  0  0  0  0  0  0  0  0  0  0
    0.8858    3.7945    4.6494 C   0  0  0  0  0  0  0  0  0  0  0  0
   -0.3790    3.2509    4.4150 C   0  0  0  0  0  0  0  0  0  0  0  0
   -0.9819    2.4535    5.3623 C   0  0  0  0  0  0  0  0  0  0  0  0
   -0.3529    2.2040    6.5766 C   0  0  0  0  0  0  0  0  0  0  0  0
   -1.1868    1.1508    7.7355 S   0  0  0  0  0  0  0  0  0  0  0  0
   -0.5995    1.7864    9.3347 C   0  0  0  0  0  0  0  0  0  0  0  0
    0.8940    2.7578    6.8273 C   0  0  0  0  0  0  0  0  0  0  0  0
    1.5080    3.5387    5.8709 C   0  0  0  0  0  0  0  0  0  0  0  0
    2.4997    5.5222    4.1623 C   0  0  0  0  0  0  0  0  0  0  0  0
    3.8307    5.3074    3.8360 C   0  0  0  0  0  0  0  0  0  0  0  0
    4.8026    6.2001    4.2482 C   0  0  0  0  0  0  0  0  0  0  0  0
    4.4424    7.3162    4.9885 C   0  0  0  0  0  0  0  0  0  0  0  0
    5.5831    8.5535    5.5123 S   0  0  0  0  0  0  0  0  0  0  0  0
    7.1961    7.9097    4.9796 C   0  0  0  0  0  0  0  0  0  0  0  0
    3.1089    7.5100    5.3510 C   0  0  0  0  0  0  0  0  0  0  0  0
    2.1436    6.6127    4.9512 C   0  0  0  0  0  0  0  0  0  0  0  0
    0.9305    3.3151    1.7095 C   0  0  0  0  0  0  0  0  0  0  0  0
    1.1419    1.6562    2.1552 S   0  0  0  0  0  0  0  0  0  0  0  0
    0.5650    1.1418    0.5774 C   0  0  0  0  0  0  0  0  0  0  0  0
    0.2793    2.2167   -0.2510 C   0  0  0  0  0  0  0  0  0  0  0  0
   -0.0432    2.0769   -1.5953 N   0  0  0  0  0  0  0  0  0  0  0  0
   -1.0461    2.8776   -2.1409 C   0  0  0  0  0  0  0  0  0  0  0  0
   -2.1283    3.2577   -1.3501 C   0  0  0  0  0  0  0  0  0  0  0  0
   -3.1022    4.1037   -1.8424 C   0  0  0  0  0  0  0  0  0  0  0  0
   -3.0130    4.5808   -3.1419 C   0  0  0  0  0  0  0  0  0  0  0  0
   -4.1953    5.6809   -3.8668 S   0  0  0  0  0  0  0  0  0  0  0  0
   -5.0573    6.3775   -2.4268 C   0  0  0  0  0  0  0  0  0  0  0  0
   -1.9551    4.1726   -3.9498 C   0  0  0  0  0  0  0  0  0  0  0  0
   -0.9797    3.3359   -3.4573 C   0  0  0  0  0  0  0  0  0  0  0  0
    0.7753    1.2529   -2.3821 C   0  0  0  0  0  0  0  0  0  0  0  0
    0.2294    0.4916   -3.4133 C   0  0  0  0  0  0  0  0  0  0  0  0
    1.0327   -0.3357   -4.1660 C   0  0  0  0  0  0  0  0  0  0  0  0
    2.4001   -0.4209   -3.9098 C   0  0  0  0  0  0  0  0  0  0  0  0
    3.3320   -1.5326   -4.9173 S   0  0  0  0  0  0  0  0  0  0  0  0
    5.0589   -1.1476   -4.5111 C   0  0  0  0  0  0  0  0  0  0  0  0
    2.9480    0.3369   -2.8832 C   0  0  0  0  0  0  0  0  0  0  0  0
    2.1413    1.1648   -2.1278 C   0  0  0  0  0  0  0  0  0  0  0  0
    0.4636    3.4486    0.4143 C   0  0  0  0  0  0  0  0  0  0  0  0
    0.2731    5.1056   -0.0247 S   0  0  0  0  0  0  0  0  0  0  0  0
    0.2711   -0.2194    0.2385 C   0  0  0  0  0  0  0  0  0  0  0  0
    0.9722   -1.3946    0.4297 C   0  0  0  0  0  0  0  0  0  0  0  0
    2.2426   -1.5041    0.9910 N   0  0  0  0  0  0  0  0  0  0  0  0
    2.4561   -1.0330    2.2925 C   0  0  0  0  0  0  0  0  0  0  0  0
    3.6755   -0.4556    2.6491 C   0  0  0  0  0  0  0  0  0  0  0  0
    3.8820   -0.0163    3.9370 C   0  0  0  0  0  0  0  0  0  0  0  0
    2.8788   -0.1415    4.8958 C   0  0  0  0  0  0  0  0  0  0  0  0
    3.2521    0.4060    6.5323 S   0  0  0  0  0  0  0  0  0  0  0  0
    2.1195   -0.5878    7.5488 C   0  0  0  0  0  0  0  0  0  0  0  0
    1.6529   -0.6839    4.5404 C   0  0  0  0  0  0  0  0  0  0  0  0
    1.4480   -1.1320    3.2498 C   0  0  0  0  0  0  0  0  0  0  0  0
    3.1753   -2.3209    0.3453 C   0  0  0  0  0  0  0  0  0  0  0  0
    4.1526   -3.0162    1.0530 C   0  0  0  0  0  0  0  0  0  0  0  0
    5.0682   -3.8164    0.3970 C   0  0  0  0  0  0  0  0  0  0  0  0
    5.0071   -3.9631   -0.9813 C   0  0  0  0  0  0  0  0  0  0  0  0
    6.1275   -4.9455   -1.9319 S   0  0  0  0  0  0  0  0  0  0  0  0
    7.0966   -5.8345   -0.6810 C   0  0  0  0  0  0  0  0  0  0  0  0
    4.0160   -3.2911   -1.6925 C   0  0  0  0  0  0  0  0  0  0  0  0
    3.1225   -2.4711   -1.0427 C   0  0  0  0  0  0  0  0  0  0  0  0
    0.2560   -2.5075   -0.0774 C   0  0  0  0  0  0  0  0  0  0  0  0
    0.5458   -4.2082   -0.0800 S   0  0  0  0  0  0  0  0  0  0  0  0
   -1.0325   -4.5059   -0.8225 C   0  0  0  0  0  0  0  0  0  0  0  0
   -1.7497   -3.3236   -1.0129 C   0  0  0  0  0  0  0  0  0  0  0  0
   -3.0480   -3.1729   -1.4595 N   0  0  0  0  0  0  0  0  0  0  0  0
   -3.3140   -2.0570   -2.2805 C   0  0  0  0  0  0  0  0  0  0  0  0
   -2.5382   -1.8283   -3.4149 C   0  0  0  0  0  0  0  0  0  0  0  0
   -2.8040   -0.7454   -4.2228 C   0  0  0  0  0  0  0  0  0  0  0  0
   -3.8266    0.1467   -3.8999 C   0  0  0  0  0  0  0  0  0  0  0  0
   -4.0353    1.5182   -4.9865 S   0  0  0  0  0  0  0  0  0  0  0  0
   -5.4681    2.3961   -4.3090 C   0  0  0  0  0  0  0  0  0  0  0  0
   -4.6015   -0.0838   -2.7701 C   0  0  0  0  0  0  0  0  0  0  0  0
   -4.3514   -1.1839   -1.9734 C   0  0  0  0  0  0  0  0  0  0  0  0
   -4.0846   -4.0448   -1.1330 C   0  0  0  0  0  0  0  0  0  0  0  0
   -4.0718   -4.7750    0.0543 C   0  0  0  0  0  0  0  0  0  0  0  0
   -5.0217   -5.7486    0.2961 C   0  0  0  0  0  0  0  0  0  0  0  0
   -6.0164   -5.9936   -0.6400 C   0  0  0  0  0  0  0  0  0  0  0  0
   -7.1991   -7.2996   -0.5190 S   0  0  0  0  0  0  0  0  0  0  0  0
   -6.6500   -8.2545    0.9229 C   0  0  0  0  0  0  0  0  0  0  0  0
   -6.0955   -5.1930   -1.7783 C   0  0  0  0  0  0  0  0  0  0  0  0
   -5.1436   -4.2337   -2.0258 C   0  0  0  0  0  0  0  0  0  0  0  0
   -0.9787   -2.2011   -0.6168 C   0  0  0  0  0  0  0  0  0  0  0  0
   -1.2888   -0.5032   -0.5436 S   0  0  0  0  0  0  0  0  0  0  0  0
   -1.3824   -5.8513   -1.0892 C   0  0  0  0  0  0  0  0  0  0  0  0
   -0.7594   -6.9689   -0.5434 C   0  0  0  0  0  0  0  0  0  0  0  0
   -1.3757   -8.1658   -0.8634 C   0  0  0  0  0  0  0  0  0  0  0  0
   -0.9104   -9.4743   -0.3071 C   0  0  0  0  0  0  0  0  0  0  0  0
   -1.4969   -9.7290    1.0840 C   0  0  0  0  0  0  0  0  0  0  0  0
   -2.5057   -7.9881   -1.6848 C   0  0  0  0  0  0  0  0  0  0  0  0
   -2.6687   -6.3100   -2.1525 S   0  0  0  0  0  0  0  0  0  0  0  0
   -3.4830   -8.9625   -1.9066 C   0  0  0  0  0  0  0  0  0  0  0  0
   -4.6771   -8.8619   -2.5838 C   0  0  0  0  0  0  0  0  0  0  0  0
   -5.0397   -7.7911   -3.5101 C   0  0  0  0  0  0  0  0  0  0  0  0
   -4.3991   -6.7899   -3.7855 O   0  0  0  0  0  0  0  0  0  0  0  0
   -6.3219   -8.1920   -4.1190 C   0  0  0  0  0  0  0  0  0  0  0  0
   -7.0592   -7.5321   -5.0795 C   0  0  0  0  0  0  0  0  0  0  0  0
   -8.2179   -8.1449   -5.5350 C   0  0  0  0  0  0  0  0  0  0  0  0
   -8.5919   -9.3946   -5.0739 C   0  0  0  0  0  0  0  0  0  0  0  0
   -7.8413  -10.0751   -4.1084 C   0  0  0  0  0  0  0  0  0  0  0  0
   -8.0997  -11.3249   -3.6813 O   0  0  0  0  0  0  0  0  0  0  0  0
   -9.2824  -11.9772   -4.0810 C   0  0  0  0  0  0  0  0  0  0  0  0
   -6.7121   -9.4315   -3.5896 C   0  0  0  0  0  0  0  0  0  0  0  0
   -5.7689   -9.8153   -2.5458 C   0  0  0  0  0  0  0  0  0  0  0  0
   -5.9649  -10.7649   -1.5736 C   0  0  0  0  0  0  0  0  0  0  0  0
   -7.1216  -11.5433   -1.3553 C   0  0  0  0  0  0  0  0  0  0  0  0
   -8.0027  -12.1890   -0.9987 N   0  0  0  0  0  0  0  0  0  0  0  0
   -5.0717  -11.0032   -0.5100 C   0  0  0  0  0  0  0  0  0  0  0  0
   -4.4183  -11.2393    0.4067 N   0  0  0  0  0  0  0  0  0  0  0  0
   -0.0637    7.5167    1.6984 H   0  0  0  0  0  0  0  0  0  0  0  0
    6.1005    7.9544    1.2054 H   0  0  0  0  0  0  0  0  0  0  0  0
    3.2039   11.7716    2.8458 H   0  0  0  0  0  0  0  0  0  0  0  0
    6.0448   12.9375    1.3130 H   0  0  0  0  0  0  0  0  0  0  0  0
    6.3082   13.2808    3.9394 H   0  0  0  0  0  0  0  0  0  0  0  0
    8.4427   14.2762    2.7704 H   0  0  0  0  0  0  0  0  0  0  0  0
    9.9975   12.2536    2.0310 H   0  0  0  0  0  0  0  0  0  0  0  0
    8.8233   10.0157    2.7377 H   0  0  0  0  0  0  0  0  0  0  0  0
    8.0535   11.4891    4.7992 H   0  0  0  0  0  0  0  0  0  0  0  0
    6.6223   10.6378    4.1737 H   0  0  0  0  0  0  0  0  0  0  0  0
    7.6049   10.9925    0.5752 H   0  0  0  0  0  0  0  0  0  0  0  0
   -0.9028    3.4710    3.4976 H   0  0  0  0  0  0  0  0  0  0  0  0
   -1.9569    2.0303    5.1756 H   0  0  0  0  0  0  0  0  0  0  0  0
   -0.6503    2.8706    9.3258 H   0  0  0  0  0  0  0  0  0  0  0  0
   -1.2768    1.3853   10.0820 H   0  0  0  0  0  0  0  0  0  0  0  0
    0.4119    1.4448    9.5356 H   0  0  0  0  0  0  0  0  0  0  0  0
    1.4066    2.5769    7.7584 H   0  0  0  0  0  0  0  0  0  0  0  0
    2.4869    3.9455    6.0718 H   0  0  0  0  0  0  0  0  0  0  0  0
    4.1008    4.4485    3.2416 H   0  0  0  0  0  0  0  0  0  0  0  0
    5.8273    6.0177    3.9710 H   0  0  0  0  0  0  0  0  0  0  0  0
    7.2327    7.8564    3.8953 H   0  0  0  0  0  0  0  0  0  0  0  0
    7.9296    8.6241    5.3395 H   0  0  0  0  0  0  0  0  0  0  0  0
    7.3729    6.9392    5.4334 H   0  0  0  0  0  0  0  0  0  0  0  0
    2.8458    8.3748    5.9415 H   0  0  0  0  0  0  0  0  0  0  0  0
    1.1090    6.7594    5.2245 H   0  0  0  0  0  0  0  0  0  0  0  0
   -2.2094    2.8805   -0.3412 H   0  0  0  0  0  0  0  0  0  0  0  0
   -3.9251    4.3797   -1.2015 H   0  0  0  0  0  0  0  0  0  0  0  0
   -5.7235    5.6402   -1.9874 H   0  0  0  0  0  0  0  0  0  0  0  0
   -4.3281    6.7297   -1.7036 H   0  0  0  0  0  0  0  0  0  0  0  0
   -5.6380    7.2124   -2.8062 H   0  0  0  0  0  0  0  0  0  0  0  0
   -1.9012    4.5324   -4.9654 H   0  0  0  0  0  0  0  0  0  0  0  0
   -0.1507    3.0484   -4.0852 H   0  0  0  0  0  0  0  0  0  0  0  0
   -0.8293    0.5525   -3.6078 H   0  0  0  0  0  0  0  0  0  0  0  0
    0.6096   -0.9320   -4.9597 H   0  0  0  0  0  0  0  0  0  0  0  0
    5.6570   -1.7500   -5.1879 H   0  0  0  0  0  0  0  0  0  0  0  0
    5.2773   -1.4269   -3.4841 H   0  0  0  0  0  0  0  0  0  0  0  0
    5.2488   -0.0928   -4.6862 H   0  0  0  0  0  0  0  0  0  0  0  0
    4.0008    0.2892   -2.6569 H   0  0  0  0  0  0  0  0  0  0  0  0
    2.5802    1.7516   -1.3344 H   0  0  0  0  0  0  0  0  0  0  0  0
    4.4541   -0.3579    1.9076 H   0  0  0  0  0  0  0  0  0  0  0  0
    4.8251    0.4261    4.2194 H   0  0  0  0  0  0  0  0  0  0  0  0
    2.1915   -1.6287    7.2493 H   0  0  0  0  0  0  0  0  0  0  0  0
    1.1001   -0.2262    7.4525 H   0  0  0  0  0  0  0  0  0  0  0  0
    2.4612   -0.4735    8.5730 H   0  0  0  0  0  0  0  0  0  0  0  0
    0.8518   -0.7640    5.2573 H   0  0  0  0  0  0  0  0  0  0  0  0
    0.4974   -1.5678    2.9798 H   0  0  0  0  0  0  0  0  0  0  0  0
    4.1958   -2.9383    2.1289 H   0  0  0  0  0  0  0  0  0  0  0  0
    5.8158   -4.3299    0.9801 H   0  0  0  0  0  0  0  0  0  0  0  0
    6.4314   -6.3958   -0.0316 H   0  0  0  0  0  0  0  0  0  0  0  0
    7.7082   -5.1383   -0.1141 H   0  0  0  0  0  0  0  0  0  0  0  0
    7.7345   -6.5159   -1.2352 H   0  0  0  0  0  0  0  0  0  0  0  0
    3.9521   -3.4238   -2.7615 H   0  0  0  0  0  0  0  0  0  0  0  0
    2.3733   -1.9426   -1.6120 H   0  0  0  0  0  0  0  0  0  0  0  0
   -1.7408   -2.5132   -3.6616 H   0  0  0  0  0  0  0  0  0  0  0  0
   -2.2334   -0.5806   -5.1243 H   0  0  0  0  0  0  0  0  0  0  0  0
   -6.3462    1.7577   -4.3452 H   0  0  0  0  0  0  0  0  0  0  0  0
   -5.2511    2.7210   -3.2960 H   0  0  0  0  0  0  0  0  0  0  0  0
   -5.6080    3.2623   -4.9483 H   0  0  0  0  0  0  0  0  0  0  0  0
   -5.4024    0.5841   -2.4987 H   0  0  0  0  0  0  0  0  0  0  0  0
   -4.9597   -1.3687   -1.1005 H   0  0  0  0  0  0  0  0  0  0  0  0
   -3.2893   -4.6065    0.7794 H   0  0  0  0  0  0  0  0  0  0  0  0
   -4.9622   -6.3180    1.2096 H   0  0  0  0  0  0  0  0  0  0  0  0
   -6.7804   -7.6713    1.8297 H   0  0  0  0  0  0  0  0  0  0  0  0
   -7.2896   -9.1317    0.9572 H   0  0  0  0  0  0  0  0  0  0  0  0
   -5.6149   -8.5582    0.7939 H   0  0  0  0  0  0  0  0  0  0  0  0
   -6.8915   -5.3665   -2.4861 H   0  0  0  0  0  0  0  0  0  0  0  0
   -5.1816   -3.6613   -2.9389 H   0  0  0  0  0  0  0  0  0  0  0  0
    0.0968   -6.8937    0.1057 H   0  0  0  0  0  0  0  0  0  0  0  0
   -1.1781  -10.2957   -0.9726 H   0  0  0  0  0  0  0  0  0  0  0  0
    0.1791   -9.4430   -0.2328 H   0  0  0  0  0  0  0  0  0  0  0  0
   -2.5752   -9.8551    1.0313 H   0  0  0  0  0  0  0  0  0  0  0  0
   -1.2727   -8.8969    1.7475 H   0  0  0  0  0  0  0  0  0  0  0  0
   -1.0717  -10.6359    1.5056 H   0  0  0  0  0  0  0  0  0  0  0  0
   -3.2788   -9.9113   -1.4265 H   0  0  0  0  0  0  0  0  0  0  0  0
   -6.7343   -6.5744   -5.4537 H   0  0  0  0  0  0  0  0  0  0  0  0
   -8.8320   -7.6545   -6.2755 H   0  0  0  0  0  0  0  0  0  0  0  0
   -9.4797   -9.8542   -5.4789 H   0  0  0  0  0  0  0  0  0  0  0  0
   -9.2993  -12.9051   -3.5120 H   0  0  0  0  0  0  0  0  0  0  0  0
  -10.1677  -11.3861   -3.8316 H   0  0  0  0  0  0  0  0  0  0  0  0
   -9.2732  -12.1997   -5.1527 H   0  0  0  0  0  0  0  0  0  0  0  0
  1  2  2  0  0  0  0
  2  3  1  0  0  0  0
  3  4  2  0  0  0  0
  3  5  1  0  0  0  0
  5  6  2  0  0  0  0
  6  7  1  0  0  0  0
  7  8  2  0  0  0  0
  8  9  1  0  0  0  0
  9 10  2  0  0  0  0
 10 11  1  0  0  0  0
 11 12  2  0  0  0  0
 12 13  1  0  0  0  0
 13 14  3  0  0  0  0
 12 15  1  0  0  0  0
 15 16  3  0  0  0  0
  8 17  1  0  0  0  0
 17 18  1  0  0  0  0
 18 19  1  0  0  0  0
 19 20  2  0  0  0  0
 20 21  1  0  0  0  0
 21 22  1  0  0  0  0
 21 23  1  0  0  0  0
  1 24  1  0  0  0  0
 24 25  2  0  0  0  0
 25 26  1  0  0  0  0
 26 27  1  0  0  0  0
 27 28  2  0  0  0  0
 28 29  1  0  0  0  0
 29 30  2  0  0  0  0
 30 31  1  0  0  0  0
 31 32  1  0  0  0  0
 30 33  1  0  0  0  0
 33 34  2  0  0  0  0
 26 35  1  0  0  0  0
 35 36  2  0  0  0  0
 36 37  1  0  0  0  0
 37 38  2  0  0  0  0
 38 39  1  0  0  0  0
 39 40  1  0  0  0  0
 38 41  1  0  0  0  0
 41 42  2  0  0  0  0
 25 43  1  0  0  0  0
 43 44  1  0  0  0  0
 44 45  1  0  0  0  0
 45 46  2  0  0  0  0
 46 47  1  0  0  0  0
 47 48  1  0  0  0  0
 48 49  2  0  0  0  0
 49 50  1  0  0  0  0
 50 51  2  0  0  0  0
 51 52  1  0  0  0  0
 52 53  1  0  0  0  0
 51 54  1  0  0  0  0
 54 55  2  0  0  0  0
 47 56  1  0  0  0  0
 56 57  2  0  0  0  0
 57 58  1  0  0  0  0
 58 59  2  0  0  0  0
 59 60  1  0  0  0  0
 60 61  1  0  0  0  0
 59 62  1  0  0  0  0
 62 63  2  0  0  0  0
 46 64  1  0  0  0  0
 64 65  1  0  0  0  0
 45 66  1  0  0  0  0
 66 67  2  0  0  0  0
 67 68  1  0  0  0  0
 68 69  1  0  0  0  0
 69 70  2  0  0  0  0
 70 71  1  0  0  0  0
 71 72  2  0  0  0  0
 72 73  1  0  0  0  0
 73 74  1  0  0  0  0
 72 75  1  0  0  0  0
 75 76  2  0  0  0  0
 68 77  1  0  0  0  0
 77 78  2  0  0  0  0
 78 79  1  0  0  0  0
 79 80  2  0  0  0  0
 80 81  1  0  0  0  0
 81 82  1  0  0  0  0
 80 83  1  0  0  0  0
 83 84  2  0  0  0  0
 67 85  1  0  0  0  0
 85 86  1  0  0  0  0
 86 87  1  0  0  0  0
 87 88  2  0  0  0  0
 88 89  1  0  0  0  0
 89 90  1  0  0  0  0
 90 91  2  0  0  0  0
 91 92  1  0  0  0  0
 92 93  2  0  0  0  0
 93 94  1  0  0  0  0
 94 95  1  0  0  0  0
 93 96  1  0  0  0  0
 96 97  2  0  0  0  0
 89 98  1  0  0  0  0
 98 99  2  0  0  0  0
 99100  1  0  0  0  0
100101  2  0  0  0  0
101102  1  0  0  0  0
102103  1  0  0  0  0
101104  1  0  0  0  0
104105  2  0  0  0  0
 88106  1  0  0  0  0
106107  1  0  0  0  0
 87108  1  0  0  0  0
108109  2  0  0  0  0
109110  1  0  0  0  0
110111  1  0  0  0  0
111112  1  0  0  0  0
110113  2  0  0  0  0
113114  1  0  0  0  0
113115  1  0  0  0  0
115116  2  0  0  0  0
116117  1  0  0  0  0
117118  2  0  0  0  0
117119  1  0  0  0  0
119120  2  0  0  0  0
120121  1  0  0  0  0
121122  2  0  0  0  0
122123  1  0  0  0  0
123124  1  0  0  0  0
124125  1  0  0  0  0
123126  2  0  0  0  0
126127  1  0  0  0  0
127128  2  0  0  0  0
128129  1  0  0  0  0
129130  3  0  0  0  0
128131  1  0  0  0  0
131132  3  0  0  0  0
 11  2  1  0  0  0  0
 23 17  1  0  0  0  0
 65 24  1  0  0  0  0
107 66  1  0  0  0  0
114108  1  0  0  0  0
127116  1  0  0  0  0
 10  5  1  0  0  0  0
 22 18  1  0  0  0  0
 34 27  1  0  0  0  0
 42 35  1  0  0  0  0
 64 43  2  0  0  0  0
 76 69  1  0  0  0  0
 84 77  1  0  0  0  0
106 85  2  0  0  0  0
126119  1  0  0  0  0
 23  7  1  0  0  0  0
 55 48  1  0  0  0  0
 63 56  1  0  0  0  0
 97 90  1  0  0  0  0
105 98  1  0  0  0  0
  1133  1  0  0  0  0
  6134  1  0  0  0  0
  9135  1  0  0  0  0
 17136  1  0  0  0  0
 18137  1  0  0  0  0
 19138  1  0  0  0  0
 20139  1  0  0  0  0
 21140  1  0  0  0  0
 22141  1  0  0  0  0
 22142  1  0  0  0  0
 23143  1  0  0  0  0
 28144  1  0  0  0  0
 29145  1  0  0  0  0
 32146  1  0  0  0  0
 32147  1  0  0  0  0
 32148  1  0  0  0  0
 33149  1  0  0  0  0
 34150  1  0  0  0  0
 36151  1  0  0  0  0
 37152  1  0  0  0  0
 40153  1  0  0  0  0
 40154  1  0  0  0  0
 40155  1  0  0  0  0
 41156  1  0  0  0  0
 42157  1  0  0  0  0
 49158  1  0  0  0  0
 50159  1  0  0  0  0
 53160  1  0  0  0  0
 53161  1  0  0  0  0
 53162  1  0  0  0  0
 54163  1  0  0  0  0
 55164  1  0  0  0  0
 57165  1  0  0  0  0
 58166  1  0  0  0  0
 61167  1  0  0  0  0
 61168  1  0  0  0  0
 61169  1  0  0  0  0
 62170  1  0  0  0  0
 63171  1  0  0  0  0
 70172  1  0  0  0  0
 71173  1  0  0  0  0
 74174  1  0  0  0  0
 74175  1  0  0  0  0
 74176  1  0  0  0  0
 75177  1  0  0  0  0
 76178  1  0  0  0  0
 78179  1  0  0  0  0
 79180  1  0  0  0  0
 82181  1  0  0  0  0
 82182  1  0  0  0  0
 82183  1  0  0  0  0
 83184  1  0  0  0  0
 84185  1  0  0  0  0
 91186  1  0  0  0  0
 92187  1  0  0  0  0
 95188  1  0  0  0  0
 95189  1  0  0  0  0
 95190  1  0  0  0  0
 96191  1  0  0  0  0
 97192  1  0  0  0  0
 99193  1  0  0  0  0
100194  1  0  0  0  0
103195  1  0  0  0  0
103196  1  0  0  0  0
103197  1  0  0  0  0
104198  1  0  0  0  0
105199  1  0  0  0  0
109200  1  0  0  0  0
111201  1  0  0  0  0
111202  1  0  0  0  0
112203  1  0  0  0  0
112204  1  0  0  0  0
112205  1  0  0  0  0
115206  1  0  0  0  0
120207  1  0  0  0  0
121208  1  0  0  0  0
122209  1  0  0  0  0
125210  1  0  0  0  0
125211  1  0  0  0  0
125212  1  0  0  0  0
M  END
