256

C         -7.24950        0.98620       -0.13520
C         -7.44950        0.60350       -1.42430
C         -8.65160        1.09770       -2.15440
O         -9.58030        1.70990       -1.67760
C         -8.43910        0.72030       -3.56280
C         -9.21100        1.09040       -4.66300
C         -8.75480        0.59310       -5.86020
C         -7.62160       -0.22660       -5.95790
C         -6.85880       -0.60690       -4.88160
C         -7.29030       -0.09130       -3.65650
C         -6.70760       -0.24710       -2.32690
C         -5.76550       -1.18620       -1.99190
C         -5.17210       -2.09280       -2.89150
N         -4.62330       -2.86520       -3.54270
C         -5.26860       -1.43280       -0.69770
N         -4.80330       -1.73040        0.30930
C         -7.74300       -0.35590       -7.45470
C         -8.32090       -1.68360       -7.98770
C         -8.76570       -1.34680       -9.39250
C         -9.84070       -0.57440       -9.30110
C        -10.14050       -0.37580       -7.83270
C         -9.68360       -1.73390       -7.28450
C         -9.00880        0.55460       -7.34710
C         -6.03590        0.97050        0.60520
C         -4.78980        1.46510        0.24100
N         -4.52980        2.25270       -0.88700
C         -4.27640        1.68010       -2.14240
C         -4.84930        2.23410       -3.28790
C         -4.59680        1.68240       -4.52260
C         -3.75680        0.57490       -4.64410
S         -3.52130       -0.06350       -6.27210
C         -2.71970       -1.66900       -5.99120
C         -3.16530        0.03770       -3.51010
C         -3.43670        0.57910       -2.26620
C         -4.23800        3.60080       -0.66000
C         -4.80400        4.26700        0.42510
C         -4.52890        5.59960        0.66290
C         -3.68400        6.29890       -0.18680
S         -3.26590        8.00390        0.00010
C         -4.17000        8.51760        1.48790
C         -3.11190        5.63650       -1.27150
C         -3.37710        4.30670       -1.50330
C         -3.85240        1.26980        1.27480
S         -2.16380        1.56350        1.38320
C         -2.09860        0.73000        2.93870
C         -3.34830        0.31080        3.37090
N         -3.62910       -0.30170        4.57840
C         -2.89130       -0.02070        5.73430
C         -2.31360        1.22900        5.94240
C         -1.59800        1.49880        7.09460
C         -1.45770        0.52460        8.07170
S         -0.53520        0.73310        9.56460
C          0.14220        2.41210        9.43110
C         -2.04990       -0.72240        7.87930
C         -2.74850       -0.99350        6.72640
C         -4.74160       -1.16110        4.65070
C         -5.57680       -1.16270        5.76820
C         -6.66500       -2.00490        5.81920
C         -6.95550       -2.85440        4.75290
S         -8.37210       -3.89630        4.92610
C         -8.67350       -4.48250        3.23360
C         -6.13330       -2.84910        3.63700
C         -5.03720       -2.01020        3.58910
C         -4.33980        0.62580        2.40090
S         -6.04270        0.35830        2.25260
C         -0.76860        0.59100        3.45380
C         -0.05970       -0.50600        3.91180
N         -0.54550       -1.73880        4.33290
C         -1.41340       -2.49510        3.54160
C         -2.21580       -3.48290        4.10920
C         -3.02220       -4.28130        3.32290
C         -3.06410       -4.09070        1.94820
S         -4.08920       -5.02240        0.85210
C         -4.64900       -6.41320        1.87900
C         -2.28790       -3.08480        1.37930
C         -1.46870       -2.30170        2.16110
C          0.11080       -2.29870        5.44160
C          0.37700       -3.66420        5.54420
C          0.98090       -4.17170        6.67300
C          1.35370       -3.33210        7.72070
S          2.07710       -4.09250        9.13900
C          2.16260       -2.74130       10.34950
C          1.15120       -1.96540        7.59670
C          0.53430       -1.46090        6.47100
C          1.33810       -0.25780        3.86850
S          2.69530       -1.32910        3.92380
C          3.72750       -0.07170        3.29390
C          3.07440        1.12140        3.11640
N          3.70160        2.27310        2.60220
C          4.22490        3.21660        3.47470
C          4.34780        2.94190        4.83580
C          4.83170        3.89290        5.71480
C          5.20800        5.14320        5.25030
S          5.84720        6.43960        6.27160
C          5.95370        5.68480        7.91950
C          5.07280        5.43130        3.89370
C          4.58260        4.48930        3.01950
C          3.94650        2.27410        1.22090
C          5.20450        2.55600        0.69380
C          5.41040        2.50590       -0.67030
C          4.37310        2.13710       -1.51200
S          4.65030        2.02590       -3.26890
C          3.65020        3.45440       -3.80370
C          3.11880        1.85020       -0.99880
C          2.90280        1.94190        0.35990
C          1.70000        1.00360        3.43500
S          0.30270        1.95950        3.09790
C          5.01270       -0.44100        2.70020
C          6.25490       -0.25990        3.25380
C          7.40860       -0.65040        2.56390
C          7.35270       -1.19130        1.29580
C          6.07560       -1.39000        0.69830
N          5.96210       -1.90680       -0.53690
C          4.78020       -2.01470       -1.08880
C          4.74820       -2.45320       -2.48880
C          5.44900       -3.58720       -2.87700
C          5.37280       -4.01240       -4.19170
C          4.64000       -3.29650       -5.11480
C          3.98350       -2.11960       -4.74450
O          3.35210       -1.46560       -5.75320
C          2.56580       -0.32320       -5.46940
C          1.21770       -0.68290       -4.85150
C          4.02950       -1.70870       -3.41950
C          3.59540       -1.70420       -0.34330
N          3.69500       -1.22020        0.87060
C          4.91100       -1.02140        1.40750
C          2.22840       -1.93110       -0.83280
C          1.22620       -1.05510       -0.41170
C         -0.06640       -1.21380       -0.86280
C         -0.40330       -2.26190       -1.70430
C          0.57600       -3.17140       -2.09610
O          0.37950       -4.23410       -2.91680
C         -0.92870       -4.56220       -3.35050
C         -1.75630       -5.25940       -2.27680
C          1.89120       -2.99410       -1.65880
C          8.53530       -1.61730        0.57460
C          8.67290       -1.45030       -0.75590
C          7.77080       -0.59700       -1.58860
O          7.14210        0.37070       -1.21910
C          8.03770       -0.98960       -2.98380
C          7.36460       -0.55340       -4.12300
C          7.93860       -0.96270       -5.30190
C          9.11490       -1.72610       -5.34990
C          9.77910       -2.17680       -4.23620
C          9.19970       -1.79030       -3.02020
C          9.65260       -2.04210       -1.65740
C         10.79360       -2.70210       -1.29070
C         11.22240       -2.87970        0.04210
N         11.63760       -3.05430        1.09830
C         11.72070       -3.27040       -2.18990
N         12.51630       -3.75830       -2.85850
C          9.17790       -1.68150       -6.85820
C          8.76770       -2.95830       -7.61790
C          8.44660       -2.47170       -9.01270
C          7.31040       -1.78890       -8.95050
C          6.84610       -1.79670       -7.51180
C          7.34950       -3.18050       -7.08080
C          7.84920       -0.86060       -6.80320
H         -8.11880        1.39900        0.36960
H        -10.08050        1.71770       -4.54400
H         -5.98740       -1.23160       -4.97360
H         -6.88840       -0.00100       -8.02730
H         -7.66550       -2.54260       -7.87370
H         -8.23770       -1.64900      -10.27780
H        -10.39030       -0.10280      -10.09450
H        -11.14370       -0.04420       -7.57870
H         -9.62140       -1.77620       -6.19860
H        -10.30350       -2.55260       -7.64590
H         -9.00310        1.51780       -7.85380
H         -5.49680        3.09290       -3.19350
H         -5.05240        2.09520       -5.40970
H         -1.70180       -1.52050       -5.64200
H         -3.30470       -2.25080       -5.28290
H         -2.70780       -2.16220       -6.95810
H         -2.48800       -0.79740       -3.58060
H         -2.98200        0.15410       -1.38340
H         -5.47510        3.74240        1.08890
H         -4.98950        6.07840        1.51180
H         -5.23880        8.40410        1.33140
H         -3.92790        9.56640        1.62810
H         -3.83120        7.94340        2.34530
H         -2.44690        6.17940       -1.92550
H         -2.91180        3.80560       -2.33830
H         -2.43640        2.01160        5.20910
H         -1.16450        2.47890        7.21400
H          0.76720        2.49120        8.54610
H         -0.66450        3.13900        9.41100
H          0.74410        2.55660       10.32300
H         -1.94170       -1.48000        8.64010
H         -3.19290       -1.96620        6.58680
H         -5.37550       -0.49490        6.59250
H         -7.31300       -2.00480        6.68210
H         -8.70560       -3.63520        2.55530
H         -7.90970       -5.19490        2.93500
H         -9.64060       -4.97480        3.26110
H         -6.32630       -3.48550        2.78890
H         -4.41380       -2.01470        2.71130
H         -2.20320       -3.63520        5.17730
H         -3.62370       -5.03650        3.80180
H         -5.30670       -6.06250        2.66940
H         -3.78970       -6.93390        2.29060
H         -5.19520       -7.07120        1.21020
H         -2.32890       -2.92560        0.31370
H         -0.83950       -1.55900        1.69650
H          0.11530       -4.32710        4.73390
H          1.17570       -5.23010        6.75460
H          1.18360       -2.28550       10.46450
H          2.46930       -3.20390       11.28250
H          2.90380       -2.00930       10.04190
H          1.45210       -1.28170        8.37300
H          0.37390       -0.39720        6.38920
H          4.06190        1.97220        5.21650
H          4.91160        3.63740        6.75950
H          6.37960        6.44820        8.56300
H          6.60960        4.81950        7.88980
H          4.96180        5.41730        8.27280
H          5.35030        6.41120        3.53630
H          4.46350        4.73660        1.97600
H          6.02040        2.80470        1.35560
H          6.38220        2.71860       -1.08320
H          3.71330        3.49280       -4.88600
H          4.06550        4.36000       -3.37130
H          2.61900        3.32110       -3.49090
H          2.31030        1.56430       -1.65710
H          1.91820        1.76840        0.76530
H          6.34720        0.18880        4.23190
H          8.37310       -0.49070        3.02320
H          6.01750       -4.13840       -2.14390
H          5.88320       -4.91420       -4.49620
H          4.56410       -3.62180       -6.13970
H          3.11870        0.37820       -4.83430
H          2.41080        0.14300       -6.44680
H          0.71060       -1.40320       -5.49040
H          0.60400        0.21030       -4.76230
H          1.34160       -1.12700       -3.86640
H          3.53910       -0.80820       -3.08730
H          1.48650       -0.25950        0.26420
H         -0.82990       -0.51290       -0.55650
H         -1.42530       -2.36580       -2.03380
H         -0.76780       -5.23890       -4.19420
H         -1.44980       -3.67190       -3.72270
H         -1.27570       -6.18810       -1.98060
H         -2.74640       -5.47750       -2.66610
H         -1.86380       -4.63500       -1.39390
H          2.62430       -3.72070       -1.97030
H          9.27940       -2.15240        1.14940
H          6.48850        0.07040       -4.04340
H         10.68440       -2.75880       -4.28710
H         10.06400       -1.20310       -7.27140
H          9.47120       -3.78250       -7.53740
H          9.08520       -2.62400       -9.86310
H          6.81250       -1.25580       -9.73930
H          5.80120       -1.56320       -7.32860
H          7.30740       -3.34810       -6.00720
H          6.83400       -3.98640       -7.60070
H          7.84060        0.15000       -7.20780
