274

C          5.53320        7.92880        2.53130
C          5.77850        8.71520        1.45320
C          5.91870        8.16720        0.07620
O          5.71960        7.02380       -0.27790
C          6.49490        9.25770       -0.72530
C          6.84940        9.20980       -2.07210
C          7.37050       10.38400       -2.55820
C          7.55100       11.52120       -1.75740
C          7.21170       11.58300       -0.42730
C          6.66100       10.40330        0.08240
C          6.17340       10.10720        1.42300
C          5.98010       11.00370        2.44150
C          5.36780       10.68830        3.67100
N          4.85680       10.52100        4.68630
C          6.31940       12.37080        2.37570
N          6.57860       13.48910        2.38770
C          8.14430       12.32200       -2.88870
C          7.24880       13.38380       -3.57170
C          5.82260       12.92590       -3.38740
C          5.64000       11.85530       -4.14840
C          6.93920       11.56760       -4.85810
C          7.46830       12.99880       -5.04370
C          7.93240       11.05990       -3.78330
C          4.88370        6.65840        2.39740
C          3.63730        6.46620        1.82320
N          2.84140        7.51680        1.32140
C          2.98310        7.80610       -0.04660
C          3.27320        9.09250       -0.50430
C          3.49650        9.32430       -1.84370
C          3.45400        8.27590       -2.75940
S          3.81840        8.67100       -4.44310
C          3.46530        7.13460       -5.34230
C          3.16110        6.99670       -2.31220
C          2.92540        6.76830       -0.97050
C          2.29160        8.42860        2.22310
C          1.39180        9.40400        1.78100
C          0.90750       10.35800        2.64760
C          1.27950       10.34960        3.98870
S          0.69610       11.65590        5.02520
C          1.95410       11.68840        6.33710
C          2.06960        9.31300        4.46010
C          2.56730        8.36520        3.58890
C          3.23950        5.12330        1.92110
S          1.83240        4.25820        1.43780
C          2.55060        2.74170        1.98090
C          3.78730        2.92490        2.58040
N          4.52990        1.93430        3.19360
C          3.90360        0.81720        3.76430
C          4.51910       -0.43220        3.69300
C          3.91660       -1.53670        4.25220
C          2.66990       -1.42910        4.86680
S          1.96210       -2.93150        5.47180
C          0.62400       -2.37230        6.56280
C          2.05410       -0.18800        4.94540
C          2.67780        0.92610        4.41660
C          5.92190        2.07590        3.32070
C          6.56390        1.67520        4.48950
C          7.93210        1.80270        4.62450
C          8.68710        2.34340        3.59180
S         10.43820        2.55650        3.64650
C         10.90260        1.96230        5.29850
C          8.04880        2.75310        2.42400
C          6.68460        2.62300        2.28950
C          4.17090        4.29050        2.53130
S          5.53390        5.19510        3.09410
C          1.73990        1.57230        1.79650
C          1.98350        0.36590        1.15730
N          3.15650       -0.02090        0.54090
C          3.33780       -1.37990        0.20870
C          3.72530       -1.74050       -1.08270
C          3.87220       -3.06600       -1.41910
C          3.63090       -4.06930       -0.47990
S          3.79880       -5.73110       -1.04680
C          3.57540       -6.72380        0.45330
C          3.26570       -3.71570        0.81010
C          3.12280       -2.38230        1.14850
C          4.05670        0.89660       -0.02410
C          5.41550        0.57570       -0.04490
C          6.32200        1.41480       -0.64960
C          5.90330        2.61890       -1.21830
S          7.16170        3.61940       -1.94020
C          6.25150        4.97900       -2.72380
C          4.55550        2.95040       -1.18660
C          3.63950        2.08460       -0.61600
C          0.80900       -0.43380        1.14370
S          0.40740       -1.95980        0.44120
C         -1.27590       -1.77360        0.90980
C         -1.50400       -0.56940        1.56720
N         -2.73220       -0.08900        2.01510
C         -2.78040        0.46200        3.29900
C         -3.55140        1.58770        3.57520
C         -3.59230        2.12180        4.84810
C         -2.85140        1.54340        5.86970
S         -2.82810        2.12080        7.53880
C         -3.82150        3.63750        7.49360
C         -2.07040        0.42200        5.59610
C         -2.03470       -0.11410        4.32900
C         -3.86070       -0.13740        1.19480
C         -5.13460       -0.27700        1.74480
C         -6.23960       -0.44230        0.93530
C         -6.09360       -0.48600       -0.44410
S         -7.42250       -0.77660       -1.57140
C         -8.82380       -1.19910       -0.49840
C         -4.83000       -0.29730       -1.00050
C         -3.72870       -0.11500       -0.19470
C         -0.30700        0.16640        1.70130
S          0.05560        1.73370        2.31500
C         -2.18270       -2.84020        0.68700
C         -2.06120       -3.90780       -0.19890
N         -1.04290       -4.06890       -1.13220
C         -0.73170       -3.03590       -2.02030
C          0.56260       -2.89560       -2.52270
C          0.87480       -1.83750       -3.34900
C         -0.07880       -0.88600       -3.69600
C          0.28210        0.26180       -4.58960
C         -1.36850       -1.04110       -3.20570
C         -1.69830       -2.10180       -2.38450
C         -0.47010       -5.34300       -1.24510
C         -0.09150       -5.86530       -2.47930
C          0.46820       -7.12270       -2.55600
C          0.64680       -7.90460       -1.41990
C          1.25040       -9.27110       -1.53080
C          0.24810       -7.38580       -0.19640
C         -0.29200       -6.11770       -0.10230
C         -3.13340       -4.81680       -0.06390
S         -3.61580       -6.22670       -0.93790
C         -5.12350       -6.29540       -0.01180
C         -5.23100       -5.21670        0.90270
N         -6.32850       -4.91530        1.67290
C         -7.64020       -5.03280        1.17300
C         -8.68150       -5.36540        2.03550
C         -9.97020       -5.47160        1.55190
C        -10.25350       -5.26200        0.20700
C        -11.65000       -5.42650       -0.30780
C         -9.20960       -4.91290       -0.64180
C         -7.91770       -4.78720       -0.16970
C         -6.12060       -4.18940        2.86070
C         -6.91080       -3.08870        3.17730
C         -6.63960       -2.34170        4.30610
C         -5.58320       -2.66690        5.14870
C         -5.24720       -1.80970        6.32960
C         -4.83040       -3.79670        4.85170
C         -5.09360       -4.55480        3.72870
C         -4.07090       -4.43190        0.88600
S         -3.61960       -2.96860        1.68900
C         -6.08730       -7.29610       -0.11700
C         -6.19410       -8.34920       -0.99750
C         -5.28680       -8.64610       -2.10730
O         -4.22410       -8.10830       -2.37000
C         -5.91390       -9.73920       -2.87240
C         -5.42430      -10.34200       -4.02820
C         -6.23730      -11.33040       -4.52920
C         -7.44620      -11.69380       -3.92310
C         -7.93550      -11.11250       -2.77660
C         -7.12560      -10.10140       -2.25210
C         -7.29940       -9.27450       -1.05660
C         -8.33390       -9.39080       -0.15790
C         -9.43970      -10.24800       -0.31850
N        -10.38200      -10.90260       -0.38370
C         -8.43640       -8.70560        1.06710
N         -8.59460       -8.21710        2.09650
C         -7.74690      -12.74200       -4.96610
C         -8.78990      -12.36720       -6.04030
C         -8.52560      -13.34910       -7.15880
C         -7.37830      -13.00860       -7.73190
C         -6.84820      -11.79050       -7.01060
C         -8.17040      -11.10210       -6.64820
C         -6.39640      -12.33880       -5.64050
H          5.81650        8.24690        3.52750
H          6.70330        8.31280       -2.65260
H          7.36470       12.45970        0.18030
H          9.16320       12.67270       -2.73660
H          7.46480       14.40920       -3.28380
H          5.13220       13.38370       -2.70310
H          4.76850       11.23460       -4.23900
H          6.86970       10.93800       -5.74080
H          6.85830       13.58670       -5.72770
H          8.51200       13.04070       -5.35240
H          8.81170       10.59200       -4.22200
H          3.34480        9.91200        0.19590
H          3.73470       10.32010       -2.18630
H          2.44050        6.82620       -5.15740
H          4.17110        6.36090       -5.05370
H          3.59420        7.37550       -6.39290
H          3.11550        6.16490       -2.99700
H          2.70540        5.76750       -0.63510
H          1.07770        9.41570        0.74860
H          0.23840       11.12550        2.28980
H          1.74630       10.92010        7.07670
H          1.88340       12.66890        6.79740
H          2.93500       11.54860        5.89200
H          2.31730        9.23600        5.50560
H          3.17480        7.57160        3.99280
H          5.47300       -0.52850        3.19720
H          4.39750       -2.50200        4.20430
H          0.30170       -3.25350        7.10920
H          1.00450       -1.62630        7.25390
H         -0.20210       -1.98370        5.97500
H          1.09260       -0.06750        5.41810
H          2.20530        1.89110        4.51990
H          5.98550        1.26080        5.30220
H          8.39290        1.48280        5.54500
H         10.41200        2.56130        6.06020
H         11.97820        2.09370        5.36300
H         10.65390        0.91000        5.40030
H          8.63290        3.17280        1.61970
H          6.20590        2.93730        1.37730
H          3.90090       -0.97260       -1.82100
H          4.16240       -3.34620       -2.42020
H          4.32220       -6.44830        1.19220
H          2.56640       -6.59260        0.83190
H          3.72030       -7.75440        0.14560
H          3.07730       -4.46130        1.56480
H          2.83610       -2.11810        2.15370
H          5.74860       -0.34760        0.40420
H          7.37010        1.16010       -0.67380
H          6.99710        5.53640       -3.28370
H          5.50890        4.57140       -3.40410
H          5.80580        5.61450       -1.96340
H          4.20430        3.87670       -1.61160
H          2.58820        2.32590       -0.65600
H         -4.11830        2.05190        2.78230
H         -4.19960        2.99440        5.02580
H         -4.84950        3.40350        7.23200
H         -3.78180        4.04240        8.50020
H         -3.38470        4.34390        6.79370
H         -1.50660       -0.02230        6.40320
H         -1.43980       -0.99130        4.11860
H         -5.25440       -0.30120        2.81700
H         -7.20600       -0.55760        1.39740
H         -8.57600       -2.06440        0.11020
H         -9.63990       -1.44850       -1.16940
H         -9.10060       -0.34470        0.11270
H         -4.72480       -0.30170       -2.07490
H         -2.75370        0.02370       -0.63750
H          1.32320       -3.60660       -2.24000
H          1.88440       -1.73920       -3.72080
H          0.36530       -0.07740       -5.62270
H          1.24230        0.68590       -4.30040
H         -0.47480        1.04150       -4.54740
H         -2.13150       -0.32320       -3.47280
H         -2.70950       -2.20990       -2.02000
H         -0.24740       -5.28440       -3.37560
H          0.76250       -7.51400       -3.51880
H          0.61070       -9.91760       -2.13060
H          2.22200       -9.21800       -2.02100
H          1.37580       -9.72470       -0.55040
H          0.36440       -7.97960        0.70030
H         -0.57690       -5.71900        0.86130
H         -8.47160       -5.54980        3.07720
H        -10.76700       -5.74280        2.22760
H        -11.91160       -6.48430       -0.33870
H        -12.36320       -4.92850        0.34640
H        -11.74770       -5.02030       -1.31160
H         -9.40820       -4.72600       -1.68740
H         -7.12000       -4.50210       -0.84030
H         -7.72870       -2.81540        2.52760
H         -7.25360       -1.48090        4.53050
H         -4.49050       -1.07440        6.04980
H         -6.12360       -1.27340        6.68540
H         -4.84540       -2.40860        7.14360
H         -4.02290       -4.08580        5.50850
H         -4.50140       -5.43130        3.51070
H         -6.89010       -7.20360        0.60350
H         -4.48510      -10.03180       -4.45890
H         -8.86440      -11.40970       -2.31960
H         -7.86240      -13.75990       -4.59830
H         -9.81220      -12.30060       -5.67830
H         -9.15070      -14.19580       -7.37420
H         -6.85370      -13.51400       -8.52160
H         -6.10170      -11.19850       -7.53330
H         -8.06310      -10.27860       -5.94470
H         -8.71200      -10.76100       -7.52910
H         -5.61060      -13.08800       -5.71930
