
  xtb     02082208173D
 energy: -364.691607352734 gnorm: 0.000470511946 xtb: 6.4.1 (unknown)
218240  0     0  0            999 V2000
    4.8618    6.7896   -4.5221 C   0  0  0  0  0  0  0  0  0  0  0  0
    5.5164    7.8165   -3.9361 C   0  0  0  0  0  0  0  0  0  0  0  0
    5.2931    8.2447   -2.5197 C   0  0  0  0  0  0  0  0  0  0  0  0
    4.5678    7.7292   -1.7001 O   0  0  0  0  0  0  0  0  0  0  0  0
    6.0542    9.4936   -2.3595 C   0  0  0  0  0  0  0  0  0  0  0  0
    6.1400   10.2684   -1.2043 C   0  0  0  0  0  0  0  0  0  0  0  0
    6.9151   11.3938   -1.3411 C   0  0  0  0  0  0  0  0  0  0  0  0
    7.5556   11.7302   -2.5430 C   0  0  0  0  0  0  0  0  0  0  0  0
    7.4780   10.9776   -3.6894 C   0  0  0  0  0  0  0  0  0  0  0  0
    6.6950    9.8235   -3.5720 C   0  0  0  0  0  0  0  0  0  0  0  0
    6.3967    8.7946   -4.5600 C   0  0  0  0  0  0  0  0  0  0  0  0
    6.9099    8.7262   -5.8270 C   0  0  0  0  0  0  0  0  0  0  0  0
    6.6746    7.6794   -6.7423 C   0  0  0  0  0  0  0  0  0  0  0  0
    6.5568    6.8610   -7.5392 N   0  0  0  0  0  0  0  0  0  0  0  0
    7.7772    9.6838   -6.3956 C   0  0  0  0  0  0  0  0  0  0  0  0
    8.4820   10.4191   -6.9248 N   0  0  0  0  0  0  0  0  0  0  0  0
    8.1503   12.9896   -1.9653 C   0  0  0  0  0  0  0  0  0  0  0  0
    7.4870   14.3382   -2.3399 C   0  0  0  0  0  0  0  0  0  0  0  0
    6.0434   14.0338   -2.6555 C   0  0  0  0  0  0  0  0  0  0  0  0
    5.4388   13.7148   -1.5188 C   0  0  0  0  0  0  0  0  0  0  0  0
    6.4628   13.7979   -0.4137 C   0  0  0  0  0  0  0  0  0  0  0  0
    7.3344   14.9501   -0.9382 C   0  0  0  0  0  0  0  0  0  0  0  0
    7.4388   12.6141   -0.6272 C   0  0  0  0  0  0  0  0  0  0  0  0
    4.0909    5.8072   -3.7835 C   0  0  0  0  0  0  0  0  0  0  0  0
    4.5988    5.1763   -2.6433 C   0  0  0  0  0  0  0  0  0  0  0  0
    5.8713    5.4128   -2.2732 F   0  0  0  0  0  0  0  0  0  0  0  0
    3.8783    4.2507   -1.9269 C   0  0  0  0  0  0  0  0  0  0  0  0
    2.5857    3.8964   -2.3243 C   0  0  0  0  0  0  0  0  0  0  0  0
    2.0794    4.5297   -3.4644 C   0  0  0  0  0  0  0  0  0  0  0  0
    0.8475    4.2046   -3.9046 F   0  0  0  0  0  0  0  0  0  0  0  0
    2.8093    5.4400   -4.1943 C   0  0  0  0  0  0  0  0  0  0  0  0
    1.8518    2.8782   -1.6044 C   0  0  0  0  0  0  0  0  0  0  0  0
    2.3622    1.6787   -1.1286 C   0  0  0  0  0  0  0  0  0  0  0  0
    3.6394    1.2001   -1.3854 N   0  0  0  0  0  0  0  0  0  0  0  0
    4.3656    0.5991   -0.3537 C   0  0  0  0  0  0  0  0  0  0  0  0
    4.2084    1.0233    0.9662 C   0  0  0  0  0  0  0  0  0  0  0  0
    4.9621    0.4607    1.9709 C   0  0  0  0  0  0  0  0  0  0  0  0
    5.8773   -0.5484    1.6842 C   0  0  0  0  0  0  0  0  0  0  0  0
    6.8013   -1.2038    3.0440 S   0  0  0  0  0  0  0  0  0  0  0  0
    8.1089   -2.1838    2.2600 C   0  0  0  0  0  0  0  0  0  0  0  0
    6.0202   -0.9921    0.3769 C   0  0  0  0  0  0  0  0  0  0  0  0
    5.2738   -0.4185   -0.6328 C   0  0  0  0  0  0  0  0  0  0  0  0
    4.2360    1.4917   -2.6210 C   0  0  0  0  0  0  0  0  0  0  0  0
    5.5679    1.8876   -2.7030 C   0  0  0  0  0  0  0  0  0  0  0  0
    6.0973    2.3307   -3.8995 C   0  0  0  0  0  0  0  0  0  0  0  0
    5.2976    2.3989   -5.0321 C   0  0  0  0  0  0  0  0  0  0  0  0
    5.8238    3.0838   -6.5691 S   0  0  0  0  0  0  0  0  0  0  0  0
    7.3177    4.0107   -6.1239 C   0  0  0  0  0  0  0  0  0  0  0  0
    3.9899    1.9186   -4.9732 C   0  0  0  0  0  0  0  0  0  0  0  0
    3.4677    1.4627   -3.7859 C   0  0  0  0  0  0  0  0  0  0  0  0
    1.3720    0.9446   -0.4358 C   0  0  0  0  0  0  0  0  0  0  0  0
    1.3355   -0.5857    0.3792 S   0  0  0  0  0  0  0  0  0  0  0  0
   -0.3794   -0.3831    0.7177 C   0  0  0  0  0  0  0  0  0  0  0  0
   -0.8559    0.8459    0.2790 C   0  0  0  0  0  0  0  0  0  0  0  0
   -2.1438    1.3030    0.5632 N   0  0  0  0  0  0  0  0  0  0  0  0
   -2.4689    1.4883    1.9157 C   0  0  0  0  0  0  0  0  0  0  0  0
   -3.7673    1.2704    2.3752 C   0  0  0  0  0  0  0  0  0  0  0  0
   -4.0658    1.4240    3.7098 C   0  0  0  0  0  0  0  0  0  0  0  0
   -3.0795    1.8019    4.6196 C   0  0  0  0  0  0  0  0  0  0  0  0
   -3.5763    1.9634    6.3061 S   0  0  0  0  0  0  0  0  0  0  0  0
   -2.0195    2.2628    7.1915 C   0  0  0  0  0  0  0  0  0  0  0  0
   -1.7897    2.0328    4.1643 C   0  0  0  0  0  0  0  0  0  0  0  0
   -1.4874    1.8699    2.8259 C   0  0  0  0  0  0  0  0  0  0  0  0
   -2.9617    1.7328   -0.4788 C   0  0  0  0  0  0  0  0  0  0  0  0
   -3.9180    2.7320   -0.2996 C   0  0  0  0  0  0  0  0  0  0  0  0
   -4.7120    3.1282   -1.3529 C   0  0  0  0  0  0  0  0  0  0  0  0
   -4.5665    2.5426   -2.6057 C   0  0  0  0  0  0  0  0  0  0  0  0
   -5.6510    3.0802   -3.9036 S   0  0  0  0  0  0  0  0  0  0  0  0
   -4.6187    2.8773   -5.3845 C   0  0  0  0  0  0  0  0  0  0  0  0
   -3.6158    1.5498   -2.7928 C   0  0  0  0  0  0  0  0  0  0  0  0
   -2.8196    1.1536   -1.7393 C   0  0  0  0  0  0  0  0  0  0  0  0
    0.1369    1.5777   -0.4003 C   0  0  0  0  0  0  0  0  0  0  0  0
    0.1471    3.0779   -1.2509 S   0  0  0  0  0  0  0  0  0  0  0  0
   -1.2007   -1.4553    1.1528 C   0  0  0  0  0  0  0  0  0  0  0  0
   -0.8498   -2.6574    1.7607 C   0  0  0  0  0  0  0  0  0  0  0  0
    0.3769   -2.9461    2.3274 N   0  0  0  0  0  0  0  0  0  0  0  0
    0.7565   -4.3048    2.3697 C   0  0  0  0  0  0  0  0  0  0  0  0
    0.7230   -5.0651    1.2049 C   0  0  0  0  0  0  0  0  0  0  0  0
    0.9954   -6.4179    1.2436 C   0  0  0  0  0  0  0  0  0  0  0  0
    1.3044   -7.0270    2.4514 C   0  0  0  0  0  0  0  0  0  0  0  0
    1.6050   -8.7614    2.5855 S   0  0  0  0  0  0  0  0  0  0  0  0
    0.4915   -9.4218    1.3089 C   0  0  0  0  0  0  0  0  0  0  0  0
    1.3930   -6.2598    3.6085 C   0  0  0  0  0  0  0  0  0  0  0  0
    1.1184   -4.9109    3.5710 C   0  0  0  0  0  0  0  0  0  0  0  0
    1.1030   -2.0149    3.0739 C   0  0  0  0  0  0  0  0  0  0  0  0
    2.4761   -2.1970    3.2383 C   0  0  0  0  0  0  0  0  0  0  0  0
    3.2204   -1.3313    4.0114 C   0  0  0  0  0  0  0  0  0  0  0  0
    2.6064   -0.2434    4.6167 C   0  0  0  0  0  0  0  0  0  0  0  0
    3.4731    0.9466    5.5968 S   0  0  0  0  0  0  0  0  0  0  0  0
    4.9561    0.0458    6.1324 C   0  0  0  0  0  0  0  0  0  0  0  0
    1.2417   -0.0424    4.4374 C   0  0  0  0  0  0  0  0  0  0  0  0
    0.4925   -0.9195    3.6853 C   0  0  0  0  0  0  0  0  0  0  0  0
   -1.9293   -3.5755    1.7380 C   0  0  0  0  0  0  0  0  0  0  0  0
   -2.0864   -5.2398    2.1778 S   0  0  0  0  0  0  0  0  0  0  0  0
   -3.7581   -5.2487    1.6122 C   0  0  0  0  0  0  0  0  0  0  0  0
   -4.1163   -4.0134    1.0126 C   0  0  0  0  0  0  0  0  0  0  0  0
   -5.2795   -3.7641    0.3367 N   0  0  0  0  0  0  0  0  0  0  0  0
   -5.9315   -4.7320   -0.4453 C   0  0  0  0  0  0  0  0  0  0  0  0
   -5.2107   -5.7076   -1.1298 C   0  0  0  0  0  0  0  0  0  0  0  0
   -5.8621   -6.6656   -1.8798 C   0  0  0  0  0  0  0  0  0  0  0  0
   -7.2488   -6.6541   -1.9716 C   0  0  0  0  0  0  0  0  0  0  0  0
   -8.1863   -7.8310   -2.8918 S   0  0  0  0  0  0  0  0  0  0  0  0
   -6.9776   -9.1228   -3.3041 C   0  0  0  0  0  0  0  0  0  0  0  0
   -7.9690   -5.6550   -1.3209 C   0  0  0  0  0  0  0  0  0  0  0  0
   -7.3213   -4.7063   -0.5621 C   0  0  0  0  0  0  0  0  0  0  0  0
   -5.7744   -2.4433    0.3096 C   0  0  0  0  0  0  0  0  0  0  0  0
   -5.9715   -1.7515    1.5030 C   0  0  0  0  0  0  0  0  0  0  0  0
   -6.4982   -0.4797    1.4799 C   0  0  0  0  0  0  0  0  0  0  0  0
   -6.8079    0.1377    0.2680 C   0  0  0  0  0  0  0  0  0  0  0  0
   -7.4479    1.7757    0.3589 S   0  0  0  0  0  0  0  0  0  0  0  0
   -8.1876    2.0410   -1.2759 C   0  0  0  0  0  0  0  0  0  0  0  0
   -6.5891   -0.5430   -0.9233 C   0  0  0  0  0  0  0  0  0  0  0  0
   -6.0898   -1.8300   -0.8986 C   0  0  0  0  0  0  0  0  0  0  0  0
   -3.0816   -3.0743    1.1451 C   0  0  0  0  0  0  0  0  0  0  0  0
   -2.8951   -1.4238    0.6553 S   0  0  0  0  0  0  0  0  0  0  0  0
   -4.6631   -6.2839    1.8287 C   0  0  0  0  0  0  0  0  0  0  0  0
   -4.4639   -7.5378    2.3660 C   0  0  0  0  0  0  0  0  0  0  0  0
   -3.1723   -8.1449    2.6759 C   0  0  0  0  0  0  0  0  0  0  0  0
   -2.0599   -7.6605    2.5194 O   0  0  0  0  0  0  0  0  0  0  0  0
   -3.4542   -9.5053    3.1625 C   0  0  0  0  0  0  0  0  0  0  0  0
   -2.5303  -10.4418    3.6183 C   0  0  0  0  0  0  0  0  0  0  0  0
   -3.0942  -11.6264    4.0284 C   0  0  0  0  0  0  0  0  0  0  0  0
   -4.4738  -11.8614    3.9835 C   0  0  0  0  0  0  0  0  0  0  0  0
   -5.3954  -10.9437    3.5348 C   0  0  0  0  0  0  0  0  0  0  0  0
   -4.8446   -9.7303    3.1169 C   0  0  0  0  0  0  0  0  0  0  0  0
   -5.4948   -8.5159    2.6184 C   0  0  0  0  0  0  0  0  0  0  0  0
   -6.8493   -8.3591    2.4416 C   0  0  0  0  0  0  0  0  0  0  0  0
   -7.4970   -7.1698    2.0555 C   0  0  0  0  0  0  0  0  0  0  0  0
   -8.1099   -6.2381    1.7742 N   0  0  0  0  0  0  0  0  0  0  0  0
   -7.8006   -9.3800    2.6371 C   0  0  0  0  0  0  0  0  0  0  0  0
   -8.6297  -10.1661    2.7582 N   0  0  0  0  0  0  0  0  0  0  0  0
   -4.3379  -13.2458    4.5669 C   0  0  0  0  0  0  0  0  0  0  0  0
   -4.7041  -13.4366    6.0596 C   0  0  0  0  0  0  0  0  0  0  0  0
   -4.4888  -12.1014    6.7280 C   0  0  0  0  0  0  0  0  0  0  0  0
   -3.1823  -11.8769    6.7723 C   0  0  0  0  0  0  0  0  0  0  0  0
   -2.4907  -13.0564    6.1347 C   0  0  0  0  0  0  0  0  0  0  0  0
   -3.4512  -14.1854    6.5412 C   0  0  0  0  0  0  0  0  0  0  0  0
   -2.7997  -12.9826    4.6188 C   0  0  0  0  0  0  0  0  0  0  0  0
    4.8689    6.6741   -5.5987 H   0  0  0  0  0  0  0  0  0  0  0  0
    5.6307    9.9704   -0.3013 H   0  0  0  0  0  0  0  0  0  0  0  0
    7.9738   11.2525   -4.6053 H   0  0  0  0  0  0  0  0  0  0  0  0
    9.2368   13.0470   -1.9673 H   0  0  0  0  0  0  0  0  0  0  0  0
    8.0293   14.9162   -3.0832 H   0  0  0  0  0  0  0  0  0  0  0  0
    5.6365   14.0272   -3.6497 H   0  0  0  0  0  0  0  0  0  0  0  0
    4.4259   13.3880   -1.3734 H   0  0  0  0  0  0  0  0  0  0  0  0
    6.0727   13.8846    0.5969 H   0  0  0  0  0  0  0  0  0  0  0  0
    6.8087   15.9036   -0.9502 H   0  0  0  0  0  0  0  0  0  0  0  0
    8.2786   15.0572   -0.4061 H   0  0  0  0  0  0  0  0  0  0  0  0
    8.0604   12.4257    0.2459 H   0  0  0  0  0  0  0  0  0  0  0  0
    4.3162    3.8151   -1.0435 H   0  0  0  0  0  0  0  0  0  0  0  0
    2.3732    5.8833   -5.0758 H   0  0  0  0  0  0  0  0  0  0  0  0
    3.5119    1.8150    1.1991 H   0  0  0  0  0  0  0  0  0  0  0  0
    4.8599    0.8208    2.9816 H   0  0  0  0  0  0  0  0  0  0  0  0
    8.7784   -2.4756    3.0634 H   0  0  0  0  0  0  0  0  0  0  0  0
    8.6403   -1.5712    1.5378 H   0  0  0  0  0  0  0  0  0  0  0  0
    7.6863   -3.0698    1.7946 H   0  0  0  0  0  0  0  0  0  0  0  0
    6.7077   -1.7848    0.1286 H   0  0  0  0  0  0  0  0  0  0  0  0
    5.3933   -0.7598   -1.6502 H   0  0  0  0  0  0  0  0  0  0  0  0
    6.1862    1.8799   -1.8177 H   0  0  0  0  0  0  0  0  0  0  0  0
    7.1274    2.6470   -3.9267 H   0  0  0  0  0  0  0  0  0  0  0  0
    7.5143    4.6666   -6.9668 H   0  0  0  0  0  0  0  0  0  0  0  0
    7.1250    4.6039   -5.2344 H   0  0  0  0  0  0  0  0  0  0  0  0
    8.1536    3.3334   -5.9730 H   0  0  0  0  0  0  0  0  0  0  0  0
    3.3880    1.9261   -5.8686 H   0  0  0  0  0  0  0  0  0  0  0  0
    2.4474    1.1120   -3.7438 H   0  0  0  0  0  0  0  0  0  0  0  0
   -4.5316    0.9690    1.6777 H   0  0  0  0  0  0  0  0  0  0  0  0
   -5.0687    1.2503    4.0679 H   0  0  0  0  0  0  0  0  0  0  0  0
   -1.5978    3.2198    6.8983 H   0  0  0  0  0  0  0  0  0  0  0  0
   -1.3249    1.4491    7.0038 H   0  0  0  0  0  0  0  0  0  0  0  0
   -2.2834    2.2863    8.2442 H   0  0  0  0  0  0  0  0  0  0  0  0
   -1.0113    2.3551    4.8363 H   0  0  0  0  0  0  0  0  0  0  0  0
   -0.4779    2.0516    2.4872 H   0  0  0  0  0  0  0  0  0  0  0  0
   -4.0295    3.2079    0.6619 H   0  0  0  0  0  0  0  0  0  0  0  0
   -5.4472    3.9055   -1.2131 H   0  0  0  0  0  0  0  0  0  0  0  0
   -3.6189    3.2431   -5.1723 H   0  0  0  0  0  0  0  0  0  0  0  0
   -4.5982    1.8361   -5.6938 H   0  0  0  0  0  0  0  0  0  0  0  0
   -5.0830    3.4799   -6.1588 H   0  0  0  0  0  0  0  0  0  0  0  0
   -3.4954    1.0737   -3.7532 H   0  0  0  0  0  0  0  0  0  0  0  0
   -2.0884    0.3726   -1.8867 H   0  0  0  0  0  0  0  0  0  0  0  0
    0.4676   -4.5898    0.2688 H   0  0  0  0  0  0  0  0  0  0  0  0
    0.9566   -6.9905    0.3308 H   0  0  0  0  0  0  0  0  0  0  0  0
    0.9342   -9.3160    0.3225 H   0  0  0  0  0  0  0  0  0  0  0  0
    0.3567  -10.4749    1.5359 H   0  0  0  0  0  0  0  0  0  0  0  0
   -0.4536   -8.8914    1.3811 H   0  0  0  0  0  0  0  0  0  0  0  0
    1.6484   -6.7395    4.5407 H   0  0  0  0  0  0  0  0  0  0  0  0
    1.1519   -4.3233    4.4764 H   0  0  0  0  0  0  0  0  0  0  0  0
    2.9625   -3.0313    2.7562 H   0  0  0  0  0  0  0  0  0  0  0  0
    4.2767   -1.5095    4.1273 H   0  0  0  0  0  0  0  0  0  0  0  0
    5.4061    0.6564    6.9090 H   0  0  0  0  0  0  0  0  0  0  0  0
    4.6623   -0.9174    6.5376 H   0  0  0  0  0  0  0  0  0  0  0  0
    5.6533   -0.0745    5.3079 H   0  0  0  0  0  0  0  0  0  0  0  0
    0.7704    0.8035    4.9120 H   0  0  0  0  0  0  0  0  0  0  0  0
   -0.5714   -0.7620    3.5880 H   0  0  0  0  0  0  0  0  0  0  0  0
   -4.1324   -5.7206   -1.0694 H   0  0  0  0  0  0  0  0  0  0  0  0
   -5.2755   -7.4082   -2.3964 H   0  0  0  0  0  0  0  0  0  0  0  0
   -6.4935   -9.4746   -2.3979 H   0  0  0  0  0  0  0  0  0  0  0  0
   -7.5524   -9.9275   -3.7517 H   0  0  0  0  0  0  0  0  0  0  0  0
   -6.2525   -8.7481   -4.0210 H   0  0  0  0  0  0  0  0  0  0  0  0
   -9.0445   -5.6468   -1.3979 H   0  0  0  0  0  0  0  0  0  0  0  0
   -7.8885   -3.9535   -0.0385 H   0  0  0  0  0  0  0  0  0  0  0  0
   -5.7334   -2.2276    2.4423 H   0  0  0  0  0  0  0  0  0  0  0  0
   -6.6917    0.0474    2.4012 H   0  0  0  0  0  0  0  0  0  0  0  0
   -8.7621    2.9581   -1.1916 H   0  0  0  0  0  0  0  0  0  0  0  0
   -7.4161    2.1639   -2.0303 H   0  0  0  0  0  0  0  0  0  0  0  0
   -8.8469    1.2114   -1.5121 H   0  0  0  0  0  0  0  0  0  0  0  0
   -6.7998   -0.0777   -1.8724 H   0  0  0  0  0  0  0  0  0  0  0  0
   -5.9336   -2.3657   -1.8232 H   0  0  0  0  0  0  0  0  0  0  0  0
   -5.6798   -6.0452    1.5453 H   0  0  0  0  0  0  0  0  0  0  0  0
   -1.4758  -10.2156    3.6468 H   0  0  0  0  0  0  0  0  0  0  0  0
   -6.4541  -11.1410    3.5131 H   0  0  0  0  0  0  0  0  0  0  0  0
   -4.6947  -14.0642    3.9445 H   0  0  0  0  0  0  0  0  0  0  0  0
   -5.6675  -13.9093    6.2309 H   0  0  0  0  0  0  0  0  0  0  0  0
   -5.2862  -11.4514    7.0376 H   0  0  0  0  0  0  0  0  0  0  0  0
   -2.6698  -11.0013    7.1257 H   0  0  0  0  0  0  0  0  0  0  0  0
   -1.4382  -13.1830    6.3752 H   0  0  0  0  0  0  0  0  0  0  0  0
   -3.4563  -14.3681    7.6148 H   0  0  0  0  0  0  0  0  0  0  0  0
   -3.2727  -15.1195    6.0100 H   0  0  0  0  0  0  0  0  0  0  0  0
   -2.1515  -13.6308    4.0317 H   0  0  0  0  0  0  0  0  0  0  0  0
  1  2  2  0  0  0  0
  2  3  1  0  0  0  0
  3  4  2  0  0  0  0
  3  5  1  0  0  0  0
  5  6  2  0  0  0  0
  6  7  1  0  0  0  0
  7  8  2  0  0  0  0
  8  9  1  0  0  0  0
  9 10  2  0  0  0  0
 10 11  1  0  0  0  0
 11 12  2  0  0  0  0
 12 13  1  0  0  0  0
 13 14  3  0  0  0  0
 12 15  1  0  0  0  0
 15 16  3  0  0  0  0
  8 17  1  0  0  0  0
 17 18  1  0  0  0  0
 18 19  1  0  0  0  0
 19 20  2  0  0  0  0
 20 21  1  0  0  0  0
 21 22  1  0  0  0  0
 21 23  1  0  0  0  0
  1 24  1  0  0  0  0
 24 25  2  0  0  0  0
 25 26  1  0  0  0  0
 25 27  1  0  0  0  0
 27 28  2  0  0  0  0
 28 29  1  0  0  0  0
 29 30  1  0  0  0  0
 29 31  2  0  0  0  0
 28 32  1  0  0  0  0
 32 33  2  0  0  0  0
 33 34  1  0  0  0  0
 34 35  1  0  0  0  0
 35 36  2  0  0  0  0
 36 37  1  0  0  0  0
 37 38  2  0  0  0  0
 38 39  1  0  0  0  0
 39 40  1  0  0  0  0
 38 41  1  0  0  0  0
 41 42  2  0  0  0  0
 34 43  1  0  0  0  0
 43 44  2  0  0  0  0
 44 45  1  0  0  0  0
 45 46  2  0  0  0  0
 46 47  1  0  0  0  0
 47 48  1  0  0  0  0
 46 49  1  0  0  0  0
 49 50  2  0  0  0  0
 33 51  1  0  0  0  0
 51 52  1  0  0  0  0
 52 53  1  0  0  0  0
 53 54  2  0  0  0  0
 54 55  1  0  0  0  0
 55 56  1  0  0  0  0
 56 57  2  0  0  0  0
 57 58  1  0  0  0  0
 58 59  2  0  0  0  0
 59 60  1  0  0  0  0
 60 61  1  0  0  0  0
 59 62  1  0  0  0  0
 62 63  2  0  0  0  0
 55 64  1  0  0  0  0
 64 65  2  0  0  0  0
 65 66  1  0  0  0  0
 66 67  2  0  0  0  0
 67 68  1  0  0  0  0
 68 69  1  0  0  0  0
 67 70  1  0  0  0  0
 70 71  2  0  0  0  0
 54 72  1  0  0  0  0
 72 73  1  0  0  0  0
 53 74  1  0  0  0  0
 74 75  2  0  0  0  0
 75 76  1  0  0  0  0
 76 77  1  0  0  0  0
 77 78  2  0  0  0  0
 78 79  1  0  0  0  0
 79 80  2  0  0  0  0
 80 81  1  0  0  0  0
 81 82  1  0  0  0  0
 80 83  1  0  0  0  0
 83 84  2  0  0  0  0
 76 85  1  0  0  0  0
 85 86  2  0  0  0  0
 86 87  1  0  0  0  0
 87 88  2  0  0  0  0
 88 89  1  0  0  0  0
 89 90  1  0  0  0  0
 88 91  1  0  0  0  0
 91 92  2  0  0  0  0
 75 93  1  0  0  0  0
 93 94  1  0  0  0  0
 94 95  1  0  0  0  0
 95 96  2  0  0  0  0
 96 97  1  0  0  0  0
 97 98  1  0  0  0  0
 98 99  2  0  0  0  0
 99100  1  0  0  0  0
100101  2  0  0  0  0
101102  1  0  0  0  0
102103  1  0  0  0  0
101104  1  0  0  0  0
104105  2  0  0  0  0
 97106  1  0  0  0  0
106107  2  0  0  0  0
107108  1  0  0  0  0
108109  2  0  0  0  0
109110  1  0  0  0  0
110111  1  0  0  0  0
109112  1  0  0  0  0
112113  2  0  0  0  0
 96114  1  0  0  0  0
114115  1  0  0  0  0
 95116  1  0  0  0  0
116117  2  0  0  0  0
117118  1  0  0  0  0
118119  2  0  0  0  0
118120  1  0  0  0  0
120121  2  0  0  0  0
121122  1  0  0  0  0
122123  2  0  0  0  0
123124  1  0  0  0  0
124125  2  0  0  0  0
125126  1  0  0  0  0
126127  2  0  0  0  0
127128  1  0  0  0  0
128129  3  0  0  0  0
127130  1  0  0  0  0
130131  3  0  0  0  0
123132  1  0  0  0  0
132133  1  0  0  0  0
133134  1  0  0  0  0
134135  2  0  0  0  0
135136  1  0  0  0  0
136137  1  0  0  0  0
136138  1  0  0  0  0
 11  2  1  0  0  0  0
 23 17  1  0  0  0  0
 31 24  1  0  0  0  0
 73 32  1  0  0  0  0
115 74  1  0  0  0  0
126117  1  0  0  0  0
138132  1  0  0  0  0
 10  5  1  0  0  0  0
 22 18  1  0  0  0  0
 42 35  1  0  0  0  0
 50 43  1  0  0  0  0
 72 51  2  0  0  0  0
 84 77  1  0  0  0  0
 92 85  1  0  0  0  0
114 93  2  0  0  0  0
125120  1  0  0  0  0
137133  1  0  0  0  0
 23  7  1  0  0  0  0
 63 56  1  0  0  0  0
 71 64  1  0  0  0  0
105 98  1  0  0  0  0
113106  1  0  0  0  0
138122  1  0  0  0  0
  1139  1  0  0  0  0
  6140  1  0  0  0  0
  9141  1  0  0  0  0
 17142  1  0  0  0  0
 18143  1  0  0  0  0
 19144  1  0  0  0  0
 20145  1  0  0  0  0
 21146  1  0  0  0  0
 22147  1  0  0  0  0
 22148  1  0  0  0  0
 23149  1  0  0  0  0
 27150  1  0  0  0  0
 31151  1  0  0  0  0
 36152  1  0  0  0  0
 37153  1  0  0  0  0
 40154  1  0  0  0  0
 40155  1  0  0  0  0
 40156  1  0  0  0  0
 41157  1  0  0  0  0
 42158  1  0  0  0  0
 44159  1  0  0  0  0
 45160  1  0  0  0  0
 48161  1  0  0  0  0
 48162  1  0  0  0  0
 48163  1  0  0  0  0
 49164  1  0  0  0  0
 50165  1  0  0  0  0
 57166  1  0  0  0  0
 58167  1  0  0  0  0
 61168  1  0  0  0  0
 61169  1  0  0  0  0
 61170  1  0  0  0  0
 62171  1  0  0  0  0
 63172  1  0  0  0  0
 65173  1  0  0  0  0
 66174  1  0  0  0  0
 69175  1  0  0  0  0
 69176  1  0  0  0  0
 69177  1  0  0  0  0
 70178  1  0  0  0  0
 71179  1  0  0  0  0
 78180  1  0  0  0  0
 79181  1  0  0  0  0
 82182  1  0  0  0  0
 82183  1  0  0  0  0
 82184  1  0  0  0  0
 83185  1  0  0  0  0
 84186  1  0  0  0  0
 86187  1  0  0  0  0
 87188  1  0  0  0  0
 90189  1  0  0  0  0
 90190  1  0  0  0  0
 90191  1  0  0  0  0
 91192  1  0  0  0  0
 92193  1  0  0  0  0
 99194  1  0  0  0  0
100195  1  0  0  0  0
103196  1  0  0  0  0
103197  1  0  0  0  0
103198  1  0  0  0  0
104199  1  0  0  0  0
105200  1  0  0  0  0
107201  1  0  0  0  0
108202  1  0  0  0  0
111203  1  0  0  0  0
111204  1  0  0  0  0
111205  1  0  0  0  0
112206  1  0  0  0  0
113207  1  0  0  0  0
116208  1  0  0  0  0
121209  1  0  0  0  0
124210  1  0  0  0  0
132211  1  0  0  0  0
133212  1  0  0  0  0
134213  1  0  0  0  0
135214  1  0  0  0  0
136215  1  0  0  0  0
137216  1  0  0  0  0
137217  1  0  0  0  0
138218  1  0  0  0  0
M  END
