
  xtb     02052221093D
 energy: -282.871496183750 gnorm: 0.000453371695 xtb: 6.4.1 (unknown)
175191  0     0  0            999 V2000
   -4.3218   -1.4745   -4.7548 C   0  0  0  0  0  0  0  0  0  0  0  0
   -4.9665   -0.4929   -5.4267 C   0  0  0  0  0  0  0  0  0  0  0  0
   -5.8216   -0.8418   -6.5966 C   0  0  0  0  0  0  0  0  0  0  0  0
   -6.2151   -1.9460   -6.8963 O   0  0  0  0  0  0  0  0  0  0  0  0
   -6.0435    0.4295   -7.3094 C   0  0  0  0  0  0  0  0  0  0  0  0
   -6.6748    0.6086   -8.5390 C   0  0  0  0  0  0  0  0  0  0  0  0
   -6.7065    1.9137   -8.9679 C   0  0  0  0  0  0  0  0  0  0  0  0
   -6.1413    2.9672   -8.2357 C   0  0  0  0  0  0  0  0  0  0  0  0
   -5.5193    2.8077   -7.0210 C   0  0  0  0  0  0  0  0  0  0  0  0
   -5.4882    1.4884   -6.5594 C   0  0  0  0  0  0  0  0  0  0  0  0
   -4.9501    0.9513   -5.3142 C   0  0  0  0  0  0  0  0  0  0  0  0
   -4.6622    1.6812   -4.1916 C   0  0  0  0  0  0  0  0  0  0  0  0
   -4.3774    1.1403   -2.9210 C   0  0  0  0  0  0  0  0  0  0  0  0
   -4.1945    0.7974   -1.8402 N   0  0  0  0  0  0  0  0  0  0  0  0
   -4.6836    3.0900   -4.1325 C   0  0  0  0  0  0  0  0  0  0  0  0
   -4.6552    4.2324   -4.0190 N   0  0  0  0  0  0  0  0  0  0  0  0
   -6.5337    3.9987   -9.2633 C   0  0  0  0  0  0  0  0  0  0  0  0
   -7.7549    4.8784   -8.9211 C   0  0  0  0  0  0  0  0  0  0  0  0
   -8.1888    5.4310  -10.2594 C   0  0  0  0  0  0  0  0  0  0  0  0
   -8.7275    4.4352  -10.9515 C   0  0  0  0  0  0  0  0  0  0  0  0
   -8.6673    3.1929  -10.0922 C   0  0  0  0  0  0  0  0  0  0  0  0
   -8.8473    3.8231   -8.7050 C   0  0  0  0  0  0  0  0  0  0  0  0
   -7.1681    2.8257  -10.0776 C   0  0  0  0  0  0  0  0  0  0  0  0
   -3.2522   -1.3666   -3.8021 C   0  0  0  0  0  0  0  0  0  0  0  0
   -3.2247   -2.2225   -2.6832 C   0  0  0  0  0  0  0  0  0  0  0  0
   -4.1585   -3.2402   -2.3355 C   0  0  0  0  0  0  0  0  0  0  0  0
   -3.8516   -3.8927   -1.1900 C   0  0  0  0  0  0  0  0  0  0  0  0
   -4.5699   -5.0106   -0.5142 C   0  0  0  0  0  0  0  0  0  0  0  0
   -5.7718   -5.5235   -1.2978 C   0  0  0  0  0  0  0  0  0  0  0  0
   -2.3943   -3.2746   -0.4508 S   0  0  0  0  0  0  0  0  0  0  0  0
   -2.1998   -2.1047   -1.7248 C   0  0  0  0  0  0  0  0  0  0  0  0
   -1.1457   -1.2070   -1.8432 C   0  0  0  0  0  0  0  0  0  0  0  0
   -1.1568   -0.3663   -2.9663 C   0  0  0  0  0  0  0  0  0  0  0  0
   -2.1914   -0.4653   -3.9187 C   0  0  0  0  0  0  0  0  0  0  0  0
   -1.9044    0.6172   -5.2495 S   0  0  0  0  0  0  0  0  0  0  0  0
   -0.4636    1.2494   -4.4892 C   0  0  0  0  0  0  0  0  0  0  0  0
    0.2856    2.3543   -5.1468 C   0  0  0  0  0  0  0  0  0  0  0  0
   -0.5545    3.6311   -5.2116 C   0  0  0  0  0  0  0  0  0  0  0  0
   -0.2129    0.6454   -3.3089 C   0  0  0  0  0  0  0  0  0  0  0  0
   -0.0830   -1.1394   -0.8590 C   0  0  0  0  0  0  0  0  0  0  0  0
    1.2822   -1.2100   -1.0612 C   0  0  0  0  0  0  0  0  0  0  0  0
    1.8870   -1.4973   -2.2749 N   0  0  0  0  0  0  0  0  0  0  0  0
    1.1671   -2.2275   -3.2360 C   0  0  0  0  0  0  0  0  0  0  0  0
    1.1157   -1.7992   -4.5626 C   0  0  0  0  0  0  0  0  0  0  0  0
    0.2596   -2.4090   -5.4513 C   0  0  0  0  0  0  0  0  0  0  0  0
   -0.5521   -3.4655   -5.0415 C   0  0  0  0  0  0  0  0  0  0  0  0
   -1.7180   -4.0689   -6.2200 S   0  0  0  0  0  0  0  0  0  0  0  0
   -2.7647   -5.1923   -5.2505 C   0  0  0  0  0  0  0  0  0  0  0  0
   -0.4190   -3.9659   -3.7541 C   0  0  0  0  0  0  0  0  0  0  0  0
    0.4351   -3.3493   -2.8612 C   0  0  0  0  0  0  0  0  0  0  0  0
    3.1371   -0.9592   -2.5936 C   0  0  0  0  0  0  0  0  0  0  0  0
    4.0273   -1.6924   -3.3808 C   0  0  0  0  0  0  0  0  0  0  0  0
    5.2679   -1.1826   -3.6852 C   0  0  0  0  0  0  0  0  0  0  0  0
    5.6568    0.0690   -3.2092 C   0  0  0  0  0  0  0  0  0  0  0  0
    7.2768    0.6133   -3.6550 S   0  0  0  0  0  0  0  0  0  0  0  0
    7.5344    2.0888   -2.6288 C   0  0  0  0  0  0  0  0  0  0  0  0
    4.7702    0.8104   -2.4429 C   0  0  0  0  0  0  0  0  0  0  0  0
    3.5210    0.3008   -2.1428 C   0  0  0  0  0  0  0  0  0  0  0  0
    1.9784   -1.0272    0.1633 C   0  0  0  0  0  0  0  0  0  0  0  0
    3.6430   -0.9929    0.6238 S   0  0  0  0  0  0  0  0  0  0  0  0
    3.2018   -0.6660    2.2971 C   0  0  0  0  0  0  0  0  0  0  0  0
    1.8357   -0.6410    2.4838 C   0  0  0  0  0  0  0  0  0  0  0  0
    1.1841   -0.4880    3.6983 N   0  0  0  0  0  0  0  0  0  0  0  0
   -0.1083    0.0651    3.6782 C   0  0  0  0  0  0  0  0  0  0  0  0
   -1.1539   -0.5232    4.3898 C   0  0  0  0  0  0  0  0  0  0  0  0
   -2.4343   -0.0310    4.2737 C   0  0  0  0  0  0  0  0  0  0  0  0
   -2.7042    1.0528    3.4409 C   0  0  0  0  0  0  0  0  0  0  0  0
   -4.3863    1.5690    3.2919 S   0  0  0  0  0  0  0  0  0  0  0  0
   -4.4257    2.3449    1.6492 C   0  0  0  0  0  0  0  0  0  0  0  0
   -1.6596    1.6774    2.7749 C   0  0  0  0  0  0  0  0  0  0  0  0
   -0.3741    1.1876    2.8968 C   0  0  0  0  0  0  0  0  0  0  0  0
    1.6947   -1.0456    4.8736 C   0  0  0  0  0  0  0  0  0  0  0  0
    1.4016   -0.4529    6.0995 C   0  0  0  0  0  0  0  0  0  0  0  0
    1.8555   -1.0078    7.2789 C   0  0  0  0  0  0  0  0  0  0  0  0
    2.6327   -2.1573    7.2517 C   0  0  0  0  0  0  0  0  0  0  0  0
    3.2704   -2.9360    8.7068 S   0  0  0  0  0  0  0  0  0  0  0  0
    2.1221   -2.3818   10.0030 C   0  0  0  0  0  0  0  0  0  0  0  0
    2.9507   -2.7395    6.0286 C   0  0  0  0  0  0  0  0  0  0  0  0
    2.4787   -2.1995    4.8533 C   0  0  0  0  0  0  0  0  0  0  0  0
    1.1500   -0.8420    1.2568 C   0  0  0  0  0  0  0  0  0  0  0  0
   -0.5179   -0.9330    0.8231 S   0  0  0  0  0  0  0  0  0  0  0  0
    4.2749   -0.4437    3.2480 C   0  0  0  0  0  0  0  0  0  0  0  0
    4.3240    0.6879    4.0788 C   0  0  0  0  0  0  0  0  0  0  0  0
    3.3570    1.7304    4.1750 C   0  0  0  0  0  0  0  0  0  0  0  0
    3.7184    2.7378    4.9972 C   0  0  0  0  0  0  0  0  0  0  0  0
    2.9637    3.9772    5.3311 C   0  0  0  0  0  0  0  0  0  0  0  0
    3.6758    5.2235    4.8034 C   0  0  0  0  0  0  0  0  0  0  0  0
    5.2947    2.4707    5.7009 S   0  0  0  0  0  0  0  0  0  0  0  0
    5.4654    0.9504    4.8758 C   0  0  0  0  0  0  0  0  0  0  0  0
    6.6042    0.1375    4.8663 C   0  0  0  0  0  0  0  0  0  0  0  0
    6.5113   -1.0431    4.0918 C   0  0  0  0  0  0  0  0  0  0  0  0
    5.3689   -1.3016    3.3102 C   0  0  0  0  0  0  0  0  0  0  0  0
    5.5069   -2.8186    2.4661 S   0  0  0  0  0  0  0  0  0  0  0  0
    7.0758   -3.1044    3.1664 C   0  0  0  0  0  0  0  0  0  0  0  0
    7.8321   -4.3322    2.7979 C   0  0  0  0  0  0  0  0  0  0  0  0
    8.3851   -4.2266    1.3746 C   0  0  0  0  0  0  0  0  0  0  0  0
    7.4639   -2.0955    3.9815 C   0  0  0  0  0  0  0  0  0  0  0  0
    7.8908    0.4637    5.4230 C   0  0  0  0  0  0  0  0  0  0  0  0
    8.2636    1.2378    6.4688 C   0  0  0  0  0  0  0  0  0  0  0  0
    9.6443    1.4728    6.6529 C   0  0  0  0  0  0  0  0  0  0  0  0
   10.7703    1.6404    6.7932 N   0  0  0  0  0  0  0  0  0  0  0  0
    7.4182    1.8402    7.5356 C   0  0  0  0  0  0  0  0  0  0  0  0
    7.5939    2.9344    8.0056 O   0  0  0  0  0  0  0  0  0  0  0  0
    6.4841    0.9793    7.9467 O   0  0  0  0  0  0  0  0  0  0  0  0
    5.6246    1.4244    8.9952 C   0  0  0  0  0  0  0  0  0  0  0  0
    4.2981    0.7018    8.8704 C   0  0  0  0  0  0  0  0  0  0  0  0
   -4.6465   -2.4807   -5.0008 H   0  0  0  0  0  0  0  0  0  0  0  0
   -7.0877   -0.2301   -9.0772 H   0  0  0  0  0  0  0  0  0  0  0  0
   -5.0778    3.6230   -6.4721 H   0  0  0  0  0  0  0  0  0  0  0  0
   -5.7154    4.5604   -9.7097 H   0  0  0  0  0  0  0  0  0  0  0  0
   -7.5880    5.5977   -8.1241 H   0  0  0  0  0  0  0  0  0  0  0  0
   -8.0145    6.4426  -10.5759 H   0  0  0  0  0  0  0  0  0  0  0  0
   -9.0930    4.4489  -11.9615 H   0  0  0  0  0  0  0  0  0  0  0  0
   -9.3333    2.3781  -10.3631 H   0  0  0  0  0  0  0  0  0  0  0  0
   -9.8322    4.2700   -8.5809 H   0  0  0  0  0  0  0  0  0  0  0  0
   -8.6498    3.1426   -7.8788 H   0  0  0  0  0  0  0  0  0  0  0  0
   -6.7742    2.6054  -11.0680 H   0  0  0  0  0  0  0  0  0  0  0  0
   -5.0305   -3.4587   -2.9243 H   0  0  0  0  0  0  0  0  0  0  0  0
   -3.8629   -5.8291   -0.3455 H   0  0  0  0  0  0  0  0  0  0  0  0
   -4.8955   -4.6671    0.4728 H   0  0  0  0  0  0  0  0  0  0  0  0
   -5.4685   -5.8839   -2.2782 H   0  0  0  0  0  0  0  0  0  0  0  0
   -6.2378   -6.3451   -0.7599 H   0  0  0  0  0  0  0  0  0  0  0  0
   -6.5105   -4.7366   -1.4271 H   0  0  0  0  0  0  0  0  0  0  0  0
    0.5608    2.0551   -6.1619 H   0  0  0  0  0  0  0  0  0  0  0  0
    1.2033    2.5382   -4.5839 H   0  0  0  0  0  0  0  0  0  0  0  0
   -0.8513    3.9427   -4.2127 H   0  0  0  0  0  0  0  0  0  0  0  0
    0.0150    4.4338   -5.6726 H   0  0  0  0  0  0  0  0  0  0  0  0
   -1.4544    3.4616   -5.7989 H   0  0  0  0  0  0  0  0  0  0  0  0
    0.6213    0.9056   -2.6838 H   0  0  0  0  0  0  0  0  0  0  0  0
    1.7198   -0.9617   -4.8781 H   0  0  0  0  0  0  0  0  0  0  0  0
    0.1831   -2.0530   -6.4674 H   0  0  0  0  0  0  0  0  0  0  0  0
   -2.2158   -6.0960   -5.0010 H   0  0  0  0  0  0  0  0  0  0  0  0
   -3.1163   -4.6859   -4.3557 H   0  0  0  0  0  0  0  0  0  0  0  0
   -3.6028   -5.4380   -5.8956 H   0  0  0  0  0  0  0  0  0  0  0  0
   -0.9841   -4.8234   -3.4264 H   0  0  0  0  0  0  0  0  0  0  0  0
    0.5116   -3.7236   -1.8509 H   0  0  0  0  0  0  0  0  0  0  0  0
    3.7366   -2.6674   -3.7417 H   0  0  0  0  0  0  0  0  0  0  0  0
    5.9592   -1.7521   -4.2871 H   0  0  0  0  0  0  0  0  0  0  0  0
    8.5721    2.3710   -2.7773 H   0  0  0  0  0  0  0  0  0  0  0  0
    7.3629    1.8431   -1.5850 H   0  0  0  0  0  0  0  0  0  0  0  0
    6.8851    2.8951   -2.9580 H   0  0  0  0  0  0  0  0  0  0  0  0
    5.0319    1.7902   -2.0773 H   0  0  0  0  0  0  0  0  0  0  0  0
    2.8375    0.8965   -1.5554 H   0  0  0  0  0  0  0  0  0  0  0  0
   -0.9582   -1.3872    5.0069 H   0  0  0  0  0  0  0  0  0  0  0  0
   -3.2486   -0.5004    4.8037 H   0  0  0  0  0  0  0  0  0  0  0  0
   -3.9602    3.3259    1.6796 H   0  0  0  0  0  0  0  0  0  0  0  0
   -5.4766    2.4499    1.3985 H   0  0  0  0  0  0  0  0  0  0  0  0
   -3.9380    1.6963    0.9277 H   0  0  0  0  0  0  0  0  0  0  0  0
   -1.8370    2.5388    2.1513 H   0  0  0  0  0  0  0  0  0  0  0  0
    0.4289    1.6696    2.3569 H   0  0  0  0  0  0  0  0  0  0  0  0
    0.8047    0.4468    6.1265 H   0  0  0  0  0  0  0  0  0  0  0  0
    1.6022   -0.5318    8.2124 H   0  0  0  0  0  0  0  0  0  0  0  0
    2.3092   -3.0246   10.8574 H   0  0  0  0  0  0  0  0  0  0  0  0
    1.1011   -2.5096    9.6572 H   0  0  0  0  0  0  0  0  0  0  0  0
    2.3193   -1.3483   10.2723 H   0  0  0  0  0  0  0  0  0  0  0  0
    3.5543   -3.6339    6.0119 H   0  0  0  0  0  0  0  0  0  0  0  0
    2.6951   -2.6901    3.9168 H   0  0  0  0  0  0  0  0  0  0  0  0
    2.4267    1.7207    3.6399 H   0  0  0  0  0  0  0  0  0  0  0  0
    2.8624    4.0591    6.4166 H   0  0  0  0  0  0  0  0  0  0  0  0
    1.9631    3.9062    4.8987 H   0  0  0  0  0  0  0  0  0  0  0  0
    3.7795    5.1714    3.7219 H   0  0  0  0  0  0  0  0  0  0  0  0
    4.6674    5.3044    5.2428 H   0  0  0  0  0  0  0  0  0  0  0  0
    3.1094    6.1160    5.0564 H   0  0  0  0  0  0  0  0  0  0  0  0
    7.1728   -5.2011    2.8621 H   0  0  0  0  0  0  0  0  0  0  0  0
    8.6533   -4.4688    3.5043 H   0  0  0  0  0  0  0  0  0  0  0  0
    9.0587   -3.3765    1.2923 H   0  0  0  0  0  0  0  0  0  0  0  0
    7.5731   -4.0943    0.6630 H   0  0  0  0  0  0  0  0  0  0  0  0
    8.9317   -5.1297    1.1163 H   0  0  0  0  0  0  0  0  0  0  0  0
    8.3968   -2.1156    4.5161 H   0  0  0  0  0  0  0  0  0  0  0  0
    8.7143    0.0440    4.8531 H   0  0  0  0  0  0  0  0  0  0  0  0
    5.5039    2.5103    8.9129 H   0  0  0  0  0  0  0  0  0  0  0  0
    6.1071    1.1998    9.9532 H   0  0  0  0  0  0  0  0  0  0  0  0
    4.4603   -0.3717    8.9163 H   0  0  0  0  0  0  0  0  0  0  0  0
    3.6426    1.0079    9.6814 H   0  0  0  0  0  0  0  0  0  0  0  0
    3.8269    0.9387    7.9195 H   0  0  0  0  0  0  0  0  0  0  0  0
  1  2  2  0  0  0  0
  2  3  1  0  0  0  0
  3  4  2  0  0  0  0
  3  5  1  0  0  0  0
  5  6  2  0  0  0  0
  6  7  1  0  0  0  0
  7  8  2  0  0  0  0
  8  9  1  0  0  0  0
  9 10  2  0  0  0  0
 10 11  1  0  0  0  0
 11 12  2  0  0  0  0
 12 13  1  0  0  0  0
 13 14  3  0  0  0  0
 12 15  1  0  0  0  0
 15 16  3  0  0  0  0
  8 17  1  0  0  0  0
 17 18  1  0  0  0  0
 18 19  1  0  0  0  0
 19 20  2  0  0  0  0
 20 21  1  0  0  0  0
 21 22  1  0  0  0  0
 21 23  1  0  0  0  0
  1 24  1  0  0  0  0
 24 25  2  0  0  0  0
 25 26  1  0  0  0  0
 26 27  2  0  0  0  0
 27 28  1  0  0  0  0
 28 29  1  0  0  0  0
 27 30  1  0  0  0  0
 30 31  1  0  0  0  0
 31 32  2  0  0  0  0
 32 33  1  0  0  0  0
 33 34  2  0  0  0  0
 34 35  1  0  0  0  0
 35 36  1  0  0  0  0
 36 37  1  0  0  0  0
 37 38  1  0  0  0  0
 36 39  2  0  0  0  0
 32 40  1  0  0  0  0
 40 41  2  0  0  0  0
 41 42  1  0  0  0  0
 42 43  1  0  0  0  0
 43 44  2  0  0  0  0
 44 45  1  0  0  0  0
 45 46  2  0  0  0  0
 46 47  1  0  0  0  0
 47 48  1  0  0  0  0
 46 49  1  0  0  0  0
 49 50  2  0  0  0  0
 42 51  1  0  0  0  0
 51 52  2  0  0  0  0
 52 53  1  0  0  0  0
 53 54  2  0  0  0  0
 54 55  1  0  0  0  0
 55 56  1  0  0  0  0
 54 57  1  0  0  0  0
 57 58  2  0  0  0  0
 41 59  1  0  0  0  0
 59 60  1  0  0  0  0
 60 61  1  0  0  0  0
 61 62  2  0  0  0  0
 62 63  1  0  0  0  0
 63 64  1  0  0  0  0
 64 65  2  0  0  0  0
 65 66  1  0  0  0  0
 66 67  2  0  0  0  0
 67 68  1  0  0  0  0
 68 69  1  0  0  0  0
 67 70  1  0  0  0  0
 70 71  2  0  0  0  0
 63 72  1  0  0  0  0
 72 73  2  0  0  0  0
 73 74  1  0  0  0  0
 74 75  2  0  0  0  0
 75 76  1  0  0  0  0
 76 77  1  0  0  0  0
 75 78  1  0  0  0  0
 78 79  2  0  0  0  0
 62 80  1  0  0  0  0
 80 81  1  0  0  0  0
 61 82  1  0  0  0  0
 82 83  2  0  0  0  0
 83 84  1  0  0  0  0
 84 85  2  0  0  0  0
 85 86  1  0  0  0  0
 86 87  1  0  0  0  0
 85 88  1  0  0  0  0
 88 89  1  0  0  0  0
 89 90  2  0  0  0  0
 90 91  1  0  0  0  0
 91 92  2  0  0  0  0
 92 93  1  0  0  0  0
 93 94  1  0  0  0  0
 94 95  1  0  0  0  0
 95 96  1  0  0  0  0
 94 97  2  0  0  0  0
 90 98  1  0  0  0  0
 98 99  2  0  0  0  0
 99100  1  0  0  0  0
100101  3  0  0  0  0
 99102  1  0  0  0  0
102103  2  0  0  0  0
102104  1  0  0  0  0
104105  1  0  0  0  0
105106  1  0  0  0  0
 11  2  1  0  0  0  0
 23 17  1  0  0  0  0
 34 24  1  0  0  0  0
 81 40  1  0  0  0  0
 92 82  1  0  0  0  0
 10  5  1  0  0  0  0
 22 18  1  0  0  0  0
 31 25  1  0  0  0  0
 39 33  1  0  0  0  0
 50 43  1  0  0  0  0
 58 51  1  0  0  0  0
 80 59  2  0  0  0  0
 89 83  1  0  0  0  0
 97 91  1  0  0  0  0
 23  7  1  0  0  0  0
 71 64  1  0  0  0  0
 79 72  1  0  0  0  0
  1107  1  0  0  0  0
  6108  1  0  0  0  0
  9109  1  0  0  0  0
 17110  1  0  0  0  0
 18111  1  0  0  0  0
 19112  1  0  0  0  0
 20113  1  0  0  0  0
 21114  1  0  0  0  0
 22115  1  0  0  0  0
 22116  1  0  0  0  0
 23117  1  0  0  0  0
 26118  1  0  0  0  0
 28119  1  0  0  0  0
 28120  1  0  0  0  0
 29121  1  0  0  0  0
 29122  1  0  0  0  0
 29123  1  0  0  0  0
 37124  1  0  0  0  0
 37125  1  0  0  0  0
 38126  1  0  0  0  0
 38127  1  0  0  0  0
 38128  1  0  0  0  0
 39129  1  0  0  0  0
 44130  1  0  0  0  0
 45131  1  0  0  0  0
 48132  1  0  0  0  0
 48133  1  0  0  0  0
 48134  1  0  0  0  0
 49135  1  0  0  0  0
 50136  1  0  0  0  0
 52137  1  0  0  0  0
 53138  1  0  0  0  0
 56139  1  0  0  0  0
 56140  1  0  0  0  0
 56141  1  0  0  0  0
 57142  1  0  0  0  0
 58143  1  0  0  0  0
 65144  1  0  0  0  0
 66145  1  0  0  0  0
 69146  1  0  0  0  0
 69147  1  0  0  0  0
 69148  1  0  0  0  0
 70149  1  0  0  0  0
 71150  1  0  0  0  0
 73151  1  0  0  0  0
 74152  1  0  0  0  0
 77153  1  0  0  0  0
 77154  1  0  0  0  0
 77155  1  0  0  0  0
 78156  1  0  0  0  0
 79157  1  0  0  0  0
 84158  1  0  0  0  0
 86159  1  0  0  0  0
 86160  1  0  0  0  0
 87161  1  0  0  0  0
 87162  1  0  0  0  0
 87163  1  0  0  0  0
 95164  1  0  0  0  0
 95165  1  0  0  0  0
 96166  1  0  0  0  0
 96167  1  0  0  0  0
 96168  1  0  0  0  0
 97169  1  0  0  0  0
 98170  1  0  0  0  0
105171  1  0  0  0  0
105172  1  0  0  0  0
106173  1  0  0  0  0
106174  1  0  0  0  0
106175  1  0  0  0  0
M  END
