
  xtb     02092209563D
 energy: -395.245214690966 gnorm: 0.000668718089 xtb: 6.4.1 (unknown)
234258  0     0  0            999 V2000
   -8.0914    1.4624    2.3793 C   0  0  0  0  0  0  0  0  0  0  0  0
   -9.1448    1.4677    1.4902 C   0  0  0  0  0  0  0  0  0  0  0  0
   -9.0988    1.0200    0.1008 C   0  0  0  0  0  0  0  0  0  0  0  0
   -8.1277    0.6224   -0.5280 O   0  0  0  0  0  0  0  0  0  0  0  0
  -10.4816    1.0755   -0.4022 C   0  0  0  0  0  0  0  0  0  0  0  0
  -10.9225    0.7522   -1.6834 C   0  0  0  0  0  0  0  0  0  0  0  0
  -12.2759    0.9111   -1.8633 C   0  0  0  0  0  0  0  0  0  0  0  0
  -13.1265    1.3538   -0.8430 C   0  0  0  0  0  0  0  0  0  0  0  0
  -12.7029    1.6749    0.4259 C   0  0  0  0  0  0  0  0  0  0  0  0
  -11.3290    1.5242    0.6303 C   0  0  0  0  0  0  0  0  0  0  0  0
  -10.5140    1.7820    1.8197 C   0  0  0  0  0  0  0  0  0  0  0  0
  -10.9903    2.2531    3.0204 C   0  0  0  0  0  0  0  0  0  0  0  0
  -10.2044    2.5928    4.1386 C   0  0  0  0  0  0  0  0  0  0  0  0
   -9.6387    2.9215    5.0846 N   0  0  0  0  0  0  0  0  0  0  0  0
  -12.3513    2.4861    3.3009 C   0  0  0  0  0  0  0  0  0  0  0  0
  -13.4418    2.6831    3.6043 N   0  0  0  0  0  0  0  0  0  0  0  0
  -14.3489    1.2932   -1.7253 C   0  0  0  0  0  0  0  0  0  0  0  0
  -14.8709    2.6387   -2.2717 C   0  0  0  0  0  0  0  0  0  0  0  0
  -15.7322    2.2419   -3.4489 C   0  0  0  0  0  0  0  0  0  0  0  0
  -14.9257    1.8249   -4.4165 C   0  0  0  0  0  0  0  0  0  0  0  0
  -13.5056    1.9322   -3.9094 C   0  0  0  0  0  0  0  0  0  0  0  0
  -13.6385    3.1712   -3.0143 C   0  0  0  0  0  0  0  0  0  0  0  0
  -13.3994    0.8013   -2.8645 C   0  0  0  0  0  0  0  0  0  0  0  0
   -6.7383    1.2171    2.1646 C   0  0  0  0  0  0  0  0  0  0  0  0
   -5.7796    1.1548    3.2087 C   0  0  0  0  0  0  0  0  0  0  0  0
   -6.0565    1.1058    4.5464 N   0  0  0  0  0  0  0  0  0  0  0  0
   -7.1830    0.4488    5.0713 C   0  0  0  0  0  0  0  0  0  0  0  0
   -7.8036    0.9476    6.2163 C   0  0  0  0  0  0  0  0  0  0  0  0
   -8.9101    0.3126    6.7338 C   0  0  0  0  0  0  0  0  0  0  0  0
   -9.4255   -0.8265    6.1188 C   0  0  0  0  0  0  0  0  0  0  0  0
  -10.8622   -1.5345    6.8558 S   0  0  0  0  0  0  0  0  0  0  0  0
  -11.3413   -2.8564    5.7065 C   0  0  0  0  0  0  0  0  0  0  0  0
   -8.7927   -1.3404    4.9930 C   0  0  0  0  0  0  0  0  0  0  0  0
   -7.6761   -0.7118    4.4804 C   0  0  0  0  0  0  0  0  0  0  0  0
   -5.0879    1.5910    5.4498 C   0  0  0  0  0  0  0  0  0  0  0  0
   -4.6773    0.8132    6.5315 C   0  0  0  0  0  0  0  0  0  0  0  0
   -3.7079    1.2822    7.3869 C   0  0  0  0  0  0  0  0  0  0  0  0
   -3.1333    2.5397    7.1927 C   0  0  0  0  0  0  0  0  0  0  0  0
   -1.8793    3.0074    8.3349 S   0  0  0  0  0  0  0  0  0  0  0  0
   -1.4214    4.6895    7.8438 C   0  0  0  0  0  0  0  0  0  0  0  0
   -3.5638    3.3267    6.1311 C   0  0  0  0  0  0  0  0  0  0  0  0
   -4.5293    2.8517    5.2653 C   0  0  0  0  0  0  0  0  0  0  0  0
   -4.4768    1.1111    2.6852 C   0  0  0  0  0  0  0  0  0  0  0  0
   -2.9080    1.0298    3.4015 S   0  0  0  0  0  0  0  0  0  0  0  0
   -2.1521    0.9421    1.8113 C   0  0  0  0  0  0  0  0  0  0  0  0
   -3.0984    1.0042    0.7819 C   0  0  0  0  0  0  0  0  0  0  0  0
   -2.8491    0.9703   -0.5794 N   0  0  0  0  0  0  0  0  0  0  0  0
   -1.7676    1.6007   -1.1886 C   0  0  0  0  0  0  0  0  0  0  0  0
   -1.3214    1.1441   -2.4297 C   0  0  0  0  0  0  0  0  0  0  0  0
   -0.2257    1.7090   -3.0450 C   0  0  0  0  0  0  0  0  0  0  0  0
    0.4482    2.7580   -2.4352 C   0  0  0  0  0  0  0  0  0  0  0  0
    1.8840    3.5075   -3.1427 S   0  0  0  0  0  0  0  0  0  0  0  0
    1.6409    3.2331   -4.9235 C   0  0  0  0  0  0  0  0  0  0  0  0
   -0.0005    3.2347   -1.2065 C   0  0  0  0  0  0  0  0  0  0  0  0
   -1.0970    2.6708   -0.5914 C   0  0  0  0  0  0  0  0  0  0  0  0
   -3.8308    0.3312   -1.3645 C   0  0  0  0  0  0  0  0  0  0  0  0
   -4.3409   -0.8955   -0.9480 C   0  0  0  0  0  0  0  0  0  0  0  0
   -5.3846   -1.4859   -1.6285 C   0  0  0  0  0  0  0  0  0  0  0  0
   -5.9142   -0.8688   -2.7533 C   0  0  0  0  0  0  0  0  0  0  0  0
   -7.2688   -1.5725   -3.6471 S   0  0  0  0  0  0  0  0  0  0  0  0
   -8.2798   -2.2173   -2.2803 C   0  0  0  0  0  0  0  0  0  0  0  0
   -5.3690    0.3262   -3.2081 C   0  0  0  0  0  0  0  0  0  0  0  0
   -4.3435    0.9302   -2.5127 C   0  0  0  0  0  0  0  0  0  0  0  0
   -4.4130    1.0974    1.2983 C   0  0  0  0  0  0  0  0  0  0  0  0
   -5.9843    1.0965    0.5732 S   0  0  0  0  0  0  0  0  0  0  0  0
   -0.7693    0.6585    1.7302 C   0  0  0  0  0  0  0  0  0  0  0  0
   -0.1402   -0.2293    0.3548 S   0  0  0  0  0  0  0  0  0  0  0  0
    1.4268   -0.4643    1.0872 C   0  0  0  0  0  0  0  0  0  0  0  0
    1.4261    0.1264    2.3387 C   0  0  0  0  0  0  0  0  0  0  0  0
    2.6503    0.2336    3.5592 S   0  0  0  0  0  0  0  0  0  0  0  0
    1.6163    1.2772    4.5286 C   0  0  0  0  0  0  0  0  0  0  0  0
    2.1188    1.7742    5.7642 C   0  0  0  0  0  0  0  0  0  0  0  0
    3.2875    1.3668    6.3803 C   0  0  0  0  0  0  0  0  0  0  0  0
    3.5286    2.0234    7.5852 C   0  0  0  0  0  0  0  0  0  0  0  0
    2.5523    2.9420    7.8944 C   0  0  0  0  0  0  0  0  0  0  0  0
    2.4511    3.8298    9.0434 C   0  0  0  0  0  0  0  0  0  0  0  0
    1.5674    4.6430    9.1989 O   0  0  0  0  0  0  0  0  0  0  0  0
    3.4556    3.6364    9.9115 O   0  0  0  0  0  0  0  0  0  0  0  0
    3.4619    4.4662   11.0729 C   0  0  0  0  0  0  0  0  0  0  0  0
    4.0741    5.8294   10.7835 C   0  0  0  0  0  0  0  0  0  0  0  0
    1.3117    2.9916    6.6951 S   0  0  0  0  0  0  0  0  0  0  0  0
    0.4004    1.4960    3.9285 C   0  0  0  0  0  0  0  0  0  0  0  0
    0.2297    0.7989    2.6995 C   0  0  0  0  0  0  0  0  0  0  0  0
   -0.7055    2.6227    4.5827 Cl  0  0  0  0  0  0  0  0  0  0  0  0
    2.5337   -1.0518    0.4368 C   0  0  0  0  0  0  0  0  0  0  0  0
    2.6948   -1.5139   -0.8698 C   0  0  0  0  0  0  0  0  0  0  0  0
    1.7318   -1.5753   -1.8723 N   0  0  0  0  0  0  0  0  0  0  0  0
    0.5089   -2.2183   -1.7164 C   0  0  0  0  0  0  0  0  0  0  0  0
   -0.5076   -2.0117   -2.6507 C   0  0  0  0  0  0  0  0  0  0  0  0
   -1.7288   -2.6376   -2.5253 C   0  0  0  0  0  0  0  0  0  0  0  0
   -1.9628   -3.4991   -1.4618 C   0  0  0  0  0  0  0  0  0  0  0  0
   -3.4945   -4.3525   -1.2397 S   0  0  0  0  0  0  0  0  0  0  0  0
   -4.1450   -4.4612   -2.9339 C   0  0  0  0  0  0  0  0  0  0  0  0
   -0.9621   -3.7026   -0.5177 C   0  0  0  0  0  0  0  0  0  0  0  0
    0.2583   -3.0732   -0.6401 C   0  0  0  0  0  0  0  0  0  0  0  0
    2.2030   -1.2144   -3.1523 C   0  0  0  0  0  0  0  0  0  0  0  0
    2.9370   -0.0380   -3.2866 C   0  0  0  0  0  0  0  0  0  0  0  0
    3.5319    0.2833   -4.4893 C   0  0  0  0  0  0  0  0  0  0  0  0
    3.3855   -0.5613   -5.5816 C   0  0  0  0  0  0  0  0  0  0  0  0
    4.1602   -0.2227   -7.1351 S   0  0  0  0  0  0  0  0  0  0  0  0
    5.7738    0.4105   -6.5845 C   0  0  0  0  0  0  0  0  0  0  0  0
    2.6080   -1.7075   -5.4681 C   0  0  0  0  0  0  0  0  0  0  0  0
    2.0311   -2.0401   -4.2615 C   0  0  0  0  0  0  0  0  0  0  0  0
    4.0406   -1.8756   -1.1185 C   0  0  0  0  0  0  0  0  0  0  0  0
    4.8860   -2.3538   -2.5459 S   0  0  0  0  0  0  0  0  0  0  0  0
    6.3943   -2.4613   -1.6360 C   0  0  0  0  0  0  0  0  0  0  0  0
    6.2348   -2.0222   -0.2960 C   0  0  0  0  0  0  0  0  0  0  0  0
    7.2502   -1.8231    0.6000 N   0  0  0  0  0  0  0  0  0  0  0  0
    8.5610   -1.4995    0.1939 C   0  0  0  0  0  0  0  0  0  0  0  0
    8.7898   -0.6291   -0.8734 C   0  0  0  0  0  0  0  0  0  0  0  0
   10.0719   -0.4174   -1.3246 C   0  0  0  0  0  0  0  0  0  0  0  0
   11.1521   -1.0465   -0.7048 C   0  0  0  0  0  0  0  0  0  0  0  0
   12.7435   -0.7954   -1.4220 S   0  0  0  0  0  0  0  0  0  0  0  0
   13.7099   -2.1891   -0.7751 C   0  0  0  0  0  0  0  0  0  0  0  0
   10.9336   -1.8276    0.4216 C   0  0  0  0  0  0  0  0  0  0  0  0
    9.6446   -2.0588    0.8622 C   0  0  0  0  0  0  0  0  0  0  0  0
    6.9549   -1.7569    1.9747 C   0  0  0  0  0  0  0  0  0  0  0  0
    6.1628   -2.7314    2.5813 C   0  0  0  0  0  0  0  0  0  0  0  0
    5.8461   -2.6295    3.9178 C   0  0  0  0  0  0  0  0  0  0  0  0
    6.3155   -1.5584    4.6756 C   0  0  0  0  0  0  0  0  0  0  0  0
    5.8008   -1.5024    6.3607 S   0  0  0  0  0  0  0  0  0  0  0  0
    6.7790   -0.1477    7.0748 C   0  0  0  0  0  0  0  0  0  0  0  0
    7.1323   -0.6050    4.0812 C   0  0  0  0  0  0  0  0  0  0  0  0
    7.4505   -0.7078    2.7422 C   0  0  0  0  0  0  0  0  0  0  0  0
    4.8887   -1.7238   -0.0287 C   0  0  0  0  0  0  0  0  0  0  0  0
    4.0334   -1.1343    1.3591 S   0  0  0  0  0  0  0  0  0  0  0  0
    7.5835   -2.9722   -2.1554 C   0  0  0  0  0  0  0  0  0  0  0  0
    7.9565   -3.1981   -3.4620 C   0  0  0  0  0  0  0  0  0  0  0  0
    7.1826   -2.8497   -4.6536 C   0  0  0  0  0  0  0  0  0  0  0  0
    6.0341   -2.4366   -4.7083 O   0  0  0  0  0  0  0  0  0  0  0  0
    8.0770   -3.0505   -5.8057 C   0  0  0  0  0  0  0  0  0  0  0  0
    7.7746   -2.8419   -7.1484 C   0  0  0  0  0  0  0  0  0  0  0  0
    8.8194   -3.1073   -8.0014 C   0  0  0  0  0  0  0  0  0  0  0  0
   10.0687   -3.5530   -7.5516 C   0  0  0  0  0  0  0  0  0  0  0  0
   10.3751   -3.7719   -6.2283 C   0  0  0  0  0  0  0  0  0  0  0  0
    9.3296   -3.5007   -5.3433 C   0  0  0  0  0  0  0  0  0  0  0  0
    9.2685   -3.6234   -3.8867 C   0  0  0  0  0  0  0  0  0  0  0  0
   10.2972   -4.0595   -3.0866 C   0  0  0  0  0  0  0  0  0  0  0  0
   10.2145   -4.3124   -1.7052 C   0  0  0  0  0  0  0  0  0  0  0  0
   10.2508   -4.5741   -0.5854 N   0  0  0  0  0  0  0  0  0  0  0  0
   11.6053   -4.3313   -3.5332 C   0  0  0  0  0  0  0  0  0  0  0  0
   12.7033   -4.5457   -3.7951 N   0  0  0  0  0  0  0  0  0  0  0  0
   10.6412   -3.6042   -8.9461 C   0  0  0  0  0  0  0  0  0  0  0  0
   11.5893   -2.4579   -9.3774 C   0  0  0  0  0  0  0  0  0  0  0  0
   11.2073   -1.2528   -8.5544 C   0  0  0  0  0  0  0  0  0  0  0  0
   10.0243   -0.8308   -8.9804 C   0  0  0  0  0  0  0  0  0  0  0  0
    9.5844   -1.7432  -10.0985 C   0  0  0  0  0  0  0  0  0  0  0  0
   10.9475   -2.0821  -10.7226 C   0  0  0  0  0  0  0  0  0  0  0  0
    9.2483   -3.1078   -9.4471 C   0  0  0  0  0  0  0  0  0  0  0  0
   -8.3402    1.6849    3.4086 H   0  0  0  0  0  0  0  0  0  0  0  0
  -10.2316    0.4188   -2.4421 H   0  0  0  0  0  0  0  0  0  0  0  0
  -13.3726    2.0140    1.1982 H   0  0  0  0  0  0  0  0  0  0  0  0
  -15.1458    0.6324   -1.3891 H   0  0  0  0  0  0  0  0  0  0  0  0
  -15.3266    3.2860   -1.5273 H   0  0  0  0  0  0  0  0  0  0  0  0
  -16.8063    2.2523   -3.4368 H   0  0  0  0  0  0  0  0  0  0  0  0
  -15.1915    1.4173   -5.3743 H   0  0  0  0  0  0  0  0  0  0  0  0
  -12.7176    1.9366   -4.6577 H   0  0  0  0  0  0  0  0  0  0  0  0
  -12.7772    3.3502   -2.3735 H   0  0  0  0  0  0  0  0  0  0  0  0
  -13.8597    4.0705   -3.5867 H   0  0  0  0  0  0  0  0  0  0  0  0
  -13.5645   -0.1873   -3.2896 H   0  0  0  0  0  0  0  0  0  0  0  0
   -7.4241    1.8420    6.6839 H   0  0  0  0  0  0  0  0  0  0  0  0
   -9.4013    0.7053    7.6097 H   0  0  0  0  0  0  0  0  0  0  0  0
  -11.5068   -2.4430    4.7160 H   0  0  0  0  0  0  0  0  0  0  0  0
  -12.2706   -3.2582    6.0978 H   0  0  0  0  0  0  0  0  0  0  0  0
  -10.5834   -3.6342    5.6900 H   0  0  0  0  0  0  0  0  0  0  0  0
   -9.1511   -2.2356    4.5110 H   0  0  0  0  0  0  0  0  0  0  0  0
   -7.1858   -1.1217    3.6095 H   0  0  0  0  0  0  0  0  0  0  0  0
   -5.1150   -0.1619    6.6839 H   0  0  0  0  0  0  0  0  0  0  0  0
   -3.3732    0.6789    8.2163 H   0  0  0  0  0  0  0  0  0  0  0  0
   -2.2537    5.3648    8.0197 H   0  0  0  0  0  0  0  0  0  0  0  0
   -1.1103    4.6998    6.8038 H   0  0  0  0  0  0  0  0  0  0  0  0
   -0.5769    4.9521    8.4751 H   0  0  0  0  0  0  0  0  0  0  0  0
   -3.1561    4.3110    5.9677 H   0  0  0  0  0  0  0  0  0  0  0  0
   -4.8599    3.4644    4.4392 H   0  0  0  0  0  0  0  0  0  0  0  0
   -1.8366    0.3244   -2.9027 H   0  0  0  0  0  0  0  0  0  0  0  0
    0.1071    1.3155   -3.9927 H   0  0  0  0  0  0  0  0  0  0  0  0
    1.8519    2.1996   -5.1839 H   0  0  0  0  0  0  0  0  0  0  0  0
    0.6250    3.5066   -5.1910 H   0  0  0  0  0  0  0  0  0  0  0  0
    2.3460    3.8897   -5.4238 H   0  0  0  0  0  0  0  0  0  0  0  0
    0.5183    4.0583   -0.7403 H   0  0  0  0  0  0  0  0  0  0  0  0
   -1.4395    3.0633    0.3539 H   0  0  0  0  0  0  0  0  0  0  0  0
   -3.9234   -1.3797   -0.0775 H   0  0  0  0  0  0  0  0  0  0  0  0
   -5.7803   -2.4234   -1.2719 H   0  0  0  0  0  0  0  0  0  0  0  0
   -9.2805   -2.3559   -2.6777 H   0  0  0  0  0  0  0  0  0  0  0  0
   -7.8898   -3.1689   -1.9307 H   0  0  0  0  0  0  0  0  0  0  0  0
   -8.2824   -1.4747   -1.4878 H   0  0  0  0  0  0  0  0  0  0  0  0
   -5.7809    0.7931   -4.0892 H   0  0  0  0  0  0  0  0  0  0  0  0
   -3.9545    1.8835   -2.8383 H   0  0  0  0  0  0  0  0  0  0  0  0
    3.9168    0.6006    5.9635 H   0  0  0  0  0  0  0  0  0  0  0  0
    4.3766    1.8455    8.2206 H   0  0  0  0  0  0  0  0  0  0  0  0
    4.0525    3.9159   11.8082 H   0  0  0  0  0  0  0  0  0  0  0  0
    2.4335    4.5824   11.4308 H   0  0  0  0  0  0  0  0  0  0  0  0
    5.0784    5.7143   10.3825 H   0  0  0  0  0  0  0  0  0  0  0  0
    3.4632    6.3639   10.0602 H   0  0  0  0  0  0  0  0  0  0  0  0
    4.1211    6.4089   11.7008 H   0  0  0  0  0  0  0  0  0  0  0  0
   -0.3315   -1.3525   -3.4856 H   0  0  0  0  0  0  0  0  0  0  0  0
   -2.4965   -2.4443   -3.2583 H   0  0  0  0  0  0  0  0  0  0  0  0
   -4.9472   -5.1919   -2.8978 H   0  0  0  0  0  0  0  0  0  0  0  0
   -4.5369   -3.5010   -3.2574 H   0  0  0  0  0  0  0  0  0  0  0  0
   -3.3582   -4.8072   -3.5969 H   0  0  0  0  0  0  0  0  0  0  0  0
   -1.1465   -4.3702    0.3100 H   0  0  0  0  0  0  0  0  0  0  0  0
    1.0314   -3.2618    0.0892 H   0  0  0  0  0  0  0  0  0  0  0  0
    3.0546    0.6167   -2.4352 H   0  0  0  0  0  0  0  0  0  0  0  0
    4.1173    1.1867   -4.5637 H   0  0  0  0  0  0  0  0  0  0  0  0
    6.1212   -0.2177   -5.7703 H   0  0  0  0  0  0  0  0  0  0  0  0
    6.4411    0.3300   -7.4369 H   0  0  0  0  0  0  0  0  0  0  0  0
    5.6956    1.4495   -6.2775 H   0  0  0  0  0  0  0  0  0  0  0  0
    2.4954   -2.3551   -6.3234 H   0  0  0  0  0  0  0  0  0  0  0  0
    1.4786   -2.9624   -4.1631 H   0  0  0  0  0  0  0  0  0  0  0  0
    7.9556   -0.1496   -1.3634 H   0  0  0  0  0  0  0  0  0  0  0  0
   10.2554    0.2303   -2.1681 H   0  0  0  0  0  0  0  0  0  0  0  0
   13.9819   -2.0125    0.2616 H   0  0  0  0  0  0  0  0  0  0  0  0
   13.1387   -3.1062   -0.8841 H   0  0  0  0  0  0  0  0  0  0  0  0
   14.6042   -2.2367   -1.3883 H   0  0  0  0  0  0  0  0  0  0  0  0
   11.7539   -2.2888    0.9457 H   0  0  0  0  0  0  0  0  0  0  0  0
    9.4743   -2.7032    1.7105 H   0  0  0  0  0  0  0  0  0  0  0  0
    5.8041   -3.5668    1.9994 H   0  0  0  0  0  0  0  0  0  0  0  0
    5.2288   -3.3771    4.3909 H   0  0  0  0  0  0  0  0  0  0  0  0
    6.5412   -0.1472    8.1340 H   0  0  0  0  0  0  0  0  0  0  0  0
    7.8375   -0.3456    6.9353 H   0  0  0  0  0  0  0  0  0  0  0  0
    6.4915    0.8015    6.6318 H   0  0  0  0  0  0  0  0  0  0  0  0
    7.5159    0.2305    4.6436 H   0  0  0  0  0  0  0  0  0  0  0  0
    8.0752    0.0417    2.2794 H   0  0  0  0  0  0  0  0  0  0  0  0
    8.3360   -3.1893   -1.4088 H   0  0  0  0  0  0  0  0  0  0  0  0
    6.7949   -2.5081   -7.4533 H   0  0  0  0  0  0  0  0  0  0  0  0
   11.3399   -4.1210   -5.8995 H   0  0  0  0  0  0  0  0  0  0  0  0
   10.9877   -4.5785   -9.2849 H   0  0  0  0  0  0  0  0  0  0  0  0
   12.6435   -2.7214   -9.3810 H   0  0  0  0  0  0  0  0  0  0  0  0
   11.7913   -0.8784   -7.7341 H   0  0  0  0  0  0  0  0  0  0  0  0
    9.4237   -0.0314   -8.5868 H   0  0  0  0  0  0  0  0  0  0  0  0
    8.8131   -1.3562  -10.7594 H   0  0  0  0  0  0  0  0  0  0  0  0
   10.9069   -2.9092  -11.4301 H   0  0  0  0  0  0  0  0  0  0  0  0
   11.4227   -1.2210  -11.1902 H   0  0  0  0  0  0  0  0  0  0  0  0
    8.6847   -3.7580  -10.1134 H   0  0  0  0  0  0  0  0  0  0  0  0
  1  2  2  0  0  0  0
  2  3  1  0  0  0  0
  3  4  2  0  0  0  0
  3  5  1  0  0  0  0
  5  6  2  0  0  0  0
  6  7  1  0  0  0  0
  7  8  2  0  0  0  0
  8  9  1  0  0  0  0
  9 10  2  0  0  0  0
 10 11  1  0  0  0  0
 11 12  2  0  0  0  0
 12 13  1  0  0  0  0
 13 14  3  0  0  0  0
 12 15  1  0  0  0  0
 15 16  3  0  0  0  0
  8 17  1  0  0  0  0
 17 18  1  0  0  0  0
 18 19  1  0  0  0  0
 19 20  2  0  0  0  0
 20 21  1  0  0  0  0
 21 22  1  0  0  0  0
 21 23  1  0  0  0  0
  1 24  1  0  0  0  0
 24 25  2  0  0  0  0
 25 26  1  0  0  0  0
 26 27  1  0  0  0  0
 27 28  2  0  0  0  0
 28 29  1  0  0  0  0
 29 30  2  0  0  0  0
 30 31  1  0  0  0  0
 31 32  1  0  0  0  0
 30 33  1  0  0  0  0
 33 34  2  0  0  0  0
 26 35  1  0  0  0  0
 35 36  2  0  0  0  0
 36 37  1  0  0  0  0
 37 38  2  0  0  0  0
 38 39  1  0  0  0  0
 39 40  1  0  0  0  0
 38 41  1  0  0  0  0
 41 42  2  0  0  0  0
 25 43  1  0  0  0  0
 43 44  1  0  0  0  0
 44 45  1  0  0  0  0
 45 46  2  0  0  0  0
 46 47  1  0  0  0  0
 47 48  1  0  0  0  0
 48 49  2  0  0  0  0
 49 50  1  0  0  0  0
 50 51  2  0  0  0  0
 51 52  1  0  0  0  0
 52 53  1  0  0  0  0
 51 54  1  0  0  0  0
 54 55  2  0  0  0  0
 47 56  1  0  0  0  0
 56 57  2  0  0  0  0
 57 58  1  0  0  0  0
 58 59  2  0  0  0  0
 59 60  1  0  0  0  0
 60 61  1  0  0  0  0
 59 62  1  0  0  0  0
 62 63  2  0  0  0  0
 46 64  1  0  0  0  0
 64 65  1  0  0  0  0
 45 66  1  0  0  0  0
 66 67  1  0  0  0  0
 67 68  1  0  0  0  0
 68 69  2  0  0  0  0
 69 70  1  0  0  0  0
 70 71  1  0  0  0  0
 71 72  1  0  0  0  0
 72 73  2  0  0  0  0
 73 74  1  0  0  0  0
 74 75  2  0  0  0  0
 75 76  1  0  0  0  0
 76 77  2  0  0  0  0
 76 78  1  0  0  0  0
 78 79  1  0  0  0  0
 79 80  1  0  0  0  0
 75 81  1  0  0  0  0
 71 82  2  0  0  0  0
 82 83  1  0  0  0  0
 82 84  1  0  0  0  0
 68 85  1  0  0  0  0
 85 86  2  0  0  0  0
 86 87  1  0  0  0  0
 87 88  1  0  0  0  0
 88 89  2  0  0  0  0
 89 90  1  0  0  0  0
 90 91  2  0  0  0  0
 91 92  1  0  0  0  0
 92 93  1  0  0  0  0
 91 94  1  0  0  0  0
 94 95  2  0  0  0  0
 87 96  1  0  0  0  0
 96 97  2  0  0  0  0
 97 98  1  0  0  0  0
 98 99  2  0  0  0  0
 99100  1  0  0  0  0
100101  1  0  0  0  0
 99102  1  0  0  0  0
102103  2  0  0  0  0
 86104  1  0  0  0  0
104105  1  0  0  0  0
105106  1  0  0  0  0
106107  2  0  0  0  0
107108  1  0  0  0  0
108109  1  0  0  0  0
109110  2  0  0  0  0
110111  1  0  0  0  0
111112  2  0  0  0  0
112113  1  0  0  0  0
113114  1  0  0  0  0
112115  1  0  0  0  0
115116  2  0  0  0  0
108117  1  0  0  0  0
117118  2  0  0  0  0
118119  1  0  0  0  0
119120  2  0  0  0  0
120121  1  0  0  0  0
121122  1  0  0  0  0
120123  1  0  0  0  0
123124  2  0  0  0  0
107125  1  0  0  0  0
125126  1  0  0  0  0
106127  1  0  0  0  0
127128  2  0  0  0  0
128129  1  0  0  0  0
129130  2  0  0  0  0
129131  1  0  0  0  0
131132  2  0  0  0  0
132133  1  0  0  0  0
133134  2  0  0  0  0
134135  1  0  0  0  0
135136  2  0  0  0  0
136137  1  0  0  0  0
137138  2  0  0  0  0
138139  1  0  0  0  0
139140  3  0  0  0  0
138141  1  0  0  0  0
141142  3  0  0  0  0
134143  1  0  0  0  0
143144  1  0  0  0  0
144145  1  0  0  0  0
145146  2  0  0  0  0
146147  1  0  0  0  0
147148  1  0  0  0  0
147149  1  0  0  0  0
 11  2  1  0  0  0  0
 23 17  1  0  0  0  0
 65 24  1  0  0  0  0
 83 66  2  0  0  0  0
126 85  1  0  0  0  0
137128  1  0  0  0  0
149143  1  0  0  0  0
 10  5  1  0  0  0  0
 22 18  1  0  0  0  0
 34 27  1  0  0  0  0
 42 35  1  0  0  0  0
 64 43  2  0  0  0  0
 83 69  1  0  0  0  0
 95 88  1  0  0  0  0
103 96  1  0  0  0  0
125104  2  0  0  0  0
136131  1  0  0  0  0
148144  1  0  0  0  0
 23  7  1  0  0  0  0
 55 48  1  0  0  0  0
 63 56  1  0  0  0  0
 81 72  1  0  0  0  0
116109  1  0  0  0  0
124117  1  0  0  0  0
149133  1  0  0  0  0
  1150  1  0  0  0  0
  6151  1  0  0  0  0
  9152  1  0  0  0  0
 17153  1  0  0  0  0
 18154  1  0  0  0  0
 19155  1  0  0  0  0
 20156  1  0  0  0  0
 21157  1  0  0  0  0
 22158  1  0  0  0  0
 22159  1  0  0  0  0
 23160  1  0  0  0  0
 28161  1  0  0  0  0
 29162  1  0  0  0  0
 32163  1  0  0  0  0
 32164  1  0  0  0  0
 32165  1  0  0  0  0
 33166  1  0  0  0  0
 34167  1  0  0  0  0
 36168  1  0  0  0  0
 37169  1  0  0  0  0
 40170  1  0  0  0  0
 40171  1  0  0  0  0
 40172  1  0  0  0  0
 41173  1  0  0  0  0
 42174  1  0  0  0  0
 49175  1  0  0  0  0
 50176  1  0  0  0  0
 53177  1  0  0  0  0
 53178  1  0  0  0  0
 53179  1  0  0  0  0
 54180  1  0  0  0  0
 55181  1  0  0  0  0
 57182  1  0  0  0  0
 58183  1  0  0  0  0
 61184  1  0  0  0  0
 61185  1  0  0  0  0
 61186  1  0  0  0  0
 62187  1  0  0  0  0
 63188  1  0  0  0  0
 73189  1  0  0  0  0
 74190  1  0  0  0  0
 79191  1  0  0  0  0
 79192  1  0  0  0  0
 80193  1  0  0  0  0
 80194  1  0  0  0  0
 80195  1  0  0  0  0
 89196  1  0  0  0  0
 90197  1  0  0  0  0
 93198  1  0  0  0  0
 93199  1  0  0  0  0
 93200  1  0  0  0  0
 94201  1  0  0  0  0
 95202  1  0  0  0  0
 97203  1  0  0  0  0
 98204  1  0  0  0  0
101205  1  0  0  0  0
101206  1  0  0  0  0
101207  1  0  0  0  0
102208  1  0  0  0  0
103209  1  0  0  0  0
110210  1  0  0  0  0
111211  1  0  0  0  0
114212  1  0  0  0  0
114213  1  0  0  0  0
114214  1  0  0  0  0
115215  1  0  0  0  0
116216  1  0  0  0  0
118217  1  0  0  0  0
119218  1  0  0  0  0
122219  1  0  0  0  0
122220  1  0  0  0  0
122221  1  0  0  0  0
123222  1  0  0  0  0
124223  1  0  0  0  0
127224  1  0  0  0  0
132225  1  0  0  0  0
135226  1  0  0  0  0
143227  1  0  0  0  0
144228  1  0  0  0  0
145229  1  0  0  0  0
146230  1  0  0  0  0
147231  1  0  0  0  0
148232  1  0  0  0  0
148233  1  0  0  0  0
149234  1  0  0  0  0
M  END
