
  xtb     02132206373D
 energy: -364.328635154948 gnorm: 0.000637659100 xtb: 6.4.1 (unknown)
219242  0     0  0            999 V2000
   -5.5621   -1.3097    5.7830 C   0  0  0  0  0  0  0  0  0  0  0  0
   -6.3858   -2.3772    6.0673 C   0  0  0  0  0  0  0  0  0  0  0  0
   -7.1626   -3.1636    5.1094 C   0  0  0  0  0  0  0  0  0  0  0  0
   -7.1601   -3.0797    3.8898 O   0  0  0  0  0  0  0  0  0  0  0  0
   -7.9942   -4.0850    5.9053 C   0  0  0  0  0  0  0  0  0  0  0  0
   -8.8807   -5.0471    5.4289 C   0  0  0  0  0  0  0  0  0  0  0  0
   -9.5021   -5.7743    6.4159 C   0  0  0  0  0  0  0  0  0  0  0  0
   -9.2618   -5.5597    7.7785 C   0  0  0  0  0  0  0  0  0  0  0  0
   -8.3901   -4.6120    8.2620 C   0  0  0  0  0  0  0  0  0  0  0  0
   -7.7464   -3.8632    7.2745 C   0  0  0  0  0  0  0  0  0  0  0  0
   -6.7352   -2.8134    7.3978 C   0  0  0  0  0  0  0  0  0  0  0  0
   -6.2197   -2.3524    8.5858 C   0  0  0  0  0  0  0  0  0  0  0  0
   -5.1396   -1.4625    8.7293 C   0  0  0  0  0  0  0  0  0  0  0  0
   -4.2454   -0.7767    8.9626 N   0  0  0  0  0  0  0  0  0  0  0  0
   -6.6849   -2.7236    9.8630 C   0  0  0  0  0  0  0  0  0  0  0  0
   -7.0140   -2.9426   10.9419 N   0  0  0  0  0  0  0  0  0  0  0  0
  -10.2046   -6.6590    8.1997 C   0  0  0  0  0  0  0  0  0  0  0  0
   -9.5852   -8.0038    8.6546 C   0  0  0  0  0  0  0  0  0  0  0  0
   -8.2488   -8.1166    7.9640 C   0  0  0  0  0  0  0  0  0  0  0  0
   -8.4759   -8.3198    6.6731 C   0  0  0  0  0  0  0  0  0  0  0  0
   -9.9703   -8.3481    6.4677 C   0  0  0  0  0  0  0  0  0  0  0  0
  -10.4146   -8.9747    7.7989 C   0  0  0  0  0  0  0  0  0  0  0  0
  -10.4723   -6.8982    6.6801 C   0  0  0  0  0  0  0  0  0  0  0  0
   -5.1634   -0.7669    4.5641 C   0  0  0  0  0  0  0  0  0  0  0  0
   -4.3852    0.4142    4.4474 C   0  0  0  0  0  0  0  0  0  0  0  0
   -4.1277    1.3104    5.4469 N   0  0  0  0  0  0  0  0  0  0  0  0
   -5.0132    1.5451    6.5144 C   0  0  0  0  0  0  0  0  0  0  0  0
   -6.3965    1.5157    6.3260 C   0  0  0  0  0  0  0  0  0  0  0  0
   -7.2404    1.6620    7.4024 C   0  0  0  0  0  0  0  0  0  0  0  0
   -6.7243    1.8642    8.6826 C   0  0  0  0  0  0  0  0  0  0  0  0
   -7.8805    1.9485   10.0121 S   0  0  0  0  0  0  0  0  0  0  0  0
   -6.8614    1.5472   11.4607 C   0  0  0  0  0  0  0  0  0  0  0  0
   -5.3530    1.9875    8.8553 C   0  0  0  0  0  0  0  0  0  0  0  0
   -4.5032    1.8198    7.7793 C   0  0  0  0  0  0  0  0  0  0  0  0
   -2.9996    2.1490    5.3262 C   0  0  0  0  0  0  0  0  0  0  0  0
   -3.1310    3.5273    5.4550 C   0  0  0  0  0  0  0  0  0  0  0  0
   -2.0423    4.3554    5.2632 C   0  0  0  0  0  0  0  0  0  0  0  0
   -0.8036    3.8119    4.9466 C   0  0  0  0  0  0  0  0  0  0  0  0
    0.6376    4.7690    4.6016 S   0  0  0  0  0  0  0  0  0  0  0  0
    0.1150    6.4832    4.8966 C   0  0  0  0  0  0  0  0  0  0  0  0
   -0.6599    2.4278    4.8703 C   0  0  0  0  0  0  0  0  0  0  0  0
   -1.7455    1.6028    5.0595 C   0  0  0  0  0  0  0  0  0  0  0  0
   -3.9348    0.5778    3.1258 C   0  0  0  0  0  0  0  0  0  0  0  0
   -2.9163    1.7164    2.3303 S   0  0  0  0  0  0  0  0  0  0  0  0
   -3.1139    0.9004    0.7707 C   0  0  0  0  0  0  0  0  0  0  0  0
   -3.9642   -0.1999    0.8903 C   0  0  0  0  0  0  0  0  0  0  0  0
   -4.5099   -1.0333   -0.0900 N   0  0  0  0  0  0  0  0  0  0  0  0
   -5.8980   -1.2413    0.0714 C   0  0  0  0  0  0  0  0  0  0  0  0
   -6.4283   -2.5243    0.1775 C   0  0  0  0  0  0  0  0  0  0  0  0
   -7.7585   -2.7027    0.4921 C   0  0  0  0  0  0  0  0  0  0  0  0
   -8.5737   -1.6009    0.7178 C   0  0  0  0  0  0  0  0  0  0  0  0
  -10.2501   -1.7706    1.2462 S   0  0  0  0  0  0  0  0  0  0  0  0
  -10.1399   -3.2706    2.2695 C   0  0  0  0  0  0  0  0  0  0  0  0
   -8.0652   -0.3180    0.5447 C   0  0  0  0  0  0  0  0  0  0  0  0
   -6.7371   -0.1392    0.2234 C   0  0  0  0  0  0  0  0  0  0  0  0
   -3.7888   -1.8688   -0.9215 C   0  0  0  0  0  0  0  0  0  0  0  0
   -4.3903   -2.3843   -2.0785 C   0  0  0  0  0  0  0  0  0  0  0  0
   -3.6661   -3.1549   -2.9544 C   0  0  0  0  0  0  0  0  0  0  0  0
   -2.3287   -3.4525   -2.6923 C   0  0  0  0  0  0  0  0  0  0  0  0
   -1.4402   -4.3905   -3.9003 S   0  0  0  0  0  0  0  0  0  0  0  0
    0.2636   -3.7919   -3.6855 C   0  0  0  0  0  0  0  0  0  0  0  0
   -1.7556   -3.0236   -1.5028 C   0  0  0  0  0  0  0  0  0  0  0  0
   -2.4743   -2.2343   -0.6296 C   0  0  0  0  0  0  0  0  0  0  0  0
   -4.4074   -0.3685    2.2323 C   0  0  0  0  0  0  0  0  0  0  0  0
   -5.4407   -1.5287    2.9949 S   0  0  0  0  0  0  0  0  0  0  0  0
   -2.2710    1.4473   -0.2561 C   0  0  0  0  0  0  0  0  0  0  0  0
   -1.5544    2.6193    0.0017 C   0  0  0  0  0  0  0  0  0  0  0  0
   -0.4459    3.0209   -0.7276 C   0  0  0  0  0  0  0  0  0  0  0  0
    0.0836    2.2306   -1.7346 C   0  0  0  0  0  0  0  0  0  0  0  0
   -0.7322    1.1659   -2.1792 C   0  0  0  0  0  0  0  0  0  0  0  0
   -0.5625    0.4495   -3.2894 N   0  0  0  0  0  0  0  0  0  0  0  0
   -1.8646   -0.4755   -3.5125 S   0  0  0  0  0  0  0  0  0  0  0  0
   -2.6788   -0.0396   -2.1942 N   0  0  0  0  0  0  0  0  0  0  0  0
   -1.9644    0.8403   -1.5046 C   0  0  0  0  0  0  0  0  0  0  0  0
    1.3995    2.4312   -2.2793 C   0  0  0  0  0  0  0  0  0  0  0  0
    2.3492    1.4443   -2.4766 C   0  0  0  0  0  0  0  0  0  0  0  0
    2.2489    0.1324   -2.0339 N   0  0  0  0  0  0  0  0  0  0  0  0
    2.9217   -0.8349   -2.8023 C   0  0  0  0  0  0  0  0  0  0  0  0
    3.7883   -1.7553   -2.2157 C   0  0  0  0  0  0  0  0  0  0  0  0
    4.5191   -2.6143   -3.0071 C   0  0  0  0  0  0  0  0  0  0  0  0
    4.4048   -2.5606   -4.3918 C   0  0  0  0  0  0  0  0  0  0  0  0
    5.4291   -3.6304   -5.3567 S   0  0  0  0  0  0  0  0  0  0  0  0
    5.8145   -2.5551   -6.7726 C   0  0  0  0  0  0  0  0  0  0  0  0
    3.5033   -1.6824   -4.9768 C   0  0  0  0  0  0  0  0  0  0  0  0
    2.7662   -0.8254   -4.1859 C   0  0  0  0  0  0  0  0  0  0  0  0
    1.6689   -0.1884   -0.8092 C   0  0  0  0  0  0  0  0  0  0  0  0
    1.2087   -1.4822   -0.5734 C   0  0  0  0  0  0  0  0  0  0  0  0
    0.5733   -1.8118    0.6078 C   0  0  0  0  0  0  0  0  0  0  0  0
    0.3383   -0.8388    1.5671 C   0  0  0  0  0  0  0  0  0  0  0  0
   -0.6035   -1.1073    3.0396 S   0  0  0  0  0  0  0  0  0  0  0  0
   -0.9348   -2.8925    3.0541 C   0  0  0  0  0  0  0  0  0  0  0  0
    0.8496    0.4409    1.3709 C   0  0  0  0  0  0  0  0  0  0  0  0
    1.5320    0.7525    0.2169 C   0  0  0  0  0  0  0  0  0  0  0  0
    3.5213    1.9735   -3.0692 C   0  0  0  0  0  0  0  0  0  0  0  0
    4.9552    1.2657   -3.7144 S   0  0  0  0  0  0  0  0  0  0  0  0
    5.6026    2.8704   -4.0669 C   0  0  0  0  0  0  0  0  0  0  0  0
    4.6690    3.8945   -3.7663 C   0  0  0  0  0  0  0  0  0  0  0  0
    4.8674    5.2415   -3.9338 N   0  0  0  0  0  0  0  0  0  0  0  0
    4.2827    6.1049   -2.9882 C   0  0  0  0  0  0  0  0  0  0  0  0
    4.3574    5.7915   -1.6339 C   0  0  0  0  0  0  0  0  0  0  0  0
    3.7438    6.5885   -0.6889 C   0  0  0  0  0  0  0  0  0  0  0  0
    3.0502    7.7235   -1.0871 C   0  0  0  0  0  0  0  0  0  0  0  0
    2.2014    8.7992    0.0218 S   0  0  0  0  0  0  0  0  0  0  0  0
    2.3458    7.9753    1.6346 C   0  0  0  0  0  0  0  0  0  0  0  0
    3.0051    8.0605   -2.4397 C   0  0  0  0  0  0  0  0  0  0  0  0
    3.6119    7.2613   -3.3824 C   0  0  0  0  0  0  0  0  0  0  0  0
    5.5483    5.7798   -5.0362 C   0  0  0  0  0  0  0  0  0  0  0  0
    5.4643    5.1724   -6.2868 C   0  0  0  0  0  0  0  0  0  0  0  0
    6.1464    5.6925   -7.3682 C   0  0  0  0  0  0  0  0  0  0  0  0
    6.9136    6.8416   -7.2195 C   0  0  0  0  0  0  0  0  0  0  0  0
    7.8305    7.5967   -8.5229 S   0  0  0  0  0  0  0  0  0  0  0  0
    7.6592    6.4385   -9.9113 C   0  0  0  0  0  0  0  0  0  0  0  0
    6.9752    7.4672   -5.9758 C   0  0  0  0  0  0  0  0  0  0  0  0
    6.3057    6.9429   -4.8935 C   0  0  0  0  0  0  0  0  0  0  0  0
    3.4952    3.3547   -3.2133 C   0  0  0  0  0  0  0  0  0  0  0  0
    1.9908    4.0324   -2.6698 S   0  0  0  0  0  0  0  0  0  0  0  0
    6.9220    3.1129   -4.4426 C   0  0  0  0  0  0  0  0  0  0  0  0
    7.9242    2.2256   -4.7700 C   0  0  0  0  0  0  0  0  0  0  0  0
    7.7631    0.7946   -5.0207 C   0  0  0  0  0  0  0  0  0  0  0  0
    6.7390    0.1302   -4.9492 O   0  0  0  0  0  0  0  0  0  0  0  0
    9.0796    0.2953   -5.4507 C   0  0  0  0  0  0  0  0  0  0  0  0
    9.4137   -1.0174   -5.7751 C   0  0  0  0  0  0  0  0  0  0  0  0
   10.7288   -1.1844   -6.1376 C   0  0  0  0  0  0  0  0  0  0  0  0
   11.6422   -0.1237   -6.1772 C   0  0  0  0  0  0  0  0  0  0  0  0
   11.3246    1.1760   -5.8570 C   0  0  0  0  0  0  0  0  0  0  0  0
    9.9924    1.3685   -5.4819 C   0  0  0  0  0  0  0  0  0  0  0  0
    9.2961    2.5809   -5.0468 C   0  0  0  0  0  0  0  0  0  0  0  0
    9.8758    3.8181   -4.8959 C   0  0  0  0  0  0  0  0  0  0  0  0
    9.2466    4.9572   -4.3572 C   0  0  0  0  0  0  0  0  0  0  0  0
    8.8231    5.9195   -3.8910 N   0  0  0  0  0  0  0  0  0  0  0  0
   11.2106    4.1187   -5.2330 C   0  0  0  0  0  0  0  0  0  0  0  0
   12.2807    4.4381   -5.5023 N   0  0  0  0  0  0  0  0  0  0  0  0
   12.7804   -1.0147   -6.6103 C   0  0  0  0  0  0  0  0  0  0  0  0
   13.8035   -1.4029   -5.5221 C   0  0  0  0  0  0  0  0  0  0  0  0
   14.4905   -2.6238   -6.0902 C   0  0  0  0  0  0  0  0  0  0  0  0
   13.6249   -3.6287   -6.0512 C   0  0  0  0  0  0  0  0  0  0  0  0
   12.3381   -3.1039   -5.4563 C   0  0  0  0  0  0  0  0  0  0  0  0
   12.9041   -2.0707   -4.4737 C   0  0  0  0  0  0  0  0  0  0  0  0
   11.7611   -2.1981   -6.5647 C   0  0  0  0  0  0  0  0  0  0  0  0
   -5.1526   -0.7976    6.6441 H   0  0  0  0  0  0  0  0  0  0  0  0
   -9.0353   -5.1903    4.3708 H   0  0  0  0  0  0  0  0  0  0  0  0
   -8.2133   -4.4612    9.3139 H   0  0  0  0  0  0  0  0  0  0  0  0
  -11.0429   -6.3564    8.8239 H   0  0  0  0  0  0  0  0  0  0  0  0
   -9.5840   -8.1592    9.7300 H   0  0  0  0  0  0  0  0  0  0  0  0
   -7.3052   -7.9837    8.4601 H   0  0  0  0  0  0  0  0  0  0  0  0
   -7.7598   -8.3902    5.8753 H   0  0  0  0  0  0  0  0  0  0  0  0
  -10.3202   -8.8178    5.5519 H   0  0  0  0  0  0  0  0  0  0  0  0
  -11.4868   -8.9021    7.9762 H   0  0  0  0  0  0  0  0  0  0  0  0
  -10.0934  -10.0099    7.9051 H   0  0  0  0  0  0  0  0  0  0  0  0
  -11.4862   -6.7521    6.3123 H   0  0  0  0  0  0  0  0  0  0  0  0
   -6.8015    1.3493    5.3390 H   0  0  0  0  0  0  0  0  0  0  0  0
   -8.3101    1.6147    7.2683 H   0  0  0  0  0  0  0  0  0  0  0  0
   -7.5603    1.3150   12.2581 H   0  0  0  0  0  0  0  0  0  0  0  0
   -6.2482    0.6786   11.2399 H   0  0  0  0  0  0  0  0  0  0  0  0
   -6.2513    2.4002   11.7435 H   0  0  0  0  0  0  0  0  0  0  0  0
   -4.9304    2.1831    9.8266 H   0  0  0  0  0  0  0  0  0  0  0  0
   -3.4357    1.8742    7.9247 H   0  0  0  0  0  0  0  0  0  0  0  0
   -4.0967    3.9527    5.6848 H   0  0  0  0  0  0  0  0  0  0  0  0
   -2.1799    5.4211    5.3475 H   0  0  0  0  0  0  0  0  0  0  0  0
    1.0024    7.0891    4.7412 H   0  0  0  0  0  0  0  0  0  0  0  0
   -0.2305    6.5937    5.9200 H   0  0  0  0  0  0  0  0  0  0  0  0
   -0.6552    6.7674    4.1853 H   0  0  0  0  0  0  0  0  0  0  0  0
    0.3098    2.0066    4.6558 H   0  0  0  0  0  0  0  0  0  0  0  0
   -1.6302    0.5328    4.9908 H   0  0  0  0  0  0  0  0  0  0  0  0
   -5.7859   -3.3820    0.0473 H   0  0  0  0  0  0  0  0  0  0  0  0
   -8.1466   -3.7033    0.5889 H   0  0  0  0  0  0  0  0  0  0  0  0
   -9.1881   -3.2548    2.7933 H   0  0  0  0  0  0  0  0  0  0  0  0
  -10.9642   -3.2209    2.9745 H   0  0  0  0  0  0  0  0  0  0  0  0
  -10.2385   -4.1587    1.6511 H   0  0  0  0  0  0  0  0  0  0  0  0
   -8.7142    0.5320    0.6891 H   0  0  0  0  0  0  0  0  0  0  0  0
   -6.3299    0.8558    0.1186 H   0  0  0  0  0  0  0  0  0  0  0  0
   -5.4129   -2.1257   -2.3041 H   0  0  0  0  0  0  0  0  0  0  0  0
   -4.1163   -3.5199   -3.8645 H   0  0  0  0  0  0  0  0  0  0  0  0
    0.7251   -4.2547   -2.8177 H   0  0  0  0  0  0  0  0  0  0  0  0
    0.2574   -2.7087   -3.6011 H   0  0  0  0  0  0  0  0  0  0  0  0
    0.8028   -4.0897   -4.5791 H   0  0  0  0  0  0  0  0  0  0  0  0
   -0.7426   -3.2976   -1.2628 H   0  0  0  0  0  0  0  0  0  0  0  0
   -2.0124   -1.8573    0.2699 H   0  0  0  0  0  0  0  0  0  0  0  0
   -1.8269    3.2169    0.8583 H   0  0  0  0  0  0  0  0  0  0  0  0
    0.0848    3.9138   -0.4319 H   0  0  0  0  0  0  0  0  0  0  0  0
    3.9119   -1.7664   -1.1427 H   0  0  0  0  0  0  0  0  0  0  0  0
    5.2122   -3.3112   -2.5617 H   0  0  0  0  0  0  0  0  0  0  0  0
    6.6929   -2.9806   -7.2483 H   0  0  0  0  0  0  0  0  0  0  0  0
    6.0267   -1.5592   -6.3938 H   0  0  0  0  0  0  0  0  0  0  0  0
    4.9897   -2.5433   -7.4792 H   0  0  0  0  0  0  0  0  0  0  0  0
    3.3776   -1.6556   -6.0474 H   0  0  0  0  0  0  0  0  0  0  0  0
    2.0659   -0.1337   -4.6306 H   0  0  0  0  0  0  0  0  0  0  0  0
    1.3570   -2.2379   -1.3294 H   0  0  0  0  0  0  0  0  0  0  0  0
    0.2543   -2.8300    0.7651 H   0  0  0  0  0  0  0  0  0  0  0  0
   -1.4560   -3.0815    3.9878 H   0  0  0  0  0  0  0  0  0  0  0  0
    0.0018   -3.4420    3.0371 H   0  0  0  0  0  0  0  0  0  0  0  0
   -1.5728   -3.1697    2.2193 H   0  0  0  0  0  0  0  0  0  0  0  0
    0.7098    1.1886    2.1367 H   0  0  0  0  0  0  0  0  0  0  0  0
    1.9667    1.7337    0.1127 H   0  0  0  0  0  0  0  0  0  0  0  0
    4.9015    4.9128   -1.3198 H   0  0  0  0  0  0  0  0  0  0  0  0
    3.8185    6.3138    0.3506 H   0  0  0  0  0  0  0  0  0  0  0  0
    1.7764    8.5917    2.3235 H   0  0  0  0  0  0  0  0  0  0  0  0
    3.3854    7.9414    1.9468 H   0  0  0  0  0  0  0  0  0  0  0  0
    1.9147    6.9796    1.5851 H   0  0  0  0  0  0  0  0  0  0  0  0
    2.4742    8.9503   -2.7406 H   0  0  0  0  0  0  0  0  0  0  0  0
    3.5584    7.5187   -4.4292 H   0  0  0  0  0  0  0  0  0  0  0  0
    4.8649    4.2824   -6.4108 H   0  0  0  0  0  0  0  0  0  0  0  0
    6.0618    5.1970   -8.3219 H   0  0  0  0  0  0  0  0  0  0  0  0
    8.2754    6.8458  -10.7068 H   0  0  0  0  0  0  0  0  0  0  0  0
    8.0294    5.4589   -9.6233 H   0  0  0  0  0  0  0  0  0  0  0  0
    6.6240    6.3916  -10.2366 H   0  0  0  0  0  0  0  0  0  0  0  0
    7.5724    8.3581   -5.8645 H   0  0  0  0  0  0  0  0  0  0  0  0
    6.3801    7.4195   -3.9293 H   0  0  0  0  0  0  0  0  0  0  0  0
    7.1922    4.1608   -4.4557 H   0  0  0  0  0  0  0  0  0  0  0  0
    8.6809   -1.8073   -5.7233 H   0  0  0  0  0  0  0  0  0  0  0  0
   12.0410    1.9794   -5.8922 H   0  0  0  0  0  0  0  0  0  0  0  0
   13.2455   -0.7636   -7.5618 H   0  0  0  0  0  0  0  0  0  0  0  0
   14.4440   -0.5907   -5.1894 H   0  0  0  0  0  0  0  0  0  0  0  0
   15.4836   -2.6172   -6.4996 H   0  0  0  0  0  0  0  0  0  0  0  0
   13.7504   -4.6294   -6.4215 H   0  0  0  0  0  0  0  0  0  0  0  0
   11.6436   -3.8416   -5.0634 H   0  0  0  0  0  0  0  0  0  0  0  0
   12.1543   -1.4082   -4.0453 H   0  0  0  0  0  0  0  0  0  0  0  0
   13.4791   -2.5350   -3.6742 H   0  0  0  0  0  0  0  0  0  0  0  0
   11.5471   -2.7369   -7.4862 H   0  0  0  0  0  0  0  0  0  0  0  0
  1  2  2  0  0  0  0
  2  3  1  0  0  0  0
  3  4  2  0  0  0  0
  3  5  1  0  0  0  0
  5  6  2  0  0  0  0
  6  7  1  0  0  0  0
  7  8  2  0  0  0  0
  8  9  1  0  0  0  0
  9 10  2  0  0  0  0
 10 11  1  0  0  0  0
 11 12  2  0  0  0  0
 12 13  1  0  0  0  0
 13 14  3  0  0  0  0
 12 15  1  0  0  0  0
 15 16  3  0  0  0  0
  8 17  1  0  0  0  0
 17 18  1  0  0  0  0
 18 19  1  0  0  0  0
 19 20  2  0  0  0  0
 20 21  1  0  0  0  0
 21 22  1  0  0  0  0
 21 23  1  0  0  0  0
  1 24  1  0  0  0  0
 24 25  2  0  0  0  0
 25 26  1  0  0  0  0
 26 27  1  0  0  0  0
 27 28  2  0  0  0  0
 28 29  1  0  0  0  0
 29 30  2  0  0  0  0
 30 31  1  0  0  0  0
 31 32  1  0  0  0  0
 30 33  1  0  0  0  0
 33 34  2  0  0  0  0
 26 35  1  0  0  0  0
 35 36  2  0  0  0  0
 36 37  1  0  0  0  0
 37 38  2  0  0  0  0
 38 39  1  0  0  0  0
 39 40  1  0  0  0  0
 38 41  1  0  0  0  0
 41 42  2  0  0  0  0
 25 43  1  0  0  0  0
 43 44  1  0  0  0  0
 44 45  1  0  0  0  0
 45 46  2  0  0  0  0
 46 47  1  0  0  0  0
 47 48  1  0  0  0  0
 48 49  2  0  0  0  0
 49 50  1  0  0  0  0
 50 51  2  0  0  0  0
 51 52  1  0  0  0  0
 52 53  1  0  0  0  0
 51 54  1  0  0  0  0
 54 55  2  0  0  0  0
 47 56  1  0  0  0  0
 56 57  2  0  0  0  0
 57 58  1  0  0  0  0
 58 59  2  0  0  0  0
 59 60  1  0  0  0  0
 60 61  1  0  0  0  0
 59 62  1  0  0  0  0
 62 63  2  0  0  0  0
 46 64  1  0  0  0  0
 64 65  1  0  0  0  0
 45 66  1  0  0  0  0
 66 67  2  0  0  0  0
 67 68  1  0  0  0  0
 68 69  2  0  0  0  0
 69 70  1  0  0  0  0
 70 71  2  0  0  0  0
 71 72  1  0  0  0  0
 72 73  1  0  0  0  0
 73 74  2  0  0  0  0
 69 75  1  0  0  0  0
 75 76  2  0  0  0  0
 76 77  1  0  0  0  0
 77 78  1  0  0  0  0
 78 79  2  0  0  0  0
 79 80  1  0  0  0  0
 80 81  2  0  0  0  0
 81 82  1  0  0  0  0
 82 83  1  0  0  0  0
 81 84  1  0  0  0  0
 84 85  2  0  0  0  0
 77 86  1  0  0  0  0
 86 87  2  0  0  0  0
 87 88  1  0  0  0  0
 88 89  2  0  0  0  0
 89 90  1  0  0  0  0
 90 91  1  0  0  0  0
 89 92  1  0  0  0  0
 92 93  2  0  0  0  0
 76 94  1  0  0  0  0
 94 95  1  0  0  0  0
 95 96  1  0  0  0  0
 96 97  2  0  0  0  0
 97 98  1  0  0  0  0
 98 99  1  0  0  0  0
 99100  2  0  0  0  0
100101  1  0  0  0  0
101102  2  0  0  0  0
102103  1  0  0  0  0
103104  1  0  0  0  0
102105  1  0  0  0  0
105106  2  0  0  0  0
 98107  1  0  0  0  0
107108  2  0  0  0  0
108109  1  0  0  0  0
109110  2  0  0  0  0
110111  1  0  0  0  0
111112  1  0  0  0  0
110113  1  0  0  0  0
113114  2  0  0  0  0
 97115  1  0  0  0  0
115116  1  0  0  0  0
 96117  1  0  0  0  0
117118  2  0  0  0  0
118119  1  0  0  0  0
119120  2  0  0  0  0
119121  1  0  0  0  0
121122  2  0  0  0  0
122123  1  0  0  0  0
123124  2  0  0  0  0
124125  1  0  0  0  0
125126  2  0  0  0  0
126127  1  0  0  0  0
127128  2  0  0  0  0
128129  1  0  0  0  0
129130  3  0  0  0  0
128131  1  0  0  0  0
131132  3  0  0  0  0
124133  1  0  0  0  0
133134  1  0  0  0  0
134135  1  0  0  0  0
135136  2  0  0  0  0
136137  1  0  0  0  0
137138  1  0  0  0  0
137139  1  0  0  0  0
 11  2  1  0  0  0  0
 23 17  1  0  0  0  0
 65 24  1  0  0  0  0
 74 66  1  0  0  0  0
116 75  1  0  0  0  0
127118  1  0  0  0  0
139133  1  0  0  0  0
 10  5  1  0  0  0  0
 22 18  1  0  0  0  0
 34 27  1  0  0  0  0
 42 35  1  0  0  0  0
 64 43  2  0  0  0  0
 74 70  1  0  0  0  0
 85 78  1  0  0  0  0
 93 86  1  0  0  0  0
115 94  2  0  0  0  0
126121  1  0  0  0  0
138134  1  0  0  0  0
 23  7  1  0  0  0  0
 55 48  1  0  0  0  0
 63 56  1  0  0  0  0
106 99  1  0  0  0  0
114107  1  0  0  0  0
139123  1  0  0  0  0
  1140  1  0  0  0  0
  6141  1  0  0  0  0
  9142  1  0  0  0  0
 17143  1  0  0  0  0
 18144  1  0  0  0  0
 19145  1  0  0  0  0
 20146  1  0  0  0  0
 21147  1  0  0  0  0
 22148  1  0  0  0  0
 22149  1  0  0  0  0
 23150  1  0  0  0  0
 28151  1  0  0  0  0
 29152  1  0  0  0  0
 32153  1  0  0  0  0
 32154  1  0  0  0  0
 32155  1  0  0  0  0
 33156  1  0  0  0  0
 34157  1  0  0  0  0
 36158  1  0  0  0  0
 37159  1  0  0  0  0
 40160  1  0  0  0  0
 40161  1  0  0  0  0
 40162  1  0  0  0  0
 41163  1  0  0  0  0
 42164  1  0  0  0  0
 49165  1  0  0  0  0
 50166  1  0  0  0  0
 53167  1  0  0  0  0
 53168  1  0  0  0  0
 53169  1  0  0  0  0
 54170  1  0  0  0  0
 55171  1  0  0  0  0
 57172  1  0  0  0  0
 58173  1  0  0  0  0
 61174  1  0  0  0  0
 61175  1  0  0  0  0
 61176  1  0  0  0  0
 62177  1  0  0  0  0
 63178  1  0  0  0  0
 67179  1  0  0  0  0
 68180  1  0  0  0  0
 79181  1  0  0  0  0
 80182  1  0  0  0  0
 83183  1  0  0  0  0
 83184  1  0  0  0  0
 83185  1  0  0  0  0
 84186  1  0  0  0  0
 85187  1  0  0  0  0
 87188  1  0  0  0  0
 88189  1  0  0  0  0
 91190  1  0  0  0  0
 91191  1  0  0  0  0
 91192  1  0  0  0  0
 92193  1  0  0  0  0
 93194  1  0  0  0  0
100195  1  0  0  0  0
101196  1  0  0  0  0
104197  1  0  0  0  0
104198  1  0  0  0  0
104199  1  0  0  0  0
105200  1  0  0  0  0
106201  1  0  0  0  0
108202  1  0  0  0  0
109203  1  0  0  0  0
112204  1  0  0  0  0
112205  1  0  0  0  0
112206  1  0  0  0  0
113207  1  0  0  0  0
114208  1  0  0  0  0
117209  1  0  0  0  0
122210  1  0  0  0  0
125211  1  0  0  0  0
133212  1  0  0  0  0
134213  1  0  0  0  0
135214  1  0  0  0  0
136215  1  0  0  0  0
137216  1  0  0  0  0
138217  1  0  0  0  0
138218  1  0  0  0  0
139219  1  0  0  0  0
M  END
