209

C         -1.07850        5.05060       -9.52950
C          0.12500        5.57660       -9.89150
C          1.37340        5.53060       -9.08530
O          1.50270        5.26300       -7.90950
C          2.46630        5.80070      -10.03460
C          3.83080        5.78890       -9.74880
C          4.62870        6.07540      -10.82960
C          4.11040        6.34950      -12.10340
C          2.76770        6.36930      -12.39740
C          1.93590        6.08250      -11.30980
C          0.48150        6.01420      -11.23100
C         -0.39870        6.37810      -12.21460
C         -1.80190        6.40640      -12.06160
N         -2.94620        6.47740      -12.00140
C         -0.02000        6.81660      -13.50060
N          0.22200        7.17250      -14.56480
C          5.47990        6.53370      -12.70800
C          6.02500        5.36250      -13.55300
C          7.51500        5.61390      -13.60000
C          8.00560        5.35900      -12.39380
C          6.85570        4.93080      -11.51100
C          5.98510        4.20600      -12.54570
C          6.05690        6.23260      -11.28750
C         -1.45410        4.62890       -8.22860
C         -1.05080        5.08170       -7.00200
C         -1.57710        4.34570       -5.91910
C         -1.31270        4.53380       -4.54570
C         -0.36090        5.52570       -4.09770
C          0.84530        5.84790       -4.65570
C          1.50780        6.84710       -3.91810
F          2.71380        7.32340       -4.27670
C          0.84240        7.30720       -2.81900
C          1.27560        8.34070       -1.83790
C          1.48500        7.73910       -0.44790
S         -0.66080        6.46720       -2.66110
C         -1.94590        3.66150       -3.67060
C         -2.78720        2.60590       -4.09990
C         -3.07050        2.42820       -5.46910
C         -3.92750        1.36400       -5.94940
S         -5.37610        0.90850       -5.09210
C         -5.78850       -0.29190       -6.26670
C         -7.02880       -1.10960       -6.16310
C         -8.27740       -0.26070       -6.40910
C         -4.84210       -0.30500       -7.24750
C         -3.79350        0.62040       -7.08860
F         -4.89270       -1.15210       -8.29110
C         -2.44790        3.31110       -6.34560
S         -2.60400        3.30340       -8.07990
C         -3.11570        1.73690       -3.03240
C         -2.55750        2.09260       -1.84200
S         -1.67200        3.59810       -1.95100
C         -2.45830        1.25130       -0.68690
C         -2.09830       -0.08680       -0.73110
N         -1.75270       -0.78770       -1.87730
C         -2.13790       -2.12770       -1.99140
C         -3.35250       -2.55500       -1.46120
C         -3.73250       -3.88090       -1.54030
C         -2.90400       -4.80410       -2.16180
S         -3.27820       -6.52110       -2.32890
C         -4.79490       -6.73480       -1.35410
C         -1.69380       -4.37750       -2.70780
C         -1.31110       -3.05880       -2.62170
C         -0.99790       -0.15690       -2.87690
C         -0.00720        0.76460       -2.53110
C          0.65630        1.47190       -3.50570
C          0.36820        1.26450       -4.85390
S          1.22950        2.29780       -5.99390
C          0.74930        1.66190       -7.62120
C         -0.56790        0.30180       -5.20530
C         -1.24860       -0.39570       -4.22510
C         -2.02360       -0.62830        0.57520
S         -1.54760       -2.16560        1.20250
C         -1.71250       -1.55940        2.84400
C         -2.07820       -0.22320        2.89140
N         -2.15360        0.56160        4.03000
C         -1.27700        0.35210        5.10160
C          0.04330       -0.04270        4.87370
C          0.84670       -0.42270        5.92470
C          0.36330       -0.39410        7.23090
S          1.42950       -1.04250        8.48010
C          0.36250       -1.13730        9.94580
C         -0.90460        0.11670        7.47310
C         -1.71890        0.47860        6.41690
C         -3.12180        1.57500        4.08330
C         -2.82920        2.80430        4.66550
C         -3.77790        3.80690        4.70890
C         -5.03710        3.59830        4.16130
S         -6.32760        4.80070        4.14590
C         -5.62020        6.21960        5.02950
C         -5.33370        2.36760        3.57840
C         -4.39130        1.36540        3.54350
C         -2.27500        0.28800        1.58180
S         -2.62890        1.85880        0.94800
C         -1.30820       -2.39600        3.93610
C         -0.13760       -3.08590        4.02570
C          0.11800       -3.60840        5.31570
C          1.28480       -4.24790        5.76720
C          2.42520       -4.45880        4.89580
C          2.99410       -3.57610        4.02200
C          4.10910       -4.13140        3.36560
F          4.82820       -3.43240        2.46680
C          4.40860       -5.41650        3.70900
C          5.50000       -6.28440        3.18570
C          4.94560       -7.47380        2.40070
S          3.27950       -5.97550        4.89290
C          1.31800       -4.62070        7.10650
C          0.23760       -4.38540        7.99800
C         -0.95650       -3.77390        7.53590
C         -2.10130       -3.57680        8.39790
S         -2.55000       -4.77420        9.58800
C         -3.93500       -3.87070       10.08820
C         -4.85960       -4.36390       11.14560
C         -5.64520       -5.58810       10.67200
C         -4.01610       -2.72430        9.35250
C         -3.00190       -2.54580        8.39450
F         -4.98890       -1.81350        9.53650
C         -0.96050       -3.36940        6.20820
S         -2.24950       -2.50990        5.40750
C          0.58210       -4.74550        9.30760
C          1.86010       -5.26350        9.43810
S          2.69060       -5.32740        7.90130
C          2.36420       -5.66520       10.69050
C          3.57840       -6.19120       11.03540
C          4.70480       -6.45240       10.12680
O          4.72520       -6.35580        8.91900
C          5.83950       -6.83820       10.99560
C          7.15290       -7.08350       10.63540
Cl         7.63360       -7.12680        9.00010
C          8.09180       -7.28750       11.65680
Cl         9.71910       -7.63060       11.26310
C          7.70890       -7.16420       12.99170
Cl         8.89270       -7.31210       14.21700
C          6.37540       -6.90590       13.34960
Cl         6.02500       -6.58520       14.99720
C          5.42150       -6.81950       12.34220
C          3.97730       -6.60370       12.37190
C          3.12730       -6.93260       13.39590
C          1.73590       -6.68970       13.40130
N          0.60680       -6.50740       13.50660
C          3.46340       -7.70720       14.52820
N          3.60250       -8.41770       15.41850
H         -1.80740        4.85080      -10.30630
H          4.18560        5.57580       -8.75260
H          2.38360        6.58180      -13.38110
H          5.67360        7.50670      -13.15500
H          5.52290        5.21610      -14.50540
H          8.03240        5.99190      -14.46200
H          9.01480        5.48160      -12.04680
H          7.11010        4.39090      -10.60300
H          4.98580        3.95990      -12.19090
H          6.46560        3.30830      -12.93110
H          6.63450        7.00590      -10.78480
H         -0.43130        5.94740       -6.87870
H          1.26930        5.37120       -5.52060
H          0.51920        9.12800       -1.77850
H          2.20650        8.78530       -2.19630
H          1.80090        8.51000        0.25010
H          2.24890        6.96570       -0.48080
H          0.55950        7.29630       -0.08630
H         -7.08850       -1.56010       -5.16900
H         -6.97410       -1.91090       -6.90310
H         -8.34040        0.53940       -5.67480
H         -8.24500        0.18130       -7.40220
H         -9.16940       -0.87670       -6.33230
H         -2.97830        0.69420       -7.78310
H         -3.70870        0.84850       -3.14170
H         -4.00970       -1.84030       -0.98710
H         -4.68040       -4.17470       -1.11950
H         -4.62610       -6.40500       -0.33330
H         -5.61680       -6.19450       -1.81510
H         -5.00290       -7.80010       -1.36870
H         -1.05350       -5.10020       -3.18960
H         -0.36470       -2.74020       -3.03130
H          0.22600        0.93390       -1.49060
H          1.40470        2.20140       -3.23690
H          1.06280        0.62710       -7.72340
H          1.27620        2.28420       -8.33810
H         -0.32160        1.76610       -7.76510
H         -0.79600        0.09790       -6.23850
H         -1.99790       -1.11960       -4.51010
H          0.42320       -0.07370        3.86360
H          1.85540       -0.76380        5.74950
H         -0.54120       -1.68940        9.70480
H          0.13210       -0.13990       10.30910
H          0.93930       -1.67480       10.69190
H         -1.28130        0.21290        8.47860
H         -2.72250        0.82860        6.60890
H         -1.84770        2.97640        5.08210
H         -3.51640        4.74850        5.16370
H         -4.76370        6.60810        4.48610
H         -5.35110        5.93030        6.04110
H         -6.40740        6.96650        5.05750
H         -6.31610        2.20810        3.16150
H         -4.63500        0.40870        3.10600
H          0.54730       -3.16460        3.20220
H          2.67220       -2.56150        3.87890
H          6.14120       -5.67900        2.54130
H          6.10050       -6.65340        4.02110
H          5.76050       -8.09070        2.03150
H          4.30860       -8.08160        3.03940
H          4.35880       -7.12910        1.55240
H         -5.54910       -3.55710       11.40310
H         -4.28630       -4.62830       12.03770
H         -4.96460       -6.39740       10.41680
H         -6.23860       -5.34230        9.79430
H         -6.31270       -5.92940       11.45840
H         -2.93700       -1.67770        7.76650
H         -0.06170       -4.62430       10.15990
H          1.66010       -5.50070       11.49740
