177

C         -2.79180       -4.21440        3.71850
C         -4.07430       -4.28040        4.19160
C         -4.36590       -5.06410        5.41400
O         -3.63990       -5.87360        5.95070
C         -5.70020       -4.61020        5.86010
C         -6.36540       -4.96330        7.03170
C         -7.58340       -4.34630        7.19230
C         -8.10460       -3.44080        6.25940
C         -7.46560       -3.09250        5.09250
C         -6.22760       -3.71210        4.90900
C         -5.28990       -3.62300        3.78990
C         -5.61790       -3.23990        2.50960
C         -6.84360       -2.66130        2.14700
N         -7.82160       -2.16750        1.79740
C         -4.79440       -3.50540        1.39810
N         -4.17860       -3.78270        0.46830
C         -9.35010       -3.19370        7.07460
C         -9.40220       -1.87580        7.87610
C        -10.46950       -2.12710        8.91670
C         -9.97820       -2.98800        9.79870
C         -8.57060       -3.33300        9.36910
C         -8.14760       -1.99410        8.75130
C         -8.77090       -4.20710        8.11300
C         -2.20400       -3.23510        2.90710
C         -0.92590       -3.29770        2.32270
N         -0.14220       -4.41390        2.25310
C          1.22430       -4.23900        1.95370
C          1.80560       -4.90280        0.87490
C          3.10290       -4.61930        0.51300
C          3.84490       -3.67920        1.22530
S          5.45730       -3.30330        0.61750
C          5.80900       -1.69120        1.37890
C          3.29840       -3.08580        2.35460
C          1.99350       -3.36270        2.71240
C         -0.67300       -5.71860        2.17690
C         -1.83340       -5.98840        1.45840
C         -2.32690       -7.27580        1.39050
C         -1.65970       -8.31520        2.02740
S         -2.19290       -9.99480        2.00330
C         -3.80080       -9.93240        1.16350
C         -0.48180       -8.04820        2.72330
C          0.00830       -6.76340        2.79790
C         -0.57790       -2.06090        1.73370
S          0.77710       -1.46100        0.84310
C         -0.02890        0.07650        0.53810
C         -1.29650        0.09880        1.11610
N         -2.33020        1.04790        0.99220
C         -3.44660        0.53390        0.30530
C         -4.73700        0.58610        0.82530
C         -5.79970        0.03480        0.13650
C         -5.58830       -0.60030       -1.08060
S         -6.85970       -1.34280       -2.04570
C         -8.38880       -0.94180       -1.15460
C         -4.29460       -0.67670       -1.59410
C         -3.23920       -0.11770       -0.91160
C         -2.43990        2.09000        1.89940
C         -1.62360        2.14800        3.02740
C         -1.71430        3.19810        3.92180
C         -2.63180        4.21540        3.70960
S         -2.84340        5.60960        4.77750
C         -1.56540        5.38470        6.04650
C         -3.45170        4.16670        2.58260
C         -3.35460        3.12670        1.68670
C         -1.57650       -1.10720        1.79310
S         -2.96300       -1.65740        2.66080
C          0.66730        0.97780       -0.34260
C          0.29210        2.28530       -0.68740
O         -0.68350        2.90170        0.02650
C         -0.40120        4.22040        0.50040
C          0.79520        4.23720        1.44320
C          0.88260        2.96320       -1.79580
O          0.24550        4.10410       -2.23540
C         -0.65460        3.89090       -3.32180
C         -1.87230        3.06040       -2.93860
C          2.03770        2.51850       -2.43640
C          2.54300        1.27770       -1.97330
C          1.84980        0.51150       -0.98180
N          2.48870       -0.62500       -0.71500
S          3.82020       -0.72410       -1.62310
N          3.64850        0.67380       -2.39150
C          2.72710        3.21780       -3.48360
C          2.51140        4.50500       -3.93940
C          3.39720        4.88790       -4.94080
S          3.22120        6.48970       -5.64200
C          4.89110        7.25830       -5.60290
C          5.71200        6.85250       -4.39840
C          4.31100        3.87930       -5.29700
S          4.08140        2.47680       -4.27480
C          5.20520        3.98420       -6.37090
C          6.17980        3.11970       -6.80700
C          6.56160        1.85410       -6.16460
O          6.08250        1.34950       -5.16520
C          7.66740        1.29890       -6.96410
C          8.36410        0.11730       -6.72080
C          9.35480       -0.14490       -7.63630
C          9.63060        0.70600       -8.71460
C          8.95240        1.87570       -8.96300
C          7.94020        2.16310       -8.04180
C          7.03620        3.31060       -7.95970
C          7.04760        4.37510       -8.82740
C          7.89880        4.49350       -9.94580
N          8.54950        4.66790      -10.87600
C          6.24670        5.52820       -8.73070
N          5.66070        6.51760       -8.70680
C         10.74400       -0.17300       -9.22780
C         10.41920       -1.05670      -10.45060
C         11.49190       -2.12150      -10.42150
C         11.23310       -2.92710       -9.39940
C          9.98080       -2.42070       -8.72070
C          9.22480       -1.87150       -9.93740
C         10.43750       -1.12130       -8.02430
H         -2.11990       -4.96650        4.12060
H         -5.93110       -5.66570        7.72580
H         -7.87260       -2.39270        4.38100
H        -10.29260       -3.43120        6.58470
H         -9.50930       -0.97900        7.27190
H        -11.45870       -1.71020        8.87450
H        -10.47510       -3.43390       10.64040
H         -7.91990       -3.76380       10.12550
H         -7.21700       -2.03940        8.18870
H         -8.08680       -1.19930        9.49310
H         -9.32740       -5.12070        8.31410
H          1.22050       -5.60760        0.30390
H          3.54850       -5.10040       -0.34360
H          6.65110       -1.28040        0.83080
H          4.94060       -1.04870        1.26940
H          6.07930       -1.81600        2.42370
H          3.87210       -2.40010        2.95630
H          1.55810       -2.88430        3.57740
H         -2.35680       -5.19350        0.94830
H         -3.22690       -7.45080        0.82430
H         -4.18640      -10.94670        1.19650
H         -4.46980       -9.26490        1.69860
H         -3.67310       -9.62130        0.13080
H          0.03690       -8.86000        3.20890
H          0.91800       -6.55820        3.34230
H         -4.91050        1.04440        1.78770
H         -6.78330        0.08310        0.57410
H         -8.37790       -1.40370       -0.17090
H         -8.50150        0.13650       -1.08840
H         -9.19130       -1.36180       -1.75280
H         -4.13240       -1.18290       -2.53300
H         -2.23930       -0.18430       -1.31450
H         -0.90870        1.35870        3.21110
H         -1.06660        3.20160        4.78410
H         -0.58310        5.36360        5.58350
H         -1.75610        4.47720        6.61210
H         -1.64710        6.24830        6.69920
H         -4.15840        4.96550        2.41530
H         -3.97440        3.11670        0.80370
H         -0.23590        4.91010       -0.33030
H         -1.31040        4.50630        1.03110
H          0.90540        5.23140        1.86670
H          0.64500        3.52300        2.24940
H          1.70850        3.98010        0.90920
H         -0.12040        3.42120       -4.15820
H         -0.95710        4.89870       -3.61560
H         -2.57080        3.04020       -3.77040
H         -2.36600        3.48860       -2.06980
H         -1.58670        2.03810       -2.69980
H          1.76520        5.16960       -3.54710
H          4.65290        8.32170       -5.57000
H          5.40050        7.05240       -6.54370
H          5.98750        5.80060       -4.44250
H          5.15750        7.02760       -3.47850
H          6.62540        7.44340       -4.37210
H          5.07300        4.89010       -6.94870
H          8.11910       -0.50530       -5.87460
H          9.18470        2.51950       -9.79430
H         11.72600        0.29240       -9.28820
H         10.29290       -0.51420      -11.38350
H         12.33170       -2.14540      -11.09090
H         11.81360       -3.75840       -9.04430
H          9.45500       -3.12160       -8.07790
H          8.35360       -1.27040       -9.68410
H          8.93500       -2.65850      -10.63160
H         11.21560       -1.28710       -7.28130
