
  xtb     02092210143D
 energy: -360.838607746014 gnorm: 0.000235536894 xtb: 6.4.1 (unknown)
221244  0     0  0            999 V2000
    4.9438   -5.8855    7.0983 C   0  0  0  0  0  0  0  0  0  0  0  0
    5.1757   -7.2302    7.2288 C   0  0  0  0  0  0  0  0  0  0  0  0
    4.3885   -8.3030    6.6134 C   0  0  0  0  0  0  0  0  0  0  0  0
    3.2550   -8.2370    6.1679 O   0  0  0  0  0  0  0  0  0  0  0  0
    5.2605   -9.4946    6.6151 C   0  0  0  0  0  0  0  0  0  0  0  0
    4.9986  -10.7348    6.0368 C   0  0  0  0  0  0  0  0  0  0  0  0
    6.0200  -11.6448    6.1713 C   0  0  0  0  0  0  0  0  0  0  0  0
    7.2110  -11.3514    6.8464 C   0  0  0  0  0  0  0  0  0  0  0  0
    7.4816  -10.1348    7.4269 C   0  0  0  0  0  0  0  0  0  0  0  0
    6.4628   -9.1879    7.2854 C   0  0  0  0  0  0  0  0  0  0  0  0
    6.4119   -7.7938    7.7226 C   0  0  0  0  0  0  0  0  0  0  0  0
    7.3891   -7.1407    8.4322 C   0  0  0  0  0  0  0  0  0  0  0  0
    8.6228   -7.7134    8.8013 C   0  0  0  0  0  0  0  0  0  0  0  0
    9.6530   -8.1167    9.1094 N   0  0  0  0  0  0  0  0  0  0  0  0
    7.3026   -5.8165    8.9068 C   0  0  0  0  0  0  0  0  0  0  0  0
    7.3065   -4.7547    9.3468 N   0  0  0  0  0  0  0  0  0  0  0  0
    7.7925  -12.7180    6.5826 C   0  0  0  0  0  0  0  0  0  0  0  0
    8.8561  -12.8064    5.4680 C   0  0  0  0  0  0  0  0  0  0  0  0
    8.8805  -14.2736    5.1051 C   0  0  0  0  0  0  0  0  0  0  0  0
    7.7543  -14.5484    4.4596 C   0  0  0  0  0  0  0  0  0  0  0  0
    6.9495  -13.2715    4.3758 C   0  0  0  0  0  0  0  0  0  0  0  0
    8.0885  -12.2498    4.2619 C   0  0  0  0  0  0  0  0  0  0  0  0
    6.4658  -13.0437    5.8241 C   0  0  0  0  0  0  0  0  0  0  0  0
    3.9189   -5.2047    6.4318 C   0  0  0  0  0  0  0  0  0  0  0  0
    4.0785   -3.8971    5.9265 C   0  0  0  0  0  0  0  0  0  0  0  0
    5.2636   -3.2029    5.8841 N   0  0  0  0  0  0  0  0  0  0  0  0
    5.2170   -1.7986    5.8727 C   0  0  0  0  0  0  0  0  0  0  0  0
    6.0082   -1.0658    4.9890 C   0  0  0  0  0  0  0  0  0  0  0  0
    5.8944    0.3046    4.9375 C   0  0  0  0  0  0  0  0  0  0  0  0
    4.9934    0.9743    5.7656 C   0  0  0  0  0  0  0  0  0  0  0  0
    4.8868    2.7216    5.5564 S   0  0  0  0  0  0  0  0  0  0  0  0
    3.6109    3.2313    6.7441 C   0  0  0  0  0  0  0  0  0  0  0  0
    4.2398    0.2510    6.6802 C   0  0  0  0  0  0  0  0  0  0  0  0
    4.3552   -1.1240    6.7329 C   0  0  0  0  0  0  0  0  0  0  0  0
    6.4990   -3.8601    5.7419 C   0  0  0  0  0  0  0  0  0  0  0  0
    6.6109   -4.9878    4.9301 C   0  0  0  0  0  0  0  0  0  0  0  0
    7.7816   -5.7162    4.9002 C   0  0  0  0  0  0  0  0  0  0  0  0
    8.8700   -5.3153    5.6671 C   0  0  0  0  0  0  0  0  0  0  0  0
   10.3793   -6.2239    5.7619 S   0  0  0  0  0  0  0  0  0  0  0  0
    9.8992   -7.8865    5.2076 C   0  0  0  0  0  0  0  0  0  0  0  0
    8.7912   -4.1336    6.4006 C   0  0  0  0  0  0  0  0  0  0  0  0
    7.6182   -3.4116    6.4412 C   0  0  0  0  0  0  0  0  0  0  0  0
    2.8746   -3.4283    5.3765 C   0  0  0  0  0  0  0  0  0  0  0  0
    2.4309   -1.9755    4.5541 S   0  0  0  0  0  0  0  0  0  0  0  0
    0.8079   -2.5936    4.2923 C   0  0  0  0  0  0  0  0  0  0  0  0
    0.6118   -3.8315    4.8861 C   0  0  0  0  0  0  0  0  0  0  0  0
   -0.6099   -4.4771    4.9945 N   0  0  0  0  0  0  0  0  0  0  0  0
   -0.6257   -5.8793    5.0366 C   0  0  0  0  0  0  0  0  0  0  0  0
    0.2011   -6.6076    4.1846 C   0  0  0  0  0  0  0  0  0  0  0  0
    0.2521   -7.9843    4.2646 C   0  0  0  0  0  0  0  0  0  0  0  0
   -0.5281   -8.6518    5.1975 C   0  0  0  0  0  0  0  0  0  0  0  0
   -0.4694  -10.4071    5.3896 S   0  0  0  0  0  0  0  0  0  0  0  0
    1.2799  -10.7421    5.0206 C   0  0  0  0  0  0  0  0  0  0  0  0
   -1.3953   -7.9330    6.0140 C   0  0  0  0  0  0  0  0  0  0  0  0
   -1.4420   -6.5587    5.9398 C   0  0  0  0  0  0  0  0  0  0  0  0
   -1.7878   -3.7493    5.2072 C   0  0  0  0  0  0  0  0  0  0  0  0
   -2.9980   -4.2137    4.6880 C   0  0  0  0  0  0  0  0  0  0  0  0
   -4.1518   -3.4819    4.8493 C   0  0  0  0  0  0  0  0  0  0  0  0
   -4.1299   -2.2639    5.5258 C   0  0  0  0  0  0  0  0  0  0  0  0
   -5.6654   -1.3997    5.6398 S   0  0  0  0  0  0  0  0  0  0  0  0
   -5.2233    0.1736    6.4299 C   0  0  0  0  0  0  0  0  0  0  0  0
   -2.9350   -1.8085    6.0641 C   0  0  0  0  0  0  0  0  0  0  0  0
   -1.7791   -2.5478    5.9091 C   0  0  0  0  0  0  0  0  0  0  0  0
    1.8139   -4.3231    5.4648 C   0  0  0  0  0  0  0  0  0  0  0  0
    2.3024   -5.8391    6.1386 S   0  0  0  0  0  0  0  0  0  0  0  0
   -0.0760   -1.7928    3.4767 C   0  0  0  0  0  0  0  0  0  0  0  0
    0.1546   -0.4127    3.3893 C   0  0  0  0  0  0  0  0  0  0  0  0
   -0.6000    0.3580    2.5407 C   0  0  0  0  0  0  0  0  0  0  0  0
   -0.4572    1.8300    2.2079 C   0  0  0  0  0  0  0  0  0  0  0  0
    0.9982    2.0689    1.7520 C   0  0  0  0  0  0  0  0  0  0  0  0
    1.3540    3.4836    1.3120 C   0  0  0  0  0  0  0  0  0  0  0  0
   -0.9051    2.7433    3.3681 C   0  0  0  0  0  0  0  0  0  0  0  0
   -0.0345    2.6976    4.6175 C   0  0  0  0  0  0  0  0  0  0  0  0
   -1.4622    1.9724    1.0811 C   0  0  0  0  0  0  0  0  0  0  0  0
   -2.1386    0.7594    0.8601 C   0  0  0  0  0  0  0  0  0  0  0  0
   -1.5974   -0.2411    1.7527 C   0  0  0  0  0  0  0  0  0  0  0  0
   -1.8445   -1.6032    1.8402 C   0  0  0  0  0  0  0  0  0  0  0  0
   -1.0789   -2.3727    2.6915 C   0  0  0  0  0  0  0  0  0  0  0  0
   -3.1190    0.6634   -0.1163 C   0  0  0  0  0  0  0  0  0  0  0  0
   -3.3806    1.7637   -0.9061 C   0  0  0  0  0  0  0  0  0  0  0  0
   -2.6947    2.9680   -0.7207 C   0  0  0  0  0  0  0  0  0  0  0  0
   -1.7623    3.0771    0.3222 C   0  0  0  0  0  0  0  0  0  0  0  0
   -2.8843    4.0649   -1.6426 C   0  0  0  0  0  0  0  0  0  0  0  0
   -2.0801    5.1525   -1.8179 C   0  0  0  0  0  0  0  0  0  0  0  0
   -2.4605    5.9875   -2.8969 C   0  0  0  0  0  0  0  0  0  0  0  0
   -1.8123    7.1469   -3.3552 C   0  0  0  0  0  0  0  0  0  0  0  0
   -0.6474    7.6902   -2.6449 C   0  0  0  0  0  0  0  0  0  0  0  0
    0.5434    7.9649   -3.3140 C   0  0  0  0  0  0  0  0  0  0  0  0
    1.6342    8.4586   -2.6305 C   0  0  0  0  0  0  0  0  0  0  0  0
    1.5853    8.6936   -1.2584 C   0  0  0  0  0  0  0  0  0  0  0  0
    3.0626    9.2670   -0.4692 S   0  0  0  0  0  0  0  0  0  0  0  0
    2.4619   10.5841    0.6525 C   0  0  0  0  0  0  0  0  0  0  0  0
    1.7520   11.6879   -0.1049 C   0  0  0  0  0  0  0  0  0  0  0  0
    0.3948    8.4007   -0.6007 C   0  0  0  0  0  0  0  0  0  0  0  0
    0.2816    8.5684    0.7364 F   0  0  0  0  0  0  0  0  0  0  0  0
   -0.7100    7.9206   -1.2739 C   0  0  0  0  0  0  0  0  0  0  0  0
   -2.3155    7.7241   -4.5106 C   0  0  0  0  0  0  0  0  0  0  0  0
   -3.4595    7.2217   -5.1885 C   0  0  0  0  0  0  0  0  0  0  0  0
   -4.1394    6.0888   -4.6976 C   0  0  0  0  0  0  0  0  0  0  0  0
   -5.3457    5.5861   -5.3622 C   0  0  0  0  0  0  0  0  0  0  0  0
   -6.4053    6.4431   -5.6618 C   0  0  0  0  0  0  0  0  0  0  0  0
   -7.5351    5.9682   -6.2879 C   0  0  0  0  0  0  0  0  0  0  0  0
   -7.6623    4.6242   -6.6443 C   0  0  0  0  0  0  0  0  0  0  0  0
   -9.1793    4.1548   -7.4087 S   0  0  0  0  0  0  0  0  0  0  0  0
   -8.7625    2.6776   -8.4189 C   0  0  0  0  0  0  0  0  0  0  0  0
   -9.8405    2.4903   -9.4685 C   0  0  0  0  0  0  0  0  0  0  0  0
   -6.6065    3.7780   -6.3191 C   0  0  0  0  0  0  0  0  0  0  0  0
   -5.4651    4.2423   -5.6975 C   0  0  0  0  0  0  0  0  0  0  0  0
   -6.6581    2.4547   -6.5973 F   0  0  0  0  0  0  0  0  0  0  0  0
   -3.6005    5.4847   -3.5748 C   0  0  0  0  0  0  0  0  0  0  0  0
   -4.1930    4.0352   -2.8082 S   0  0  0  0  0  0  0  0  0  0  0  0
   -3.7390    7.9369   -6.3707 C   0  0  0  0  0  0  0  0  0  0  0  0
   -2.8708    8.9712   -6.6102 C   0  0  0  0  0  0  0  0  0  0  0  0
   -1.6720    9.1207   -5.3214 S   0  0  0  0  0  0  0  0  0  0  0  0
   -2.7608    9.8931   -7.6785 C   0  0  0  0  0  0  0  0  0  0  0  0
   -3.3586    9.9142   -8.9042 C   0  0  0  0  0  0  0  0  0  0  0  0
   -4.2405    8.8985   -9.5326 C   0  0  0  0  0  0  0  0  0  0  0  0
   -4.8510    7.9889   -9.0093 O   0  0  0  0  0  0  0  0  0  0  0  0
   -4.2427    9.2098  -10.9732 C   0  0  0  0  0  0  0  0  0  0  0  0
   -4.8372    8.4565  -11.9833 C   0  0  0  0  0  0  0  0  0  0  0  0
   -4.6574    8.9715  -13.2439 C   0  0  0  0  0  0  0  0  0  0  0  0
   -3.9349   10.1487  -13.4849 C   0  0  0  0  0  0  0  0  0  0  0  0
   -3.3484   10.9037  -12.4977 C   0  0  0  0  0  0  0  0  0  0  0  0
   -3.5264   10.4002  -11.2055 C   0  0  0  0  0  0  0  0  0  0  0  0
   -3.0596   10.9134   -9.9225 C   0  0  0  0  0  0  0  0  0  0  0  0
   -2.5111   12.1504   -9.7149 C   0  0  0  0  0  0  0  0  0  0  0  0
   -2.1566   12.6915   -8.4596 C   0  0  0  0  0  0  0  0  0  0  0  0
   -1.8616   13.2174   -7.4823 N   0  0  0  0  0  0  0  0  0  0  0  0
   -2.2742   13.0949  -10.7366 C   0  0  0  0  0  0  0  0  0  0  0  0
   -2.0538   13.9090  -11.5153 N   0  0  0  0  0  0  0  0  0  0  0  0
   -4.1524   10.0710  -14.9750 C   0  0  0  0  0  0  0  0  0  0  0  0
   -5.2164   11.0085  -15.5972 C   0  0  0  0  0  0  0  0  0  0  0  0
   -6.2188   11.3013  -14.5084 C   0  0  0  0  0  0  0  0  0  0  0  0
   -6.9048   10.1894  -14.2799 C   0  0  0  0  0  0  0  0  0  0  0  0
   -6.3783    9.1243  -15.2101 C   0  0  0  0  0  0  0  0  0  0  0  0
   -6.0090    9.9864  -16.4277 C   0  0  0  0  0  0  0  0  0  0  0  0
   -4.9593    8.7616  -14.7063 C   0  0  0  0  0  0  0  0  0  0  0  0
    5.7200   -5.2345    7.4799 H   0  0  0  0  0  0  0  0  0  0  0  0
    4.0674  -10.9287    5.5284 H   0  0  0  0  0  0  0  0  0  0  0  0
    8.4021   -9.9252    7.9456 H   0  0  0  0  0  0  0  0  0  0  0  0
    8.0469  -13.3049    7.4628 H   0  0  0  0  0  0  0  0  0  0  0  0
    9.8099  -12.3461    5.7115 H   0  0  0  0  0  0  0  0  0  0  0  0
    9.6629  -14.9501    5.3947 H   0  0  0  0  0  0  0  0  0  0  0  0
    7.4077  -15.5002    4.1022 H   0  0  0  0  0  0  0  0  0  0  0  0
    6.1668  -13.2352    3.6225 H   0  0  0  0  0  0  0  0  0  0  0  0
    8.6466  -12.3575    3.3332 H   0  0  0  0  0  0  0  0  0  0  0  0
    7.7703  -11.2150    4.3774 H   0  0  0  0  0  0  0  0  0  0  0  0
    5.8378  -13.8515    6.1950 H   0  0  0  0  0  0  0  0  0  0  0  0
    6.6944   -1.5808    4.3337 H   0  0  0  0  0  0  0  0  0  0  0  0
    6.4900    0.8753    4.2418 H   0  0  0  0  0  0  0  0  0  0  0  0
    3.9396    3.0210    7.7576 H   0  0  0  0  0  0  0  0  0  0  0  0
    2.6720    2.7334    6.5199 H   0  0  0  0  0  0  0  0  0  0  0  0
    3.5007    4.3029    6.6093 H   0  0  0  0  0  0  0  0  0  0  0  0
    3.5590    0.7416    7.3564 H   0  0  0  0  0  0  0  0  0  0  0  0
    3.7684   -1.6842    7.4460 H   0  0  0  0  0  0  0  0  0  0  0  0
    5.7657   -5.3094    4.3393 H   0  0  0  0  0  0  0  0  0  0  0  0
    7.8370   -6.5929    4.2746 H   0  0  0  0  0  0  0  0  0  0  0  0
    8.9950   -8.1987    5.7223 H   0  0  0  0  0  0  0  0  0  0  0  0
   10.7234   -8.5347    5.4874 H   0  0  0  0  0  0  0  0  0  0  0  0
    9.7652   -7.9066    4.1296 H   0  0  0  0  0  0  0  0  0  0  0  0
    9.6488   -3.8091    6.9682 H   0  0  0  0  0  0  0  0  0  0  0  0
    7.5493   -2.5223    7.0480 H   0  0  0  0  0  0  0  0  0  0  0  0
    0.8068   -6.0881    3.4559 H   0  0  0  0  0  0  0  0  0  0  0  0
    0.9029   -8.5277    3.5990 H   0  0  0  0  0  0  0  0  0  0  0  0
    1.5175  -11.6789    5.5164 H   0  0  0  0  0  0  0  0  0  0  0  0
    1.4278  -10.8459    3.9486 H   0  0  0  0  0  0  0  0  0  0  0  0
    1.8751   -9.9282    5.4260 H   0  0  0  0  0  0  0  0  0  0  0  0
   -2.0112   -8.4626    6.7243 H   0  0  0  0  0  0  0  0  0  0  0  0
   -2.0922   -6.0009    6.5971 H   0  0  0  0  0  0  0  0  0  0  0  0
   -3.0234   -5.1491    4.1491 H   0  0  0  0  0  0  0  0  0  0  0  0
   -5.0850   -3.8383    4.4410 H   0  0  0  0  0  0  0  0  0  0  0  0
   -4.8779   -0.0006    7.4450 H   0  0  0  0  0  0  0  0  0  0  0  0
   -6.1381    0.7577    6.4491 H   0  0  0  0  0  0  0  0  0  0  0  0
   -4.4704    0.6848    5.8369 H   0  0  0  0  0  0  0  0  0  0  0  0
   -2.8872   -0.8820    6.6131 H   0  0  0  0  0  0  0  0  0  0  0  0
   -0.8591   -2.1850    6.3422 H   0  0  0  0  0  0  0  0  0  0  0  0
    0.9542    0.0155    3.9757 H   0  0  0  0  0  0  0  0  0  0  0  0
    1.1978    1.3829    0.9243 H   0  0  0  0  0  0  0  0  0  0  0  0
    1.6572    1.7799    2.5722 H   0  0  0  0  0  0  0  0  0  0  0  0
    1.0794    4.2189    2.0635 H   0  0  0  0  0  0  0  0  0  0  0  0
    2.4290    3.5490    1.1570 H   0  0  0  0  0  0  0  0  0  0  0  0
    0.8688    3.7366    0.3736 H   0  0  0  0  0  0  0  0  0  0  0  0
   -0.9452    3.7693    2.9986 H   0  0  0  0  0  0  0  0  0  0  0  0
   -1.9261    2.4563    3.6358 H   0  0  0  0  0  0  0  0  0  0  0  0
   -0.4185    3.4053    5.3503 H   0  0  0  0  0  0  0  0  0  0  0  0
   -0.0489    1.7070    5.0643 H   0  0  0  0  0  0  0  0  0  0  0  0
    0.9927    2.9701    4.3902 H   0  0  0  0  0  0  0  0  0  0  0  0
   -2.5999   -2.0659    1.2235 H   0  0  0  0  0  0  0  0  0  0  0  0
   -1.2197   -3.4412    2.7090 H   0  0  0  0  0  0  0  0  0  0  0  0
   -3.6552   -0.2606   -0.2700 H   0  0  0  0  0  0  0  0  0  0  0  0
   -4.1146    1.6965   -1.6961 H   0  0  0  0  0  0  0  0  0  0  0  0
   -1.2894    4.0260    0.5131 H   0  0  0  0  0  0  0  0  0  0  0  0
   -1.1986    5.3394   -1.2329 H   0  0  0  0  0  0  0  0  0  0  0  0
    0.6179    7.7773   -4.3737 H   0  0  0  0  0  0  0  0  0  0  0  0
    2.5551    8.6687   -3.1514 H   0  0  0  0  0  0  0  0  0  0  0  0
    3.3756   10.9510    1.1200 H   0  0  0  0  0  0  0  0  0  0  0  0
    1.8281   10.1382    1.4157 H   0  0  0  0  0  0  0  0  0  0  0  0
    0.8465   11.3135   -0.5794 H   0  0  0  0  0  0  0  0  0  0  0  0
    1.4760   12.4853    0.5822 H   0  0  0  0  0  0  0  0  0  0  0  0
    2.3998   12.0996   -0.8760 H   0  0  0  0  0  0  0  0  0  0  0  0
   -1.6174    7.7342   -0.7198 H   0  0  0  0  0  0  0  0  0  0  0  0
   -6.3452    7.4845   -5.3857 H   0  0  0  0  0  0  0  0  0  0  0  0
   -8.3513    6.6346   -6.5192 H   0  0  0  0  0  0  0  0  0  0  0  0
   -7.7927    2.8623   -8.8782 H   0  0  0  0  0  0  0  0  0  0  0  0
   -8.7023    1.8133   -7.7595 H   0  0  0  0  0  0  0  0  0  0  0  0
   -9.9007    3.3626  -10.1154 H   0  0  0  0  0  0  0  0  0  0  0  0
   -9.6125    1.6174  -10.0764 H   0  0  0  0  0  0  0  0  0  0  0  0
  -10.8098    2.3434   -8.9974 H   0  0  0  0  0  0  0  0  0  0  0  0
   -4.6706    3.5416   -5.4938 H   0  0  0  0  0  0  0  0  0  0  0  0
   -4.5376    7.6823   -7.0420 H   0  0  0  0  0  0  0  0  0  0  0  0
   -2.0273   10.6693   -7.4901 H   0  0  0  0  0  0  0  0  0  0  0  0
   -5.3783    7.5520  -11.7533 H   0  0  0  0  0  0  0  0  0  0  0  0
   -2.7888   11.8018  -12.6996 H   0  0  0  0  0  0  0  0  0  0  0  0
   -3.2537   10.0003  -15.5846 H   0  0  0  0  0  0  0  0  0  0  0  0
   -4.8086   11.8702  -16.1184 H   0  0  0  0  0  0  0  0  0  0  0  0
   -6.2844   12.2413  -13.9927 H   0  0  0  0  0  0  0  0  0  0  0  0
   -7.6585   10.0143  -13.5347 H   0  0  0  0  0  0  0  0  0  0  0  0
   -7.0288    8.2703  -15.3798 H   0  0  0  0  0  0  0  0  0  0  0  0
   -5.4019    9.4607  -17.1636 H   0  0  0  0  0  0  0  0  0  0  0  0
   -6.8798   10.4234  -16.9137 H   0  0  0  0  0  0  0  0  0  0  0  0
   -4.5884    7.8355  -15.1414 H   0  0  0  0  0  0  0  0  0  0  0  0
  1  2  2  0  0  0  0
  2  3  1  0  0  0  0
  3  4  2  0  0  0  0
  3  5  1  0  0  0  0
  5  6  2  0  0  0  0
  6  7  1  0  0  0  0
  7  8  2  0  0  0  0
  8  9  1  0  0  0  0
  9 10  2  0  0  0  0
 10 11  1  0  0  0  0
 11 12  2  0  0  0  0
 12 13  1  0  0  0  0
 13 14  3  0  0  0  0
 12 15  1  0  0  0  0
 15 16  3  0  0  0  0
  8 17  1  0  0  0  0
 17 18  1  0  0  0  0
 18 19  1  0  0  0  0
 19 20  2  0  0  0  0
 20 21  1  0  0  0  0
 21 22  1  0  0  0  0
 21 23  1  0  0  0  0
  1 24  1  0  0  0  0
 24 25  2  0  0  0  0
 25 26  1  0  0  0  0
 26 27  1  0  0  0  0
 27 28  2  0  0  0  0
 28 29  1  0  0  0  0
 29 30  2  0  0  0  0
 30 31  1  0  0  0  0
 31 32  1  0  0  0  0
 30 33  1  0  0  0  0
 33 34  2  0  0  0  0
 26 35  1  0  0  0  0
 35 36  2  0  0  0  0
 36 37  1  0  0  0  0
 37 38  2  0  0  0  0
 38 39  1  0  0  0  0
 39 40  1  0  0  0  0
 38 41  1  0  0  0  0
 41 42  2  0  0  0  0
 25 43  1  0  0  0  0
 43 44  1  0  0  0  0
 44 45  1  0  0  0  0
 45 46  2  0  0  0  0
 46 47  1  0  0  0  0
 47 48  1  0  0  0  0
 48 49  2  0  0  0  0
 49 50  1  0  0  0  0
 50 51  2  0  0  0  0
 51 52  1  0  0  0  0
 52 53  1  0  0  0  0
 51 54  1  0  0  0  0
 54 55  2  0  0  0  0
 47 56  1  0  0  0  0
 56 57  2  0  0  0  0
 57 58  1  0  0  0  0
 58 59  2  0  0  0  0
 59 60  1  0  0  0  0
 60 61  1  0  0  0  0
 59 62  1  0  0  0  0
 62 63  2  0  0  0  0
 46 64  1  0  0  0  0
 64 65  1  0  0  0  0
 45 66  1  0  0  0  0
 66 67  2  0  0  0  0
 67 68  1  0  0  0  0
 68 69  1  0  0  0  0
 69 70  1  0  0  0  0
 70 71  1  0  0  0  0
 69 72  1  0  0  0  0
 72 73  1  0  0  0  0
 69 74  1  0  0  0  0
 74 75  2  0  0  0  0
 75 76  1  0  0  0  0
 76 77  1  0  0  0  0
 77 78  2  0  0  0  0
 75 79  1  0  0  0  0
 79 80  2  0  0  0  0
 80 81  1  0  0  0  0
 81 82  2  0  0  0  0
 81 83  1  0  0  0  0
 83 84  2  0  0  0  0
 84 85  1  0  0  0  0
 85 86  2  0  0  0  0
 86 87  1  0  0  0  0
 87 88  2  0  0  0  0
 88 89  1  0  0  0  0
 89 90  2  0  0  0  0
 90 91  1  0  0  0  0
 91 92  1  0  0  0  0
 92 93  1  0  0  0  0
 90 94  1  0  0  0  0
 94 95  1  0  0  0  0
 94 96  2  0  0  0  0
 86 97  1  0  0  0  0
 97 98  2  0  0  0  0
 98 99  1  0  0  0  0
 99100  1  0  0  0  0
100101  2  0  0  0  0
101102  1  0  0  0  0
102103  2  0  0  0  0
103104  1  0  0  0  0
104105  1  0  0  0  0
105106  1  0  0  0  0
103107  1  0  0  0  0
107108  2  0  0  0  0
107109  1  0  0  0  0
 99110  2  0  0  0  0
110111  1  0  0  0  0
 98112  1  0  0  0  0
112113  2  0  0  0  0
113114  1  0  0  0  0
113115  1  0  0  0  0
115116  2  0  0  0  0
116117  1  0  0  0  0
117118  2  0  0  0  0
117119  1  0  0  0  0
119120  2  0  0  0  0
120121  1  0  0  0  0
121122  2  0  0  0  0
122123  1  0  0  0  0
123124  2  0  0  0  0
124125  1  0  0  0  0
125126  2  0  0  0  0
126127  1  0  0  0  0
127128  3  0  0  0  0
126129  1  0  0  0  0
129130  3  0  0  0  0
122131  1  0  0  0  0
131132  1  0  0  0  0
132133  1  0  0  0  0
133134  2  0  0  0  0
134135  1  0  0  0  0
135136  1  0  0  0  0
135137  1  0  0  0  0
 11  2  1  0  0  0  0
 23 17  1  0  0  0  0
 65 24  1  0  0  0  0
 78 66  1  0  0  0  0
111 83  1  0  0  0  0
125116  1  0  0  0  0
137131  1  0  0  0  0
 10  5  1  0  0  0  0
 22 18  1  0  0  0  0
 34 27  1  0  0  0  0
 42 35  1  0  0  0  0
 64 43  2  0  0  0  0
 76 68  2  0  0  0  0
110 85  1  0  0  0  0
124119  1  0  0  0  0
136132  1  0  0  0  0
 23  7  1  0  0  0  0
 55 48  1  0  0  0  0
 63 56  1  0  0  0  0
 82 74  1  0  0  0  0
 96 87  1  0  0  0  0
114 97  1  0  0  0  0
137121  1  0  0  0  0
108100  1  0  0  0  0
  1138  1  0  0  0  0
  6139  1  0  0  0  0
  9140  1  0  0  0  0
 17141  1  0  0  0  0
 18142  1  0  0  0  0
 19143  1  0  0  0  0
 20144  1  0  0  0  0
 21145  1  0  0  0  0
 22146  1  0  0  0  0
 22147  1  0  0  0  0
 23148  1  0  0  0  0
 28149  1  0  0  0  0
 29150  1  0  0  0  0
 32151  1  0  0  0  0
 32152  1  0  0  0  0
 32153  1  0  0  0  0
 33154  1  0  0  0  0
 34155  1  0  0  0  0
 36156  1  0  0  0  0
 37157  1  0  0  0  0
 40158  1  0  0  0  0
 40159  1  0  0  0  0
 40160  1  0  0  0  0
 41161  1  0  0  0  0
 42162  1  0  0  0  0
 49163  1  0  0  0  0
 50164  1  0  0  0  0
 53165  1  0  0  0  0
 53166  1  0  0  0  0
 53167  1  0  0  0  0
 54168  1  0  0  0  0
 55169  1  0  0  0  0
 57170  1  0  0  0  0
 58171  1  0  0  0  0
 61172  1  0  0  0  0
 61173  1  0  0  0  0
 61174  1  0  0  0  0
 62175  1  0  0  0  0
 63176  1  0  0  0  0
 67177  1  0  0  0  0
 70178  1  0  0  0  0
 70179  1  0  0  0  0
 71180  1  0  0  0  0
 71181  1  0  0  0  0
 71182  1  0  0  0  0
 72183  1  0  0  0  0
 72184  1  0  0  0  0
 73185  1  0  0  0  0
 73186  1  0  0  0  0
 73187  1  0  0  0  0
 77188  1  0  0  0  0
 78189  1  0  0  0  0
 79190  1  0  0  0  0
 80191  1  0  0  0  0
 82192  1  0  0  0  0
 84193  1  0  0  0  0
 88194  1  0  0  0  0
 89195  1  0  0  0  0
 92196  1  0  0  0  0
 92197  1  0  0  0  0
 93198  1  0  0  0  0
 93199  1  0  0  0  0
 93200  1  0  0  0  0
 96201  1  0  0  0  0
101202  1  0  0  0  0
102203  1  0  0  0  0
105204  1  0  0  0  0
105205  1  0  0  0  0
106206  1  0  0  0  0
106207  1  0  0  0  0
106208  1  0  0  0  0
108209  1  0  0  0  0
112210  1  0  0  0  0
115211  1  0  0  0  0
120212  1  0  0  0  0
123213  1  0  0  0  0
131214  1  0  0  0  0
132215  1  0  0  0  0
133216  1  0  0  0  0
134217  1  0  0  0  0
135218  1  0  0  0  0
136219  1  0  0  0  0
136220  1  0  0  0  0
137221  1  0  0  0  0
M  END
