
  xtb     02082206063D
 energy: -372.576858373376 gnorm: 0.000298198249 xtb: 6.4.1 (unknown)
205227  0     0  0            999 V2000
    6.7900   -2.6772    3.0700 C   0  0  0  0  0  0  0  0  0  0  0  0
    7.5422   -2.0304    4.0265 C   0  0  0  0  0  0  0  0  0  0  0  0
    6.9719   -1.2135    5.1108 C   0  0  0  0  0  0  0  0  0  0  0  0
    5.7950   -0.9685    5.3070 O   0  0  0  0  0  0  0  0  0  0  0  0
    8.1082   -0.8593    5.9863 C   0  0  0  0  0  0  0  0  0  0  0  0
    8.0699   -0.0875    7.1429 C   0  0  0  0  0  0  0  0  0  0  0  0
    9.3007    0.1179    7.7213 C   0  0  0  0  0  0  0  0  0  0  0  0
   10.4828   -0.4141    7.1924 C   0  0  0  0  0  0  0  0  0  0  0  0
   10.5324   -1.1958    6.0624 C   0  0  0  0  0  0  0  0  0  0  0  0
    9.2925   -1.4108    5.4589 C   0  0  0  0  0  0  0  0  0  0  0  0
    8.9590   -2.1370    4.2369 C   0  0  0  0  0  0  0  0  0  0  0  0
    9.8567   -2.6719    3.3449 C   0  0  0  0  0  0  0  0  0  0  0  0
   11.2520   -2.6923    3.5229 C   0  0  0  0  0  0  0  0  0  0  0  0
   12.3988   -2.7350    3.5855 N   0  0  0  0  0  0  0  0  0  0  0  0
    9.4985   -3.1867    2.0835 C   0  0  0  0  0  0  0  0  0  0  0  0
    9.2941   -3.5682    1.0189 N   0  0  0  0  0  0  0  0  0  0  0  0
   11.3390    0.2108    8.2639 C   0  0  0  0  0  0  0  0  0  0  0  0
   12.1385    1.4842    7.8934 C   0  0  0  0  0  0  0  0  0  0  0  0
   11.3794    2.1682    6.7830 C   0  0  0  0  0  0  0  0  0  0  0  0
   10.2668    2.6684    7.3042 C   0  0  0  0  0  0  0  0  0  0  0  0
   10.2497    2.3246    8.7727 C   0  0  0  0  0  0  0  0  0  0  0  0
   11.7544    2.3830    9.0799 C   0  0  0  0  0  0  0  0  0  0  0  0
   10.0207    0.7955    8.8620 C   0  0  0  0  0  0  0  0  0  0  0  0
    5.5329   -2.2691    2.6136 C   0  0  0  0  0  0  0  0  0  0  0  0
    4.9224   -0.9995    2.5969 C   0  0  0  0  0  0  0  0  0  0  0  0
    5.4736    0.2032    2.9458 N   0  0  0  0  0  0  0  0  0  0  0  0
    4.5863    1.2422    3.3011 C   0  0  0  0  0  0  0  0  0  0  0  0
    3.5795    0.9999    4.2314 C   0  0  0  0  0  0  0  0  0  0  0  0
    2.6053    1.9493    4.4642 C   0  0  0  0  0  0  0  0  0  0  0  0
    2.6304    3.1493    3.7645 C   0  0  0  0  0  0  0  0  0  0  0  0
    1.3358    4.3444    3.8892 S   0  0  0  0  0  0  0  0  0  0  0  0
   -0.1070    3.2961    4.2555 C   0  0  0  0  0  0  0  0  0  0  0  0
    3.6986    3.4369    2.9188 C   0  0  0  0  0  0  0  0  0  0  0  0
    4.6726    2.4895    2.6868 C   0  0  0  0  0  0  0  0  0  0  0  0
    6.8423    0.4745    2.8864 C   0  0  0  0  0  0  0  0  0  0  0  0
    7.4241    1.3039    3.8489 C   0  0  0  0  0  0  0  0  0  0  0  0
    8.7815    1.5294    3.8422 C   0  0  0  0  0  0  0  0  0  0  0  0
    9.5937    0.9424    2.8720 C   0  0  0  0  0  0  0  0  0  0  0  0
   11.3225    1.2309    3.0158 S   0  0  0  0  0  0  0  0  0  0  0  0
   12.0447    0.3850    1.5837 C   0  0  0  0  0  0  0  0  0  0  0  0
    9.0102    0.1688    1.8745 C   0  0  0  0  0  0  0  0  0  0  0  0
    7.6499   -0.0628    1.8856 C   0  0  0  0  0  0  0  0  0  0  0  0
    3.6221   -1.0910    2.0460 C   0  0  0  0  0  0  0  0  0  0  0  0
    2.4001    0.0767    1.7001 S   0  0  0  0  0  0  0  0  0  0  0  0
    1.3619   -1.1589    0.9886 C   0  0  0  0  0  0  0  0  0  0  0  0
    1.9772   -2.4102    0.9774 C   0  0  0  0  0  0  0  0  0  0  0  0
    1.4784   -3.5969    0.4735 N   0  0  0  0  0  0  0  0  0  0  0  0
    1.7753   -4.7750    1.1820 C   0  0  0  0  0  0  0  0  0  0  0  0
    2.1850   -5.9292    0.5145 C   0  0  0  0  0  0  0  0  0  0  0  0
    2.4885   -7.0668    1.2257 C   0  0  0  0  0  0  0  0  0  0  0  0
    2.3979   -7.0799    2.6177 C   0  0  0  0  0  0  0  0  0  0  0  0
    2.8216   -8.5942    3.4138 S   0  0  0  0  0  0  0  0  0  0  0  0
    2.6578   -8.2227    5.1832 C   0  0  0  0  0  0  0  0  0  0  0  0
    1.9878   -5.9337    3.2850 C   0  0  0  0  0  0  0  0  0  0  0  0
    1.6763   -4.7940    2.5699 C   0  0  0  0  0  0  0  0  0  0  0  0
    0.8103   -3.6713   -0.7505 C   0  0  0  0  0  0  0  0  0  0  0  0
   -0.1680   -4.6458   -0.9505 C   0  0  0  0  0  0  0  0  0  0  0  0
   -0.8671   -4.7072   -2.1365 C   0  0  0  0  0  0  0  0  0  0  0  0
   -0.6030   -3.7928   -3.1489 C   0  0  0  0  0  0  0  0  0  0  0  0
   -1.4926   -3.7749   -4.6726 S   0  0  0  0  0  0  0  0  0  0  0  0
   -2.0125   -5.5094   -4.8495 C   0  0  0  0  0  0  0  0  0  0  0  0
    0.3842   -2.8296   -2.9635 C   0  0  0  0  0  0  0  0  0  0  0  0
    1.0904   -2.7725   -1.7814 C   0  0  0  0  0  0  0  0  0  0  0  0
    3.2533   -2.3480    1.5985 C   0  0  0  0  0  0  0  0  0  0  0  0
    4.5159   -3.5001    1.8445 S   0  0  0  0  0  0  0  0  0  0  0  0
    0.0856   -0.6883    0.5753 C   0  0  0  0  0  0  0  0  0  0  0  0
   -0.3216    0.6190    0.6938 C   0  0  0  0  0  0  0  0  0  0  0  0
   -1.6147    0.8736    0.1963 C   0  0  0  0  0  0  0  0  0  0  0  0
   -2.2779    2.1125    0.0972 C   0  0  0  0  0  0  0  0  0  0  0  0
   -1.6352    3.3698    0.5012 C   0  0  0  0  0  0  0  0  0  0  0  0
   -2.2973    4.2863    1.3127 C   0  0  0  0  0  0  0  0  0  0  0  0
   -1.7189    5.4907    1.6616 C   0  0  0  0  0  0  0  0  0  0  0  0
   -0.4519    5.8348    1.1920 C   0  0  0  0  0  0  0  0  0  0  0  0
    0.1895    6.9950    1.4102 O   0  0  0  0  0  0  0  0  0  0  0  0
   -0.3614    7.9738    2.2736 C   0  0  0  0  0  0  0  0  0  0  0  0
   -0.1780    7.6238    3.7455 C   0  0  0  0  0  0  0  0  0  0  0  0
    0.2177    4.9044    0.3773 C   0  0  0  0  0  0  0  0  0  0  0  0
    1.5634    5.2787   -0.1731 C   0  0  0  0  0  0  0  0  0  0  0  0
    2.4414    5.6627    0.7660 F   0  0  0  0  0  0  0  0  0  0  0  0
    1.4924    6.2916   -1.0561 F   0  0  0  0  0  0  0  0  0  0  0  0
    2.1541    4.2615   -0.8261 F   0  0  0  0  0  0  0  0  0  0  0  0
   -0.3637    3.6967    0.0395 C   0  0  0  0  0  0  0  0  0  0  0  0
   -3.5459    2.0941   -0.4617 C   0  0  0  0  0  0  0  0  0  0  0  0
   -4.1376    0.9071   -0.9661 C   0  0  0  0  0  0  0  0  0  0  0  0
   -3.4424   -0.3178   -0.9444 C   0  0  0  0  0  0  0  0  0  0  0  0
   -3.9546   -1.4696   -1.6937 C   0  0  0  0  0  0  0  0  0  0  0  0
   -4.3981   -1.2812   -3.0039 C   0  0  0  0  0  0  0  0  0  0  0  0
   -4.9196   -2.3158   -3.7484 C   0  0  0  0  0  0  0  0  0  0  0  0
   -5.0151   -3.5968   -3.2049 C   0  0  0  0  0  0  0  0  0  0  0  0
   -5.5554   -4.6676   -3.8138 O   0  0  0  0  0  0  0  0  0  0  0  0
   -6.2086   -4.5108   -5.0675 C   0  0  0  0  0  0  0  0  0  0  0  0
   -5.2426   -4.5630   -6.2451 C   0  0  0  0  0  0  0  0  0  0  0  0
   -4.5174   -3.7981   -1.9051 C   0  0  0  0  0  0  0  0  0  0  0  0
   -3.9956   -2.7521   -1.1627 C   0  0  0  0  0  0  0  0  0  0  0  0
   -4.6149   -5.1726   -1.3126 C   0  0  0  0  0  0  0  0  0  0  0  0
   -4.0289   -5.2646   -0.1071 F   0  0  0  0  0  0  0  0  0  0  0  0
   -4.0243   -6.1170   -2.0716 F   0  0  0  0  0  0  0  0  0  0  0  0
   -5.8843   -5.5781   -1.1396 F   0  0  0  0  0  0  0  0  0  0  0  0
   -2.2205   -0.3119   -0.2988 C   0  0  0  0  0  0  0  0  0  0  0  0
   -1.1759   -1.6920   -0.1071 S   0  0  0  0  0  0  0  0  0  0  0  0
   -5.4104    1.1453   -1.5187 C   0  0  0  0  0  0  0  0  0  0  0  0
   -5.7614    2.4690   -1.5367 C   0  0  0  0  0  0  0  0  0  0  0  0
   -4.5519    3.4853   -0.7912 S   0  0  0  0  0  0  0  0  0  0  0  0
   -6.8528    3.0089   -2.2894 C   0  0  0  0  0  0  0  0  0  0  0  0
   -7.9352    2.2437   -2.7104 C   0  0  0  0  0  0  0  0  0  0  0  0
   -8.1937    1.0522   -2.1386 F   0  0  0  0  0  0  0  0  0  0  0  0
   -8.7407    2.6087   -3.7908 C   0  0  0  0  0  0  0  0  0  0  0  0
   -9.7025    1.7397   -4.1601 F   0  0  0  0  0  0  0  0  0  0  0  0
   -8.5570    3.7762   -4.5189 C   0  0  0  0  0  0  0  0  0  0  0  0
   -7.6285    4.6885   -3.9618 C   0  0  0  0  0  0  0  0  0  0  0  0
   -6.7822    4.3051   -2.8620 C   0  0  0  0  0  0  0  0  0  0  0  0
   -5.9202    5.2634   -2.5424 N   0  0  0  0  0  0  0  0  0  0  0  0
   -6.1485    6.5178   -3.5193 S   0  0  0  0  0  0  0  0  0  0  0  0
   -7.3444    5.9091   -4.4052 N   0  0  0  0  0  0  0  0  0  0  0  0
   -9.1834    4.0202   -5.7918 C   0  0  0  0  0  0  0  0  0  0  0  0
   -9.3817    3.0960   -6.7585 C   0  0  0  0  0  0  0  0  0  0  0  0
  -10.3180    3.3656   -7.8892 C   0  0  0  0  0  0  0  0  0  0  0  0
  -10.7575    4.4402   -8.2229 O   0  0  0  0  0  0  0  0  0  0  0  0
  -10.6241    2.0402   -8.4596 C   0  0  0  0  0  0  0  0  0  0  0  0
  -11.5409    1.7504   -9.4690 C   0  0  0  0  0  0  0  0  0  0  0  0
  -11.6181    0.4166   -9.7901 C   0  0  0  0  0  0  0  0  0  0  0  0
  -10.8457   -0.5658   -9.1528 C   0  0  0  0  0  0  0  0  0  0  0  0
   -9.9350   -0.2966   -8.1605 C   0  0  0  0  0  0  0  0  0  0  0  0
   -9.8367    1.0568   -7.8215 C   0  0  0  0  0  0  0  0  0  0  0  0
   -8.9460    1.7122   -6.8737 C   0  0  0  0  0  0  0  0  0  0  0  0
   -7.7943    1.1706   -6.3669 C   0  0  0  0  0  0  0  0  0  0  0  0
   -7.4166   -0.1833   -6.4722 C   0  0  0  0  0  0  0  0  0  0  0  0
   -7.0486   -1.2717   -6.4630 N   0  0  0  0  0  0  0  0  0  0  0  0
   -6.7835    1.8996   -5.7054 C   0  0  0  0  0  0  0  0  0  0  0  0
   -5.8811    2.4162   -5.2169 N   0  0  0  0  0  0  0  0  0  0  0  0
  -11.4442   -1.6817   -9.9717 C   0  0  0  0  0  0  0  0  0  0  0  0
  -12.5099   -2.5550   -9.2762 C   0  0  0  0  0  0  0  0  0  0  0  0
  -13.2392   -3.2165  -10.4234 C   0  0  0  0  0  0  0  0  0  0  0  0
  -13.9689   -2.2871  -11.0271 C   0  0  0  0  0  0  0  0  0  0  0  0
  -13.7454   -0.9817  -10.2981 C   0  0  0  0  0  0  0  0  0  0  0  0
  -13.5534   -1.5066   -8.8694 C   0  0  0  0  0  0  0  0  0  0  0  0
  -12.3033   -0.5874  -10.6830 C   0  0  0  0  0  0  0  0  0  0  0  0
    7.1750   -3.5912    2.6336 H   0  0  0  0  0  0  0  0  0  0  0  0
    7.1381    0.3094    7.5155 H   0  0  0  0  0  0  0  0  0  0  0  0
   11.4479   -1.6091    5.6729 H   0  0  0  0  0  0  0  0  0  0  0  0
   11.9178   -0.4766    8.8778 H   0  0  0  0  0  0  0  0  0  0  0  0
   13.1967    1.3151    7.7140 H   0  0  0  0  0  0  0  0  0  0  0  0
   11.6937    2.1667    5.7554 H   0  0  0  0  0  0  0  0  0  0  0  0
    9.4643    3.1801    6.8049 H   0  0  0  0  0  0  0  0  0  0  0  0
    9.5879    2.9185    9.3981 H   0  0  0  0  0  0  0  0  0  0  0  0
   12.1623    3.3892    8.9959 H   0  0  0  0  0  0  0  0  0  0  0  0
   12.0169    1.9592   10.0484 H   0  0  0  0  0  0  0  0  0  0  0  0
    9.7320    0.4764    9.8619 H   0  0  0  0  0  0  0  0  0  0  0  0
    3.5729    0.0595    4.7603 H   0  0  0  0  0  0  0  0  0  0  0  0
    1.8258    1.7429    5.1801 H   0  0  0  0  0  0  0  0  0  0  0  0
   -0.0597    2.3983    3.6470 H   0  0  0  0  0  0  0  0  0  0  0  0
   -0.9817    3.8779    3.9820 H   0  0  0  0  0  0  0  0  0  0  0  0
   -0.1430    3.0507    5.3129 H   0  0  0  0  0  0  0  0  0  0  0  0
    3.7339    4.3913    2.4191 H   0  0  0  0  0  0  0  0  0  0  0  0
    5.4778    2.6939    1.9973 H   0  0  0  0  0  0  0  0  0  0  0  0
    6.8021    1.7471    4.6115 H   0  0  0  0  0  0  0  0  0  0  0  0
    9.2382    2.1425    4.6026 H   0  0  0  0  0  0  0  0  0  0  0  0
   11.8697   -0.6846    1.6511 H   0  0  0  0  0  0  0  0  0  0  0  0
   11.6399    0.8000    0.6654 H   0  0  0  0  0  0  0  0  0  0  0  0
   13.1108    0.5814    1.6402 H   0  0  0  0  0  0  0  0  0  0  0  0
    9.6028   -0.2719    1.0891 H   0  0  0  0  0  0  0  0  0  0  0  0
    7.2136   -0.6728    1.1090 H   0  0  0  0  0  0  0  0  0  0  0  0
    2.2722   -5.9214   -0.5613 H   0  0  0  0  0  0  0  0  0  0  0  0
    2.8120   -7.9600    0.7140 H   0  0  0  0  0  0  0  0  0  0  0  0
    1.6259   -7.9797    5.4193 H   0  0  0  0  0  0  0  0  0  0  0  0
    3.3290   -7.4136    5.4557 H   0  0  0  0  0  0  0  0  0  0  0  0
    2.9483   -9.1322    5.6997 H   0  0  0  0  0  0  0  0  0  0  0  0
    1.9001   -5.9127    4.3589 H   0  0  0  0  0  0  0  0  0  0  0  0
    1.3501   -3.9071    3.0936 H   0  0  0  0  0  0  0  0  0  0  0  0
   -0.3995   -5.3414   -0.1586 H   0  0  0  0  0  0  0  0  0  0  0  0
   -1.6274   -5.4605   -2.2575 H   0  0  0  0  0  0  0  0  0  0  0  0
   -1.1876   -6.1568   -4.5700 H   0  0  0  0  0  0  0  0  0  0  0  0
   -2.2466   -5.6416   -5.9011 H   0  0  0  0  0  0  0  0  0  0  0  0
   -2.8907   -5.7119   -4.2448 H   0  0  0  0  0  0  0  0  0  0  0  0
    0.5928   -2.1286   -3.7568 H   0  0  0  0  0  0  0  0  0  0  0  0
    1.8601   -2.0267   -1.6490 H   0  0  0  0  0  0  0  0  0  0  0  0
    0.3079    1.3817    1.1166 H   0  0  0  0  0  0  0  0  0  0  0  0
   -3.2811    4.0473    1.6875 H   0  0  0  0  0  0  0  0  0  0  0  0
   -2.2712    6.1695    2.2909 H   0  0  0  0  0  0  0  0  0  0  0  0
    0.2014    8.8797    2.0348 H   0  0  0  0  0  0  0  0  0  0  0  0
   -1.4172    8.1476    2.0330 H   0  0  0  0  0  0  0  0  0  0  0  0
   -0.5265    8.4473    4.3621 H   0  0  0  0  0  0  0  0  0  0  0  0
    0.8737    7.4432    3.9495 H   0  0  0  0  0  0  0  0  0  0  0  0
   -0.7297    6.7254    4.0091 H   0  0  0  0  0  0  0  0  0  0  0  0
    0.1624    3.0198   -0.6158 H   0  0  0  0  0  0  0  0  0  0  0  0
   -4.3155   -0.3044   -3.4568 H   0  0  0  0  0  0  0  0  0  0  0  0
   -5.2581   -2.1149   -4.7515 H   0  0  0  0  0  0  0  0  0  0  0  0
   -6.7865   -3.5816   -5.0811 H   0  0  0  0  0  0  0  0  0  0  0  0
   -6.9016   -5.3552   -5.1137 H   0  0  0  0  0  0  0  0  0  0  0  0
   -5.7878   -4.3628   -7.1628 H   0  0  0  0  0  0  0  0  0  0  0  0
   -4.7853   -5.5468   -6.3112 H   0  0  0  0  0  0  0  0  0  0  0  0
   -4.4564   -3.8201   -6.1364 H   0  0  0  0  0  0  0  0  0  0  0  0
   -3.6498   -2.9363   -0.1573 H   0  0  0  0  0  0  0  0  0  0  0  0
   -6.0233    0.3620   -1.9223 H   0  0  0  0  0  0  0  0  0  0  0  0
   -9.5165    5.0313   -5.9923 H   0  0  0  0  0  0  0  0  0  0  0  0
  -12.1139    2.5344   -9.9383 H   0  0  0  0  0  0  0  0  0  0  0  0
   -9.3480   -1.0574   -7.6725 H   0  0  0  0  0  0  0  0  0  0  0  0
  -10.7408   -2.2611  -10.5667 H   0  0  0  0  0  0  0  0  0  0  0  0
  -12.1255   -3.2087   -8.4982 H   0  0  0  0  0  0  0  0  0  0  0  0
  -13.1108   -4.2459  -10.7019 H   0  0  0  0  0  0  0  0  0  0  0  0
  -14.5715   -2.3850  -11.9108 H   0  0  0  0  0  0  0  0  0  0  0  0
  -14.4869   -0.2024  -10.4511 H   0  0  0  0  0  0  0  0  0  0  0  0
  -14.4599   -1.9612   -8.4736 H   0  0  0  0  0  0  0  0  0  0  0  0
  -13.1841   -0.7612   -8.1675 H   0  0  0  0  0  0  0  0  0  0  0  0
  -12.1740   -0.4371  -11.7530 H   0  0  0  0  0  0  0  0  0  0  0  0
  1  2  2  0  0  0  0
  2  3  1  0  0  0  0
  3  4  2  0  0  0  0
  3  5  1  0  0  0  0
  5  6  2  0  0  0  0
  6  7  1  0  0  0  0
  7  8  2  0  0  0  0
  8  9  1  0  0  0  0
  9 10  2  0  0  0  0
 10 11  1  0  0  0  0
 11 12  2  0  0  0  0
 12 13  1  0  0  0  0
 13 14  3  0  0  0  0
 12 15  1  0  0  0  0
 15 16  3  0  0  0  0
  8 17  1  0  0  0  0
 17 18  1  0  0  0  0
 18 19  1  0  0  0  0
 19 20  2  0  0  0  0
 20 21  1  0  0  0  0
 21 22  1  0  0  0  0
 21 23  1  0  0  0  0
  1 24  1  0  0  0  0
 24 25  2  0  0  0  0
 25 26  1  0  0  0  0
 26 27  1  0  0  0  0
 27 28  2  0  0  0  0
 28 29  1  0  0  0  0
 29 30  2  0  0  0  0
 30 31  1  0  0  0  0
 31 32  1  0  0  0  0
 30 33  1  0  0  0  0
 33 34  2  0  0  0  0
 26 35  1  0  0  0  0
 35 36  2  0  0  0  0
 36 37  1  0  0  0  0
 37 38  2  0  0  0  0
 38 39  1  0  0  0  0
 39 40  1  0  0  0  0
 38 41  1  0  0  0  0
 41 42  2  0  0  0  0
 25 43  1  0  0  0  0
 43 44  1  0  0  0  0
 44 45  1  0  0  0  0
 45 46  2  0  0  0  0
 46 47  1  0  0  0  0
 47 48  1  0  0  0  0
 48 49  2  0  0  0  0
 49 50  1  0  0  0  0
 50 51  2  0  0  0  0
 51 52  1  0  0  0  0
 52 53  1  0  0  0  0
 51 54  1  0  0  0  0
 54 55  2  0  0  0  0
 47 56  1  0  0  0  0
 56 57  2  0  0  0  0
 57 58  1  0  0  0  0
 58 59  2  0  0  0  0
 59 60  1  0  0  0  0
 60 61  1  0  0  0  0
 59 62  1  0  0  0  0
 62 63  2  0  0  0  0
 46 64  1  0  0  0  0
 64 65  1  0  0  0  0
 45 66  1  0  0  0  0
 66 67  2  0  0  0  0
 67 68  1  0  0  0  0
 68 69  2  0  0  0  0
 69 70  1  0  0  0  0
 70 71  2  0  0  0  0
 71 72  1  0  0  0  0
 72 73  2  0  0  0  0
 73 74  1  0  0  0  0
 74 75  1  0  0  0  0
 75 76  1  0  0  0  0
 73 77  1  0  0  0  0
 77 78  1  0  0  0  0
 78 79  1  0  0  0  0
 78 80  1  0  0  0  0
 78 81  1  0  0  0  0
 77 82  2  0  0  0  0
 69 83  1  0  0  0  0
 83 84  2  0  0  0  0
 84 85  1  0  0  0  0
 85 86  1  0  0  0  0
 86 87  2  0  0  0  0
 87 88  1  0  0  0  0
 88 89  2  0  0  0  0
 89 90  1  0  0  0  0
 90 91  1  0  0  0  0
 91 92  1  0  0  0  0
 89 93  1  0  0  0  0
 93 94  2  0  0  0  0
 93 95  1  0  0  0  0
 95 96  1  0  0  0  0
 95 97  1  0  0  0  0
 95 98  1  0  0  0  0
 85 99  2  0  0  0  0
 99100  1  0  0  0  0
 84101  1  0  0  0  0
101102  2  0  0  0  0
102103  1  0  0  0  0
102104  1  0  0  0  0
104105  2  0  0  0  0
105106  1  0  0  0  0
105107  1  0  0  0  0
107108  1  0  0  0  0
107109  2  0  0  0  0
109110  1  0  0  0  0
110111  1  0  0  0  0
111112  2  0  0  0  0
112113  1  0  0  0  0
113114  1  0  0  0  0
109115  1  0  0  0  0
115116  2  0  0  0  0
116117  1  0  0  0  0
117118  2  0  0  0  0
117119  1  0  0  0  0
119120  2  0  0  0  0
120121  1  0  0  0  0
121122  2  0  0  0  0
122123  1  0  0  0  0
123124  2  0  0  0  0
124125  1  0  0  0  0
125126  2  0  0  0  0
126127  1  0  0  0  0
127128  3  0  0  0  0
126129  1  0  0  0  0
129130  3  0  0  0  0
122131  1  0  0  0  0
131132  1  0  0  0  0
132133  1  0  0  0  0
133134  2  0  0  0  0
134135  1  0  0  0  0
135136  1  0  0  0  0
135137  1  0  0  0  0
 11  2  1  0  0  0  0
 23 17  1  0  0  0  0
 65 24  1  0  0  0  0
100 66  1  0  0  0  0
111104  1  0  0  0  0
125116  1  0  0  0  0
137131  1  0  0  0  0
 10  5  1  0  0  0  0
 22 18  1  0  0  0  0
 34 27  1  0  0  0  0
 42 35  1  0  0  0  0
 64 43  2  0  0  0  0
 99 68  1  0  0  0  0
114110  2  0  0  0  0
124119  1  0  0  0  0
136132  1  0  0  0  0
 23  7  1  0  0  0  0
 55 48  1  0  0  0  0
 63 56  1  0  0  0  0
 82 70  1  0  0  0  0
103 83  1  0  0  0  0
137121  1  0  0  0  0
 94 86  1  0  0  0  0
  1138  1  0  0  0  0
  6139  1  0  0  0  0
  9140  1  0  0  0  0
 17141  1  0  0  0  0
 18142  1  0  0  0  0
 19143  1  0  0  0  0
 20144  1  0  0  0  0
 21145  1  0  0  0  0
 22146  1  0  0  0  0
 22147  1  0  0  0  0
 23148  1  0  0  0  0
 28149  1  0  0  0  0
 29150  1  0  0  0  0
 32151  1  0  0  0  0
 32152  1  0  0  0  0
 32153  1  0  0  0  0
 33154  1  0  0  0  0
 34155  1  0  0  0  0
 36156  1  0  0  0  0
 37157  1  0  0  0  0
 40158  1  0  0  0  0
 40159  1  0  0  0  0
 40160  1  0  0  0  0
 41161  1  0  0  0  0
 42162  1  0  0  0  0
 49163  1  0  0  0  0
 50164  1  0  0  0  0
 53165  1  0  0  0  0
 53166  1  0  0  0  0
 53167  1  0  0  0  0
 54168  1  0  0  0  0
 55169  1  0  0  0  0
 57170  1  0  0  0  0
 58171  1  0  0  0  0
 61172  1  0  0  0  0
 61173  1  0  0  0  0
 61174  1  0  0  0  0
 62175  1  0  0  0  0
 63176  1  0  0  0  0
 67177  1  0  0  0  0
 71178  1  0  0  0  0
 72179  1  0  0  0  0
 75180  1  0  0  0  0
 75181  1  0  0  0  0
 76182  1  0  0  0  0
 76183  1  0  0  0  0
 76184  1  0  0  0  0
 82185  1  0  0  0  0
 87186  1  0  0  0  0
 88187  1  0  0  0  0
 91188  1  0  0  0  0
 91189  1  0  0  0  0
 92190  1  0  0  0  0
 92191  1  0  0  0  0
 92192  1  0  0  0  0
 94193  1  0  0  0  0
101194  1  0  0  0  0
115195  1  0  0  0  0
120196  1  0  0  0  0
123197  1  0  0  0  0
131198  1  0  0  0  0
132199  1  0  0  0  0
133200  1  0  0  0  0
134201  1  0  0  0  0
135202  1  0  0  0  0
136203  1  0  0  0  0
136204  1  0  0  0  0
137205  1  0  0  0  0
M  END
