
  xtb     02062210203D
 energy: -292.745687309349 gnorm: 0.001546781745 xtb: 6.4.1 (unknown)
160176  0     0  0            999 V2000
   -3.7993    2.9119   -5.3078 C   0  0  0  0  0  0  0  0  0  0  0  0
   -3.6140    3.6210   -6.4566 C   0  0  0  0  0  0  0  0  0  0  0  0
   -2.4654    3.6312   -7.3990 C   0  0  0  0  0  0  0  0  0  0  0  0
   -1.3598    3.1510   -7.2607 O   0  0  0  0  0  0  0  0  0  0  0  0
   -2.9361    4.3422   -8.6006 C   0  0  0  0  0  0  0  0  0  0  0  0
   -2.2230    4.5258   -9.7835 C   0  0  0  0  0  0  0  0  0  0  0  0
   -2.9196    5.1993  -10.7572 C   0  0  0  0  0  0  0  0  0  0  0  0
   -4.2302    5.6600  -10.5676 C   0  0  0  0  0  0  0  0  0  0  0  0
   -4.9394    5.4964   -9.4018 C   0  0  0  0  0  0  0  0  0  0  0  0
   -4.2484    4.8112   -8.3967 C   0  0  0  0  0  0  0  0  0  0  0  0
   -4.6632    4.4444   -7.0475 C   0  0  0  0  0  0  0  0  0  0  0  0
   -5.8114    4.8682   -6.4319 C   0  0  0  0  0  0  0  0  0  0  0  0
   -6.7797    5.6966   -7.0399 C   0  0  0  0  0  0  0  0  0  0  0  0
   -7.6098    6.3679   -7.4628 N   0  0  0  0  0  0  0  0  0  0  0  0
   -6.2042    4.6037   -5.1029 C   0  0  0  0  0  0  0  0  0  0  0  0
   -6.6312    4.4850   -4.0419 N   0  0  0  0  0  0  0  0  0  0  0  0
   -4.3162    6.2291  -11.9617 C   0  0  0  0  0  0  0  0  0  0  0  0
   -5.1153    5.4300  -13.0208 C   0  0  0  0  0  0  0  0  0  0  0  0
   -5.0680    3.9838  -12.5937 C   0  0  0  0  0  0  0  0  0  0  0  0
   -3.8278    3.5490  -12.7724 C   0  0  0  0  0  0  0  0  0  0  0  0
   -3.0135    4.6938  -13.3233 C   0  0  0  0  0  0  0  0  0  0  0  0
   -4.0850    5.4090  -14.1616 C   0  0  0  0  0  0  0  0  0  0  0  0
   -2.8558    5.7180  -12.1718 C   0  0  0  0  0  0  0  0  0  0  0  0
   -2.9528    2.0724   -4.5262 C   0  0  0  0  0  0  0  0  0  0  0  0
   -1.5877    1.8575   -4.6802 C   0  0  0  0  0  0  0  0  0  0  0  0
   -0.8581    1.1069   -3.7674 C   0  0  0  0  0  0  0  0  0  0  0  0
    0.4700    1.0073   -3.9801 F   0  0  0  0  0  0  0  0  0  0  0  0
   -1.3794    0.5455   -2.6055 C   0  0  0  0  0  0  0  0  0  0  0  0
   -2.7907    0.6430   -2.4868 C   0  0  0  0  0  0  0  0  0  0  0  0
   -3.5651    1.4011   -3.4269 C   0  0  0  0  0  0  0  0  0  0  0  0
   -4.8634    1.3592   -3.1439 N   0  0  0  0  0  0  0  0  0  0  0  0
   -5.0887    0.4425   -1.8428 S   0  0  0  0  0  0  0  0  0  0  0  0
   -3.5522    0.0575   -1.5648 N   0  0  0  0  0  0  0  0  0  0  0  0
   -0.5881   -0.0526   -1.5722 C   0  0  0  0  0  0  0  0  0  0  0  0
   -0.7748    0.0820   -0.1956 C   0  0  0  0  0  0  0  0  0  0  0  0
   -1.6004    1.0011    0.4089 N   0  0  0  0  0  0  0  0  0  0  0  0
   -2.0306    0.7837    1.7266 C   0  0  0  0  0  0  0  0  0  0  0  0
   -2.4939   -0.4688    2.1292 C   0  0  0  0  0  0  0  0  0  0  0  0
   -2.8612   -0.6802    3.4394 C   0  0  0  0  0  0  0  0  0  0  0  0
   -2.7804    0.3524    4.3719 C   0  0  0  0  0  0  0  0  0  0  0  0
   -3.2194   -0.0518    6.0323 S   0  0  0  0  0  0  0  0  0  0  0  0
   -3.1123    1.5323    6.9157 C   0  0  0  0  0  0  0  0  0  0  0  0
   -2.3571    1.6112    3.9645 C   0  0  0  0  0  0  0  0  0  0  0  0
   -1.9870    1.8226    2.6512 C   0  0  0  0  0  0  0  0  0  0  0  0
   -1.9856    2.1848   -0.2429 C   0  0  0  0  0  0  0  0  0  0  0  0
   -1.0891    2.8955   -1.0424 C   0  0  0  0  0  0  0  0  0  0  0  0
   -1.5162    3.9882   -1.7624 C   0  0  0  0  0  0  0  0  0  0  0  0
   -2.8442    4.4081   -1.6950 C   0  0  0  0  0  0  0  0  0  0  0  0
   -3.2979    5.7641   -2.7262 S   0  0  0  0  0  0  0  0  0  0  0  0
   -4.9045    6.2893   -2.0631 C   0  0  0  0  0  0  0  0  0  0  0  0
   -3.7232    3.7465   -0.8474 C   0  0  0  0  0  0  0  0  0  0  0  0
   -3.2914    2.6523   -0.1219 C   0  0  0  0  0  0  0  0  0  0  0  0
    0.1181   -0.7601    0.5127 C   0  0  0  0  0  0  0  0  0  0  0  0
    0.4207   -1.0573    2.1987 S   0  0  0  0  0  0  0  0  0  0  0  0
    1.6772   -2.2039    1.7754 C   0  0  0  0  0  0  0  0  0  0  0  0
    1.9719   -2.2020    0.4029 C   0  0  0  0  0  0  0  0  0  0  0  0
    3.1100   -2.7179   -0.1653 N   0  0  0  0  0  0  0  0  0  0  0  0
    3.1000   -3.1300   -1.5045 C   0  0  0  0  0  0  0  0  0  0  0  0
    4.1853   -2.8492   -2.3358 C   0  0  0  0  0  0  0  0  0  0  0  0
    4.1678   -3.2497   -3.6510 C   0  0  0  0  0  0  0  0  0  0  0  0
    3.0687   -3.9364   -4.1689 C   0  0  0  0  0  0  0  0  0  0  0  0
    3.1645   -4.3928   -5.8671 S   0  0  0  0  0  0  0  0  0  0  0  0
    1.5253   -5.0839   -6.2290 C   0  0  0  0  0  0  0  0  0  0  0  0
    1.9936   -4.2290   -3.3398 C   0  0  0  0  0  0  0  0  0  0  0  0
    2.0120   -3.8302   -2.0179 C   0  0  0  0  0  0  0  0  0  0  0  0
    4.3037   -2.7915    0.5736 C   0  0  0  0  0  0  0  0  0  0  0  0
    4.6290   -1.8025    1.4991 C   0  0  0  0  0  0  0  0  0  0  0  0
    5.7161   -1.9532    2.3344 C   0  0  0  0  0  0  0  0  0  0  0  0
    6.5094   -3.0924    2.2489 C   0  0  0  0  0  0  0  0  0  0  0  0
    7.8417   -3.4314    3.3480 S   0  0  0  0  0  0  0  0  0  0  0  0
    7.4294   -2.4259    4.8015 C   0  0  0  0  0  0  0  0  0  0  0  0
    6.2468   -4.0315    1.2528 C   0  0  0  0  0  0  0  0  0  0  0  0
    5.1577   -3.8853    0.4242 C   0  0  0  0  0  0  0  0  0  0  0  0
    1.0190   -1.4297   -0.3031 C   0  0  0  0  0  0  0  0  0  0  0  0
    0.7833   -1.0669   -1.9763 S   0  0  0  0  0  0  0  0  0  0  0  0
    2.2748   -2.9802    2.8037 C   0  0  0  0  0  0  0  0  0  0  0  0
    2.8829   -4.2221    2.5953 C   0  0  0  0  0  0  0  0  0  0  0  0
    2.7189   -4.8578    1.4176 F   0  0  0  0  0  0  0  0  0  0  0  0
    3.5891   -4.8679    3.5978 C   0  0  0  0  0  0  0  0  0  0  0  0
    4.1747   -6.0420    3.3142 F   0  0  0  0  0  0  0  0  0  0  0  0
    3.6511   -4.3887    4.9064 C   0  0  0  0  0  0  0  0  0  0  0  0
    2.9446   -3.1814    5.1795 C   0  0  0  0  0  0  0  0  0  0  0  0
    2.9964   -2.6349    6.4097 N   0  0  0  0  0  0  0  0  0  0  0  0
    2.2870   -1.5634    6.6509 C   0  0  0  0  0  0  0  0  0  0  0  0
    2.2964   -0.9951    7.8561 O   0  0  0  0  0  0  0  0  0  0  0  0
    3.0241   -1.6492    8.8903 C   0  0  0  0  0  0  0  0  0  0  0  0
    4.5327   -1.5078    8.7440 C   0  0  0  0  0  0  0  0  0  0  0  0
    1.4737   -0.9523    5.6388 C   0  0  0  0  0  0  0  0  0  0  0  0
    1.5205   -1.4178    4.4243 N   0  0  0  0  0  0  0  0  0  0  0  0
    2.2477   -2.5154    4.1506 C   0  0  0  0  0  0  0  0  0  0  0  0
    0.5831    0.1955    5.9522 C   0  0  0  0  0  0  0  0  0  0  0  0
    4.4034   -5.0641    5.9173 C   0  0  0  0  0  0  0  0  0  0  0  0
    3.9921   -5.1751    7.2132 C   0  0  0  0  0  0  0  0  0  0  0  0
    2.5731   -5.0525    7.6333 C   0  0  0  0  0  0  0  0  0  0  0  0
    1.6015   -4.8552    6.9406 O   0  0  0  0  0  0  0  0  0  0  0  0
    2.5668   -5.3887    9.0787 C   0  0  0  0  0  0  0  0  0  0  0  0
    3.8609   -5.7651    9.4829 C   0  0  0  0  0  0  0  0  0  0  0  0
    4.0882   -6.1745   10.7875 C   0  0  0  0  0  0  0  0  0  0  0  0
    3.0234   -6.1810   11.6767 C   0  0  0  0  0  0  0  0  0  0  0  0
    1.7549   -5.7852   11.2808 C   0  0  0  0  0  0  0  0  0  0  0  0
    0.3539   -5.7814   12.5496 Br  0  0  0  0  0  0  0  0  0  0  0  0
    1.5003   -5.3882    9.9634 C   0  0  0  0  0  0  0  0  0  0  0  0
   -0.0637   -4.8937    9.4675 Cl  0  0  0  0  0  0  0  0  0  0  0  0
    4.7700   -5.6059    8.3510 C   0  0  0  0  0  0  0  0  0  0  0  0
    6.1358   -5.7204    8.4060 C   0  0  0  0  0  0  0  0  0  0  0  0
    7.0090   -5.3912    7.3495 C   0  0  0  0  0  0  0  0  0  0  0  0
    7.7972   -5.0975    6.5679 N   0  0  0  0  0  0  0  0  0  0  0  0
    6.8546   -6.1227    9.5499 C   0  0  0  0  0  0  0  0  0  0  0  0
    7.4920   -6.4469   10.4483 N   0  0  0  0  0  0  0  0  0  0  0  0
   -4.7941    2.9621   -4.8787 H   0  0  0  0  0  0  0  0  0  0  0  0
   -1.2155    4.1534   -9.8849 H   0  0  0  0  0  0  0  0  0  0  0  0
   -5.9466    5.8559   -9.2743 H   0  0  0  0  0  0  0  0  0  0  0  0
   -4.4962    7.3001  -12.0276 H   0  0  0  0  0  0  0  0  0  0  0  0
   -6.0998    5.8332  -13.2420 H   0  0  0  0  0  0  0  0  0  0  0  0
   -5.9018    3.4583  -12.1659 H   0  0  0  0  0  0  0  0  0  0  0  0
   -3.4179    2.5876  -12.5235 H   0  0  0  0  0  0  0  0  0  0  0  0
   -2.0847    4.4265  -13.8204 H   0  0  0  0  0  0  0  0  0  0  0  0
   -3.7849    6.4019  -14.4941 H   0  0  0  0  0  0  0  0  0  0  0  0
   -4.4145    4.8191  -15.0156 H   0  0  0  0  0  0  0  0  0  0  0  0
   -2.0818    6.4554  -12.3760 H   0  0  0  0  0  0  0  0  0  0  0  0
   -1.0570    2.3059   -5.5056 H   0  0  0  0  0  0  0  0  0  0  0  0
   -2.5683   -1.2644    1.4042 H   0  0  0  0  0  0  0  0  0  0  0  0
   -3.2130   -1.6489    3.7589 H   0  0  0  0  0  0  0  0  0  0  0  0
   -2.0888    1.8971    6.9122 H   0  0  0  0  0  0  0  0  0  0  0  0
   -3.7910    2.2525    6.4684 H   0  0  0  0  0  0  0  0  0  0  0  0
   -3.4229    1.3183    7.9340 H   0  0  0  0  0  0  0  0  0  0  0  0
   -2.2967    2.4325    4.6602 H   0  0  0  0  0  0  0  0  0  0  0  0
   -1.6452    2.7989    2.3398 H   0  0  0  0  0  0  0  0  0  0  0  0
   -0.0574    2.5830   -1.1015 H   0  0  0  0  0  0  0  0  0  0  0  0
   -0.8270    4.5295   -2.3918 H   0  0  0  0  0  0  0  0  0  0  0  0
   -5.6713    5.5663   -2.3290 H   0  0  0  0  0  0  0  0  0  0  0  0
   -5.1200    7.2400   -2.5412 H   0  0  0  0  0  0  0  0  0  0  0  0
   -4.8264    6.4247   -0.9887 H   0  0  0  0  0  0  0  0  0  0  0  0
   -4.7524    4.0561   -0.7654 H   0  0  0  0  0  0  0  0  0  0  0  0
   -3.9824    2.1287    0.5231 H   0  0  0  0  0  0  0  0  0  0  0  0
    5.0331   -2.3081   -1.9435 H   0  0  0  0  0  0  0  0  0  0  0  0
    5.0010   -3.0290   -4.3001 H   0  0  0  0  0  0  0  0  0  0  0  0
    1.5306   -5.3070   -7.2913 H   0  0  0  0  0  0  0  0  0  0  0  0
    0.7594   -4.3459   -6.0100 H   0  0  0  0  0  0  0  0  0  0  0  0
    1.3703   -5.9980   -5.6632 H   0  0  0  0  0  0  0  0  0  0  0  0
    1.1395   -4.7753   -3.7053 H   0  0  0  0  0  0  0  0  0  0  0  0
    1.1859   -4.0805   -1.3695 H   0  0  0  0  0  0  0  0  0  0  0  0
    4.0151   -0.9176    1.5799 H   0  0  0  0  0  0  0  0  0  0  0  0
    5.9387   -1.1769    3.0488 H   0  0  0  0  0  0  0  0  0  0  0  0
    7.6863   -1.3838    4.6331 H   0  0  0  0  0  0  0  0  0  0  0  0
    8.0273   -2.8340    5.6105 H   0  0  0  0  0  0  0  0  0  0  0  0
    6.3730   -2.5404    5.0305 H   0  0  0  0  0  0  0  0  0  0  0  0
    6.8854   -4.8964    1.1659 H   0  0  0  0  0  0  0  0  0  0  0  0
    4.9274   -4.6435   -0.3081 H   0  0  0  0  0  0  0  0  0  0  0  0
    2.7461   -2.7080    8.9043 H   0  0  0  0  0  0  0  0  0  0  0  0
    2.6781   -1.1680    9.8081 H   0  0  0  0  0  0  0  0  0  0  0  0
    4.8085   -0.4581    8.6805 H   0  0  0  0  0  0  0  0  0  0  0  0
    4.8724   -2.0198    7.8474 H   0  0  0  0  0  0  0  0  0  0  0  0
    5.0202   -1.9486    9.6090 H   0  0  0  0  0  0  0  0  0  0  0  0
    0.1942    0.6156    5.0286 H   0  0  0  0  0  0  0  0  0  0  0  0
   -0.2474   -0.1595    6.5628 H   0  0  0  0  0  0  0  0  0  0  0  0
    1.1229    0.9471    6.5245 H   0  0  0  0  0  0  0  0  0  0  0  0
    5.3382   -5.5148    5.6053 H   0  0  0  0  0  0  0  0  0  0  0  0
    5.0625   -6.4889   11.1222 H   0  0  0  0  0  0  0  0  0  0  0  0
    3.1790   -6.4940   12.6976 H   0  0  0  0  0  0  0  0  0  0  0  0
  1  2  2  0  0  0  0
  2  3  1  0  0  0  0
  3  4  2  0  0  0  0
  3  5  1  0  0  0  0
  5  6  2  0  0  0  0
  6  7  1  0  0  0  0
  7  8  2  0  0  0  0
  8  9  1  0  0  0  0
  9 10  2  0  0  0  0
 10 11  1  0  0  0  0
 11 12  2  0  0  0  0
 12 13  1  0  0  0  0
 13 14  3  0  0  0  0
 12 15  1  0  0  0  0
 15 16  3  0  0  0  0
  8 17  1  0  0  0  0
 17 18  1  0  0  0  0
 18 19  1  0  0  0  0
 19 20  2  0  0  0  0
 20 21  1  0  0  0  0
 21 22  1  0  0  0  0
 21 23  1  0  0  0  0
  1 24  1  0  0  0  0
 24 25  2  0  0  0  0
 25 26  1  0  0  0  0
 26 27  1  0  0  0  0
 26 28  2  0  0  0  0
 28 29  1  0  0  0  0
 29 30  1  0  0  0  0
 30 31  2  0  0  0  0
 31 32  1  0  0  0  0
 32 33  1  0  0  0  0
 28 34  1  0  0  0  0
 34 35  2  0  0  0  0
 35 36  1  0  0  0  0
 36 37  1  0  0  0  0
 37 38  2  0  0  0  0
 38 39  1  0  0  0  0
 39 40  2  0  0  0  0
 40 41  1  0  0  0  0
 41 42  1  0  0  0  0
 40 43  1  0  0  0  0
 43 44  2  0  0  0  0
 36 45  1  0  0  0  0
 45 46  2  0  0  0  0
 46 47  1  0  0  0  0
 47 48  2  0  0  0  0
 48 49  1  0  0  0  0
 49 50  1  0  0  0  0
 48 51  1  0  0  0  0
 51 52  2  0  0  0  0
 35 53  1  0  0  0  0
 53 54  1  0  0  0  0
 54 55  1  0  0  0  0
 55 56  2  0  0  0  0
 56 57  1  0  0  0  0
 57 58  1  0  0  0  0
 58 59  2  0  0  0  0
 59 60  1  0  0  0  0
 60 61  2  0  0  0  0
 61 62  1  0  0  0  0
 62 63  1  0  0  0  0
 61 64  1  0  0  0  0
 64 65  2  0  0  0  0
 57 66  1  0  0  0  0
 66 67  2  0  0  0  0
 67 68  1  0  0  0  0
 68 69  2  0  0  0  0
 69 70  1  0  0  0  0
 70 71  1  0  0  0  0
 69 72  1  0  0  0  0
 72 73  2  0  0  0  0
 56 74  1  0  0  0  0
 74 75  1  0  0  0  0
 55 76  1  0  0  0  0
 76 77  2  0  0  0  0
 77 78  1  0  0  0  0
 77 79  1  0  0  0  0
 79 80  1  0  0  0  0
 79 81  2  0  0  0  0
 81 82  1  0  0  0  0
 82 83  2  0  0  0  0
 83 84  1  0  0  0  0
 84 85  1  0  0  0  0
 85 86  1  0  0  0  0
 86 87  1  0  0  0  0
 84 88  2  0  0  0  0
 88 89  1  0  0  0  0
 89 90  2  0  0  0  0
 88 91  1  0  0  0  0
 81 92  1  0  0  0  0
 92 93  2  0  0  0  0
 93 94  1  0  0  0  0
 94 95  2  0  0  0  0
 94 96  1  0  0  0  0
 96 97  2  0  0  0  0
 97 98  1  0  0  0  0
 98 99  2  0  0  0  0
 99100  1  0  0  0  0
100101  1  0  0  0  0
100102  2  0  0  0  0
102103  1  0  0  0  0
 97104  1  0  0  0  0
104105  2  0  0  0  0
105106  1  0  0  0  0
106107  3  0  0  0  0
105108  1  0  0  0  0
108109  3  0  0  0  0
 11  2  1  0  0  0  0
 23 17  1  0  0  0  0
 30 24  1  0  0  0  0
 75 34  1  0  0  0  0
 90 76  1  0  0  0  0
104 93  1  0  0  0  0
 10  5  1  0  0  0  0
 22 18  1  0  0  0  0
 33 29  2  0  0  0  0
 44 37  1  0  0  0  0
 52 45  1  0  0  0  0
 74 53  2  0  0  0  0
 90 82  1  0  0  0  0
102 96  1  0  0  0  0
 23  7  1  0  0  0  0
 65 58  1  0  0  0  0
 73 66  1  0  0  0  0
  1110  1  0  0  0  0
  6111  1  0  0  0  0
  9112  1  0  0  0  0
 17113  1  0  0  0  0
 18114  1  0  0  0  0
 19115  1  0  0  0  0
 20116  1  0  0  0  0
 21117  1  0  0  0  0
 22118  1  0  0  0  0
 22119  1  0  0  0  0
 23120  1  0  0  0  0
 25121  1  0  0  0  0
 38122  1  0  0  0  0
 39123  1  0  0  0  0
 42124  1  0  0  0  0
 42125  1  0  0  0  0
 42126  1  0  0  0  0
 43127  1  0  0  0  0
 44128  1  0  0  0  0
 46129  1  0  0  0  0
 47130  1  0  0  0  0
 50131  1  0  0  0  0
 50132  1  0  0  0  0
 50133  1  0  0  0  0
 51134  1  0  0  0  0
 52135  1  0  0  0  0
 59136  1  0  0  0  0
 60137  1  0  0  0  0
 63138  1  0  0  0  0
 63139  1  0  0  0  0
 63140  1  0  0  0  0
 64141  1  0  0  0  0
 65142  1  0  0  0  0
 67143  1  0  0  0  0
 68144  1  0  0  0  0
 71145  1  0  0  0  0
 71146  1  0  0  0  0
 71147  1  0  0  0  0
 72148  1  0  0  0  0
 73149  1  0  0  0  0
 86150  1  0  0  0  0
 86151  1  0  0  0  0
 87152  1  0  0  0  0
 87153  1  0  0  0  0
 87154  1  0  0  0  0
 91155  1  0  0  0  0
 91156  1  0  0  0  0
 91157  1  0  0  0  0
 92158  1  0  0  0  0
 98159  1  0  0  0  0
 99160  1  0  0  0  0
M  END
