
  xtb     02052205313D
 energy: -453.805443732479 gnorm: 0.000505853578 xtb: 6.4.1 (unknown)
278305  0     0  0            999 V2000
    0.0381    8.8417   -3.9221 C   0  0  0  0  0  0  0  0  0  0  0  0
    0.6831    9.2693   -5.0593 C   0  0  0  0  0  0  0  0  0  0  0  0
    1.7616    8.5702   -5.7618 C   0  0  0  0  0  0  0  0  0  0  0  0
    2.4098    7.6145   -5.3693 O   0  0  0  0  0  0  0  0  0  0  0  0
    1.9201    9.2559   -7.0577 C   0  0  0  0  0  0  0  0  0  0  0  0
    2.7987    8.9211   -8.0841 C   0  0  0  0  0  0  0  0  0  0  0  0
    2.6991    9.7289   -9.1919 C   0  0  0  0  0  0  0  0  0  0  0  0
    1.7992   10.7991   -9.2678 C   0  0  0  0  0  0  0  0  0  0  0  0
    0.9354   11.1480   -8.2561 C   0  0  0  0  0  0  0  0  0  0  0  0
    1.0112   10.3310   -7.1255 C   0  0  0  0  0  0  0  0  0  0  0  0
    0.2646   10.3885   -5.8683 C   0  0  0  0  0  0  0  0  0  0  0  0
   -0.6829   11.3331   -5.5487 C   0  0  0  0  0  0  0  0  0  0  0  0
   -1.2811   11.4926   -4.2845 C   0  0  0  0  0  0  0  0  0  0  0  0
   -1.7847   11.7182   -3.2756 N   0  0  0  0  0  0  0  0  0  0  0  0
   -1.1892   12.2875   -6.4516 C   0  0  0  0  0  0  0  0  0  0  0  0
   -1.6846   13.0546   -7.1493 N   0  0  0  0  0  0  0  0  0  0  0  0
    2.2243   11.1619  -10.6685 C   0  0  0  0  0  0  0  0  0  0  0  0
    1.2926   10.7441  -11.8334 C   0  0  0  0  0  0  0  0  0  0  0  0
    0.5301    9.5319  -11.3597 C   0  0  0  0  0  0  0  0  0  0  0  0
    1.3832    8.5188  -11.2885 C   0  0  0  0  0  0  0  0  0  0  0  0
    2.7384    9.0281  -11.7126 C   0  0  0  0  0  0  0  0  0  0  0  0
    2.3194   10.0727  -12.7593 C   0  0  0  0  0  0  0  0  0  0  0  0
    3.2282    9.9693  -10.5840 C   0  0  0  0  0  0  0  0  0  0  0  0
    0.1803    7.6659   -3.1860 C   0  0  0  0  0  0  0  0  0  0  0  0
   -0.7537    7.2535   -2.2037 C   0  0  0  0  0  0  0  0  0  0  0  0
   -1.9538    7.8579   -1.9060 N   0  0  0  0  0  0  0  0  0  0  0  0
   -2.7704    8.4567   -2.8808 C   0  0  0  0  0  0  0  0  0  0  0  0
   -2.8079    7.9761   -4.1890 C   0  0  0  0  0  0  0  0  0  0  0  0
   -3.5804    8.6064   -5.1438 C   0  0  0  0  0  0  0  0  0  0  0  0
   -4.3518    9.7107   -4.7998 C   0  0  0  0  0  0  0  0  0  0  0  0
   -5.3560   10.5871   -5.9574 S   0  0  0  0  0  0  0  0  0  0  0  0
   -4.5129   10.2839   -7.5378 C   0  0  0  0  0  0  0  0  0  0  0  0
   -4.3664   10.1515   -3.4796 C   0  0  0  0  0  0  0  0  0  0  0  0
   -3.5767    9.5397   -2.5310 C   0  0  0  0  0  0  0  0  0  0  0  0
   -2.5002    7.6253   -0.6283 C   0  0  0  0  0  0  0  0  0  0  0  0
   -3.8270    7.2348   -0.4799 C   0  0  0  0  0  0  0  0  0  0  0  0
   -4.3336    6.9139    0.7638 C   0  0  0  0  0  0  0  0  0  0  0  0
   -3.5185    6.9807    1.8865 C   0  0  0  0  0  0  0  0  0  0  0  0
   -4.0314    6.5213    3.5083 S   0  0  0  0  0  0  0  0  0  0  0  0
   -5.7352    5.9399    3.2857 C   0  0  0  0  0  0  0  0  0  0  0  0
   -2.2063    7.4315    1.7502 C   0  0  0  0  0  0  0  0  0  0  0  0
   -1.7027    7.7539    0.5102 C   0  0  0  0  0  0  0  0  0  0  0  0
   -0.3356    6.0652   -1.5901 C   0  0  0  0  0  0  0  0  0  0  0  0
   -1.0643    5.0245   -0.4180 S   0  0  0  0  0  0  0  0  0  0  0  0
    0.1949    3.8306   -0.6681 C   0  0  0  0  0  0  0  0  0  0  0  0
    1.1421    4.2485   -1.5997 C   0  0  0  0  0  0  0  0  0  0  0  0
    2.2548    3.5149   -2.0050 N   0  0  0  0  0  0  0  0  0  0  0  0
    2.1275    2.2017   -2.4544 C   0  0  0  0  0  0  0  0  0  0  0  0
    0.9388    1.7628   -3.0317 C   0  0  0  0  0  0  0  0  0  0  0  0
    0.7770    0.4417   -3.4031 C   0  0  0  0  0  0  0  0  0  0  0  0
    1.8099   -0.4657   -3.2164 C   0  0  0  0  0  0  0  0  0  0  0  0
    1.7062   -2.1808   -3.6276 S   0  0  0  0  0  0  0  0  0  0  0  0
    0.1818   -2.3008   -4.6100 C   0  0  0  0  0  0  0  0  0  0  0  0
    3.0107   -0.0289   -2.6604 C   0  0  0  0  0  0  0  0  0  0  0  0
    3.1700    1.2850   -2.2852 C   0  0  0  0  0  0  0  0  0  0  0  0
    3.4846    4.1883   -2.0179 C   0  0  0  0  0  0  0  0  0  0  0  0
    3.8007    5.0620   -0.9775 C   0  0  0  0  0  0  0  0  0  0  0  0
    4.9865    5.7608   -0.9921 C   0  0  0  0  0  0  0  0  0  0  0  0
    5.8856    5.5956   -2.0429 C   0  0  0  0  0  0  0  0  0  0  0  0
    7.3921    6.5185   -1.9593 S   0  0  0  0  0  0  0  0  0  0  0  0
    7.9842    6.5046   -3.6764 C   0  0  0  0  0  0  0  0  0  0  0  0
    5.5841    4.7120   -3.0710 C   0  0  0  0  0  0  0  0  0  0  0  0
    4.3891    4.0201   -3.0614 C   0  0  0  0  0  0  0  0  0  0  0  0
    0.8359    5.5280   -2.1097 C   0  0  0  0  0  0  0  0  0  0  0  0
    1.5055    6.5058   -3.3675 S   0  0  0  0  0  0  0  0  0  0  0  0
    0.2120    2.6600    0.1283 C   0  0  0  0  0  0  0  0  0  0  0  0
   -0.8343    2.0748    0.8396 C   0  0  0  0  0  0  0  0  0  0  0  0
   -2.1763    2.4268    0.7565 N   0  0  0  0  0  0  0  0  0  0  0  0
   -2.9139    2.5399    1.9422 C   0  0  0  0  0  0  0  0  0  0  0  0
   -4.2540    2.1536    1.9860 C   0  0  0  0  0  0  0  0  0  0  0  0
   -4.9860    2.3254    3.1385 C   0  0  0  0  0  0  0  0  0  0  0  0
   -4.3964    2.8705    4.2780 C   0  0  0  0  0  0  0  0  0  0  0  0
   -5.4573    3.1181    5.6663 S   0  0  0  0  0  0  0  0  0  0  0  0
   -4.3614    3.7809    6.9471 C   0  0  0  0  0  0  0  0  0  0  0  0
   -3.0524    3.2128    4.2529 C   0  0  0  0  0  0  0  0  0  0  0  0
   -2.3213    3.0517    3.0924 C   0  0  0  0  0  0  0  0  0  0  0  0
   -2.7634    2.6901   -0.4827 C   0  0  0  0  0  0  0  0  0  0  0  0
   -3.7788    3.6385   -0.6047 C   0  0  0  0  0  0  0  0  0  0  0  0
   -4.2800    3.9858   -1.8420 C   0  0  0  0  0  0  0  0  0  0  0  0
   -3.7680    3.3992   -2.9907 C   0  0  0  0  0  0  0  0  0  0  0  0
   -4.2636    3.8344   -4.6294 S   0  0  0  0  0  0  0  0  0  0  0  0
   -5.3559    5.2642   -4.3937 C   0  0  0  0  0  0  0  0  0  0  0  0
   -2.7941    2.4095   -2.8718 C   0  0  0  0  0  0  0  0  0  0  0  0
   -2.3040    2.0516   -1.6360 C   0  0  0  0  0  0  0  0  0  0  0  0
   -0.3626    1.0040    1.6296 C   0  0  0  0  0  0  0  0  0  0  0  0
   -1.0929   -0.1654    2.6672 S   0  0  0  0  0  0  0  0  0  0  0  0
    0.4429   -1.0385    2.8471 C   0  0  0  0  0  0  0  0  0  0  0  0
    1.4573   -0.4327    2.1156 C   0  0  0  0  0  0  0  0  0  0  0  0
    2.7852   -0.8301    1.9332 N   0  0  0  0  0  0  0  0  0  0  0  0
    3.6997    0.2459    1.9091 C   0  0  0  0  0  0  0  0  0  0  0  0
    3.6449    1.2006    2.9276 C   0  0  0  0  0  0  0  0  0  0  0  0
    4.4634    2.3064    2.8953 C   0  0  0  0  0  0  0  0  0  0  0  0
    5.3657    2.4897    1.8489 C   0  0  0  0  0  0  0  0  0  0  0  0
    6.3259    3.9683    1.8775 S   0  0  0  0  0  0  0  0  0  0  0  0
    7.5137    3.7456    0.5264 C   0  0  0  0  0  0  0  0  0  0  0  0
    5.4418    1.5317    0.8476 C   0  0  0  0  0  0  0  0  0  0  0  0
    4.6160    0.4254    0.8768 C   0  0  0  0  0  0  0  0  0  0  0  0
    3.0715   -1.9702    1.1619 C   0  0  0  0  0  0  0  0  0  0  0  0
    2.1287   -2.5285    0.3080 C   0  0  0  0  0  0  0  0  0  0  0  0
    2.4522   -3.6036   -0.4985 C   0  0  0  0  0  0  0  0  0  0  0  0
    3.7357   -4.1242   -0.4778 C   0  0  0  0  0  0  0  0  0  0  0  0
    4.2760   -5.4656   -1.4843 S   0  0  0  0  0  0  0  0  0  0  0  0
    2.7940   -5.9339   -2.4165 C   0  0  0  0  0  0  0  0  0  0  0  0
    4.6804   -3.5781    0.3903 C   0  0  0  0  0  0  0  0  0  0  0  0
    4.3528   -2.5210    1.2066 C   0  0  0  0  0  0  0  0  0  0  0  0
    0.9871    0.7421    1.4806 C   0  0  0  0  0  0  0  0  0  0  0  0
    1.7474    1.8535    0.4069 S   0  0  0  0  0  0  0  0  0  0  0  0
    0.3524   -2.1964    3.6747 C   0  0  0  0  0  0  0  0  0  0  0  0
    1.1565   -3.2998    3.8896 C   0  0  0  0  0  0  0  0  0  0  0  0
    2.4540   -3.5981    3.3987 N   0  0  0  0  0  0  0  0  0  0  0  0
    3.4104   -3.3793    4.4391 C   0  0  0  0  0  0  0  0  0  0  0  0
    3.7726   -2.0707    4.7413 C   0  0  0  0  0  0  0  0  0  0  0  0
    4.6489   -1.8061    5.7712 C   0  0  0  0  0  0  0  0  0  0  0  0
    5.1698   -2.8460    6.5381 C   0  0  0  0  0  0  0  0  0  0  0  0
    6.2782   -2.3954    7.8351 S   0  0  0  0  0  0  0  0  0  0  0  0
    6.6119   -3.9634    8.6867 C   0  0  0  0  0  0  0  0  0  0  0  0
    4.7924   -4.1517    6.2571 C   0  0  0  0  0  0  0  0  0  0  0  0
    3.9157   -4.4117    5.2213 C   0  0  0  0  0  0  0  0  0  0  0  0
    2.5150   -4.7726    2.6341 C   0  0  0  0  0  0  0  0  0  0  0  0
    1.3761   -5.2311    1.9666 C   0  0  0  0  0  0  0  0  0  0  0  0
    1.4043   -6.3999    1.2401 C   0  0  0  0  0  0  0  0  0  0  0  0
    2.5763   -7.1411    1.1388 C   0  0  0  0  0  0  0  0  0  0  0  0
    2.4806   -8.6522    0.2265 S   0  0  0  0  0  0  0  0  0  0  0  0
    4.1517   -9.3403    0.3604 C   0  0  0  0  0  0  0  0  0  0  0  0
    3.7316   -6.6555    1.7316 C   0  0  0  0  0  0  0  0  0  0  0  0
    3.7008   -5.4828    2.4605 C   0  0  0  0  0  0  0  0  0  0  0  0
    0.5076   -4.2551    4.7019 C   0  0  0  0  0  0  0  0  0  0  0  0
    0.9149   -5.8818    5.0705 S   0  0  0  0  0  0  0  0  0  0  0  0
   -0.6413   -6.1273    5.8481 C   0  0  0  0  0  0  0  0  0  0  0  0
   -1.4458   -4.9761    5.7704 C   0  0  0  0  0  0  0  0  0  0  0  0
   -2.7811   -4.9363    6.1140 N   0  0  0  0  0  0  0  0  0  0  0  0
   -3.3392   -3.7323    6.5517 C   0  0  0  0  0  0  0  0  0  0  0  0
   -2.5857   -2.8639    7.3449 C   0  0  0  0  0  0  0  0  0  0  0  0
   -3.1157   -1.6628    7.7550 C   0  0  0  0  0  0  0  0  0  0  0  0
   -4.4130   -1.3014    7.3955 C   0  0  0  0  0  0  0  0  0  0  0  0
   -4.9780    0.2655    7.9727 S   0  0  0  0  0  0  0  0  0  0  0  0
   -6.6966    0.3524    7.4020 C   0  0  0  0  0  0  0  0  0  0  0  0
   -5.1732   -2.1718    6.6257 C   0  0  0  0  0  0  0  0  0  0  0  0
   -4.6395   -3.3749    6.2071 C   0  0  0  0  0  0  0  0  0  0  0  0
   -3.5920   -6.0388    5.7679 C   0  0  0  0  0  0  0  0  0  0  0  0
   -4.5149   -6.5587    6.6691 C   0  0  0  0  0  0  0  0  0  0  0  0
   -5.1954   -7.7230    6.3712 C   0  0  0  0  0  0  0  0  0  0  0  0
   -4.9619   -8.3807    5.1702 C   0  0  0  0  0  0  0  0  0  0  0  0
   -5.7281   -9.9163    4.7609 S   0  0  0  0  0  0  0  0  0  0  0  0
   -5.8314  -10.7168    6.3901 C   0  0  0  0  0  0  0  0  0  0  0  0
   -4.0981   -7.8197    4.2348 C   0  0  0  0  0  0  0  0  0  0  0  0
   -3.4213   -6.6579    4.5294 C   0  0  0  0  0  0  0  0  0  0  0  0
   -0.7636   -3.9200    5.1336 C   0  0  0  0  0  0  0  0  0  0  0  0
   -1.1749   -2.3353    4.5700 S   0  0  0  0  0  0  0  0  0  0  0  0
   -1.0705   -7.3958    6.2822 C   0  0  0  0  0  0  0  0  0  0  0  0
   -0.6591   -8.6279    5.8629 C   0  0  0  0  0  0  0  0  0  0  0  0
   -1.6771   -9.7090    5.8413 C   0  0  0  0  0  0  0  0  0  0  0  0
   -2.6267   -9.8370    6.5848 O   0  0  0  0  0  0  0  0  0  0  0  0
   -1.3386  -10.5146    4.6513 C   0  0  0  0  0  0  0  0  0  0  0  0
   -2.1113  -11.5063    4.0501 C   0  0  0  0  0  0  0  0  0  0  0  0
   -1.5646  -12.0186    2.8966 C   0  0  0  0  0  0  0  0  0  0  0  0
   -0.3482  -11.5708    2.3645 C   0  0  0  0  0  0  0  0  0  0  0  0
    0.4290  -10.5965    2.9458 C   0  0  0  0  0  0  0  0  0  0  0  0
   -0.1028  -10.0765    4.1260 C   0  0  0  0  0  0  0  0  0  0  0  0
    0.4314   -9.0484    5.0149 C   0  0  0  0  0  0  0  0  0  0  0  0
    1.7584   -8.7452    5.1751 C   0  0  0  0  0  0  0  0  0  0  0  0
    2.2560   -8.0485    6.2978 C   0  0  0  0  0  0  0  0  0  0  0  0
    2.7169   -7.5620    7.2302 N   0  0  0  0  0  0  0  0  0  0  0  0
    2.7822   -9.1998    4.3242 C   0  0  0  0  0  0  0  0  0  0  0  0
    3.6625   -9.5170    3.6577 N   0  0  0  0  0  0  0  0  0  0  0  0
   -0.4294  -12.5006    1.1806 C   0  0  0  0  0  0  0  0  0  0  0  0
    0.4627  -13.7584    1.2316 C   0  0  0  0  0  0  0  0  0  0  0  0
   -0.1661  -14.6898    0.2209 C   0  0  0  0  0  0  0  0  0  0  0  0
   -1.3131  -15.1215    0.7293 C   0  0  0  0  0  0  0  0  0  0  0  0
   -1.4791  -14.4885    2.0922 C   0  0  0  0  0  0  0  0  0  0  0  0
   -0.0108  -14.4210    2.5317 C   0  0  0  0  0  0  0  0  0  0  0  0
   -1.7816  -13.0080    1.7776 C   0  0  0  0  0  0  0  0  0  0  0  0
   -0.7607    9.4804   -3.5682 H   0  0  0  0  0  0  0  0  0  0  0  0
    3.4791    8.0900   -7.9821 H   0  0  0  0  0  0  0  0  0  0  0  0
    0.2540   11.9792   -8.3291 H   0  0  0  0  0  0  0  0  0  0  0  0
    2.6305   12.1626  -10.8017 H   0  0  0  0  0  0  0  0  0  0  0  0
    0.6974   11.5533  -12.2478 H   0  0  0  0  0  0  0  0  0  0  0  0
   -0.5068    9.5492  -11.0784 H   0  0  0  0  0  0  0  0  0  0  0  0
    1.2021    7.5205  -10.9351 H   0  0  0  0  0  0  0  0  0  0  0  0
    3.4602    8.2750  -12.0181 H   0  0  0  0  0  0  0  0  0  0  0  0
    3.1300   10.7346  -13.0605 H   0  0  0  0  0  0  0  0  0  0  0  0
    1.8626    9.6256  -13.6411 H   0  0  0  0  0  0  0  0  0  0  0  0
    4.2908   10.1916  -10.6610 H   0  0  0  0  0  0  0  0  0  0  0  0
   -2.2184    7.1132   -4.4632 H   0  0  0  0  0  0  0  0  0  0  0  0
   -3.5841    8.2212   -6.1513 H   0  0  0  0  0  0  0  0  0  0  0  0
   -4.9311   11.0022   -8.2356 H   0  0  0  0  0  0  0  0  0  0  0  0
   -3.4490   10.4652   -7.4188 H   0  0  0  0  0  0  0  0  0  0  0  0
   -4.7060    9.2745   -7.8897 H   0  0  0  0  0  0  0  0  0  0  0  0
   -4.9752   11.0008   -3.2147 H   0  0  0  0  0  0  0  0  0  0  0  0
   -3.5590    9.9121   -1.5190 H   0  0  0  0  0  0  0  0  0  0  0  0
   -4.4633    7.1677   -1.3497 H   0  0  0  0  0  0  0  0  0  0  0  0
   -5.3627    6.6015    0.8402 H   0  0  0  0  0  0  0  0  0  0  0  0
   -6.0678    5.6169    4.2674 H   0  0  0  0  0  0  0  0  0  0  0  0
   -6.3632    6.7525    2.9327 H   0  0  0  0  0  0  0  0  0  0  0  0
   -5.7499    5.0941    2.6042 H   0  0  0  0  0  0  0  0  0  0  0  0
   -1.5866    7.5167    2.6292 H   0  0  0  0  0  0  0  0  0  0  0  0
   -0.6836    8.0961    0.4104 H   0  0  0  0  0  0  0  0  0  0  0  0
    0.1316    2.4633   -3.1862 H   0  0  0  0  0  0  0  0  0  0  0  0
   -0.1614    0.1364   -3.8385 H   0  0  0  0  0  0  0  0  0  0  0  0
   -0.6869   -2.1219   -3.9826 H   0  0  0  0  0  0  0  0  0  0  0  0
    0.1554   -3.3173   -4.9905 H   0  0  0  0  0  0  0  0  0  0  0  0
    0.2233   -1.5983   -5.4369 H   0  0  0  0  0  0  0  0  0  0  0  0
    3.8089   -0.7413   -2.5150 H   0  0  0  0  0  0  0  0  0  0  0  0
    4.0923    1.6113   -1.8308 H   0  0  0  0  0  0  0  0  0  0  0  0
    3.1109    5.1845   -0.1559 H   0  0  0  0  0  0  0  0  0  0  0  0
    5.2347    6.4334   -0.1859 H   0  0  0  0  0  0  0  0  0  0  0  0
    7.1715    6.7871   -4.3386 H   0  0  0  0  0  0  0  0  0  0  0  0
    8.7766    7.2453   -3.7213 H   0  0  0  0  0  0  0  0  0  0  0  0
    8.3827    5.5272   -3.9336 H   0  0  0  0  0  0  0  0  0  0  0  0
    6.2684    4.5600   -3.8904 H   0  0  0  0  0  0  0  0  0  0  0  0
    4.1503    3.3497   -3.8733 H   0  0  0  0  0  0  0  0  0  0  0  0
   -4.7157    1.7250    1.1090 H   0  0  0  0  0  0  0  0  0  0  0  0
   -6.0275    2.0417    3.1705 H   0  0  0  0  0  0  0  0  0  0  0  0
   -3.9363    4.7245    6.6167 H   0  0  0  0  0  0  0  0  0  0  0  0
   -4.9904    3.9409    7.8172 H   0  0  0  0  0  0  0  0  0  0  0  0
   -3.5936    3.0501    7.1819 H   0  0  0  0  0  0  0  0  0  0  0  0
   -2.5659    3.6273    5.1200 H   0  0  0  0  0  0  0  0  0  0  0  0
   -1.2837    3.3503    3.0698 H   0  0  0  0  0  0  0  0  0  0  0  0
   -4.1451    4.1414    0.2766 H   0  0  0  0  0  0  0  0  0  0  0  0
   -5.0553    4.7321   -1.8961 H   0  0  0  0  0  0  0  0  0  0  0  0
   -4.8212    6.0607   -3.8830 H   0  0  0  0  0  0  0  0  0  0  0  0
   -5.6285    5.5906   -5.3925 H   0  0  0  0  0  0  0  0  0  0  0  0
   -6.2489    4.9694   -3.8502 H   0  0  0  0  0  0  0  0  0  0  0  0
   -2.4248    1.9308   -3.7663 H   0  0  0  0  0  0  0  0  0  0  0  0
   -1.5432    1.2892   -1.5566 H   0  0  0  0  0  0  0  0  0  0  0  0
    2.9393    1.0796    3.7374 H   0  0  0  0  0  0  0  0  0  0  0  0
    4.4115    3.0467    3.6787 H   0  0  0  0  0  0  0  0  0  0  0  0
    6.9904    3.6891   -0.4234 H   0  0  0  0  0  0  0  0  0  0  0  0
    8.1132    2.8580    0.7069 H   0  0  0  0  0  0  0  0  0  0  0  0
    8.1418    4.6309    0.5400 H   0  0  0  0  0  0  0  0  0  0  0  0
    6.1287    1.6433    0.0239 H   0  0  0  0  0  0  0  0  0  0  0  0
    4.6645   -0.2923    0.0728 H   0  0  0  0  0  0  0  0  0  0  0  0
    1.1329   -2.1128    0.2585 H   0  0  0  0  0  0  0  0  0  0  0  0
    1.6965   -4.0079   -1.1503 H   0  0  0  0  0  0  0  0  0  0  0  0
    3.0973   -6.7559   -3.0573 H   0  0  0  0  0  0  0  0  0  0  0  0
    2.4612   -5.0934   -3.0190 H   0  0  0  0  0  0  0  0  0  0  0  0
    2.0224   -6.2687   -1.7291 H   0  0  0  0  0  0  0  0  0  0  0  0
    5.6750   -3.9967    0.4125 H   0  0  0  0  0  0  0  0  0  0  0  0
    5.0850   -2.1098    1.8852 H   0  0  0  0  0  0  0  0  0  0  0  0
    3.3571   -1.2635    4.1638 H   0  0  0  0  0  0  0  0  0  0  0  0
    4.9348   -0.7899    5.9963 H   0  0  0  0  0  0  0  0  0  0  0  0
    7.2478   -3.7083    9.5288 H   0  0  0  0  0  0  0  0  0  0  0  0
    5.6816   -4.3960    9.0426 H   0  0  0  0  0  0  0  0  0  0  0  0
    7.1358   -4.6448    8.0228 H   0  0  0  0  0  0  0  0  0  0  0  0
    5.1542   -4.9819    6.8410 H   0  0  0  0  0  0  0  0  0  0  0  0
    3.6204   -5.4335    5.0369 H   0  0  0  0  0  0  0  0  0  0  0  0
    0.4548   -4.6700    2.0199 H   0  0  0  0  0  0  0  0  0  0  0  0
    0.5092   -6.7559    0.7505 H   0  0  0  0  0  0  0  0  0  0  0  0
    4.8597   -8.6712   -0.1205 H   0  0  0  0  0  0  0  0  0  0  0  0
    4.3898   -9.4988    1.4084 H   0  0  0  0  0  0  0  0  0  0  0  0
    4.1219  -10.2898   -0.1654 H   0  0  0  0  0  0  0  0  0  0  0  0
    4.6674   -7.1803    1.6395 H   0  0  0  0  0  0  0  0  0  0  0  0
    4.6152   -5.1202    2.9025 H   0  0  0  0  0  0  0  0  0  0  0  0
   -1.5864   -3.1424    7.6441 H   0  0  0  0  0  0  0  0  0  0  0  0
   -2.5330   -0.9909    8.3662 H   0  0  0  0  0  0  0  0  0  0  0  0
   -6.7257    0.3462    6.3167 H   0  0  0  0  0  0  0  0  0  0  0  0
   -7.0790    1.3002    7.7673 H   0  0  0  0  0  0  0  0  0  0  0  0
   -7.2689   -0.4677    7.8256 H   0  0  0  0  0  0  0  0  0  0  0  0
   -6.1798   -1.9219    6.3322 H   0  0  0  0  0  0  0  0  0  0  0  0
   -5.2319   -4.0390    5.5952 H   0  0  0  0  0  0  0  0  0  0  0  0
   -4.6725   -6.0632    7.6159 H   0  0  0  0  0  0  0  0  0  0  0  0
   -5.8896   -8.1260    7.0908 H   0  0  0  0  0  0  0  0  0  0  0  0
   -6.6629  -10.3150    6.9616 H   0  0  0  0  0  0  0  0  0  0  0  0
   -5.9978  -11.7721    6.1974 H   0  0  0  0  0  0  0  0  0  0  0  0
   -4.8843  -10.5672    6.8999 H   0  0  0  0  0  0  0  0  0  0  0  0
   -3.9487   -8.3160    3.2880 H   0  0  0  0  0  0  0  0  0  0  0  0
   -2.7296   -6.2379    3.8135 H   0  0  0  0  0  0  0  0  0  0  0  0
   -1.9762   -7.4076    6.8776 H   0  0  0  0  0  0  0  0  0  0  0  0
   -3.0571  -11.8093    4.4710 H   0  0  0  0  0  0  0  0  0  0  0  0
    1.3483  -10.2339    2.5159 H   0  0  0  0  0  0  0  0  0  0  0  0
   -0.4356  -12.0208    0.2039 H   0  0  0  0  0  0  0  0  0  0  0  0
    1.5265  -13.5649    1.1254 H   0  0  0  0  0  0  0  0  0  0  0  0
    0.2468  -14.8882   -0.7508 H   0  0  0  0  0  0  0  0  0  0  0  0
   -2.0496  -15.7527    0.2673 H   0  0  0  0  0  0  0  0  0  0  0  0
   -2.1838  -14.9639    2.7692 H   0  0  0  0  0  0  0  0  0  0  0  0
    0.1589  -13.8195    3.4228 H   0  0  0  0  0  0  0  0  0  0  0  0
    0.4228  -15.4099    2.6717 H   0  0  0  0  0  0  0  0  0  0  0  0
   -2.6923  -12.8743    1.1966 H   0  0  0  0  0  0  0  0  0  0  0  0
  1  2  2  0  0  0  0
  2  3  1  0  0  0  0
  3  4  2  0  0  0  0
  3  5  1  0  0  0  0
  5  6  2  0  0  0  0
  6  7  1  0  0  0  0
  7  8  2  0  0  0  0
  8  9  1  0  0  0  0
  9 10  2  0  0  0  0
 10 11  1  0  0  0  0
 11 12  2  0  0  0  0
 12 13  1  0  0  0  0
 13 14  3  0  0  0  0
 12 15  1  0  0  0  0
 15 16  3  0  0  0  0
  8 17  1  0  0  0  0
 17 18  1  0  0  0  0
 18 19  1  0  0  0  0
 19 20  2  0  0  0  0
 20 21  1  0  0  0  0
 21 22  1  0  0  0  0
 21 23  1  0  0  0  0
  1 24  1  0  0  0  0
 24 25  2  0  0  0  0
 25 26  1  0  0  0  0
 26 27  1  0  0  0  0
 27 28  2  0  0  0  0
 28 29  1  0  0  0  0
 29 30  2  0  0  0  0
 30 31  1  0  0  0  0
 31 32  1  0  0  0  0
 30 33  1  0  0  0  0
 33 34  2  0  0  0  0
 26 35  1  0  0  0  0
 35 36  2  0  0  0  0
 36 37  1  0  0  0  0
 37 38  2  0  0  0  0
 38 39  1  0  0  0  0
 39 40  1  0  0  0  0
 38 41  1  0  0  0  0
 41 42  2  0  0  0  0
 25 43  1  0  0  0  0
 43 44  1  0  0  0  0
 44 45  1  0  0  0  0
 45 46  2  0  0  0  0
 46 47  1  0  0  0  0
 47 48  1  0  0  0  0
 48 49  2  0  0  0  0
 49 50  1  0  0  0  0
 50 51  2  0  0  0  0
 51 52  1  0  0  0  0
 52 53  1  0  0  0  0
 51 54  1  0  0  0  0
 54 55  2  0  0  0  0
 47 56  1  0  0  0  0
 56 57  2  0  0  0  0
 57 58  1  0  0  0  0
 58 59  2  0  0  0  0
 59 60  1  0  0  0  0
 60 61  1  0  0  0  0
 59 62  1  0  0  0  0
 62 63  2  0  0  0  0
 46 64  1  0  0  0  0
 64 65  1  0  0  0  0
 45 66  1  0  0  0  0
 66 67  2  0  0  0  0
 67 68  1  0  0  0  0
 68 69  1  0  0  0  0
 69 70  2  0  0  0  0
 70 71  1  0  0  0  0
 71 72  2  0  0  0  0
 72 73  1  0  0  0  0
 73 74  1  0  0  0  0
 72 75  1  0  0  0  0
 75 76  2  0  0  0  0
 68 77  1  0  0  0  0
 77 78  2  0  0  0  0
 78 79  1  0  0  0  0
 79 80  2  0  0  0  0
 80 81  1  0  0  0  0
 81 82  1  0  0  0  0
 80 83  1  0  0  0  0
 83 84  2  0  0  0  0
 67 85  1  0  0  0  0
 85 86  1  0  0  0  0
 86 87  1  0  0  0  0
 87 88  2  0  0  0  0
 88 89  1  0  0  0  0
 89 90  1  0  0  0  0
 90 91  2  0  0  0  0
 91 92  1  0  0  0  0
 92 93  2  0  0  0  0
 93 94  1  0  0  0  0
 94 95  1  0  0  0  0
 93 96  1  0  0  0  0
 96 97  2  0  0  0  0
 89 98  1  0  0  0  0
 98 99  2  0  0  0  0
 99100  1  0  0  0  0
100101  2  0  0  0  0
101102  1  0  0  0  0
102103  1  0  0  0  0
101104  1  0  0  0  0
104105  2  0  0  0  0
 88106  1  0  0  0  0
106107  1  0  0  0  0
 87108  1  0  0  0  0
108109  2  0  0  0  0
109110  1  0  0  0  0
110111  1  0  0  0  0
111112  2  0  0  0  0
112113  1  0  0  0  0
113114  2  0  0  0  0
114115  1  0  0  0  0
115116  1  0  0  0  0
114117  1  0  0  0  0
117118  2  0  0  0  0
110119  1  0  0  0  0
119120  2  0  0  0  0
120121  1  0  0  0  0
121122  2  0  0  0  0
122123  1  0  0  0  0
123124  1  0  0  0  0
122125  1  0  0  0  0
125126  2  0  0  0  0
109127  1  0  0  0  0
127128  1  0  0  0  0
128129  1  0  0  0  0
129130  2  0  0  0  0
130131  1  0  0  0  0
131132  1  0  0  0  0
132133  2  0  0  0  0
133134  1  0  0  0  0
134135  2  0  0  0  0
135136  1  0  0  0  0
136137  1  0  0  0  0
135138  1  0  0  0  0
138139  2  0  0  0  0
131140  1  0  0  0  0
140141  2  0  0  0  0
141142  1  0  0  0  0
142143  2  0  0  0  0
143144  1  0  0  0  0
144145  1  0  0  0  0
143146  1  0  0  0  0
146147  2  0  0  0  0
130148  1  0  0  0  0
148149  1  0  0  0  0
129150  1  0  0  0  0
150151  2  0  0  0  0
151152  1  0  0  0  0
152153  2  0  0  0  0
152154  1  0  0  0  0
154155  2  0  0  0  0
155156  1  0  0  0  0
156157  2  0  0  0  0
157158  1  0  0  0  0
158159  2  0  0  0  0
159160  1  0  0  0  0
160161  2  0  0  0  0
161162  1  0  0  0  0
162163  3  0  0  0  0
161164  1  0  0  0  0
164165  3  0  0  0  0
157166  1  0  0  0  0
166167  1  0  0  0  0
167168  1  0  0  0  0
168169  2  0  0  0  0
169170  1  0  0  0  0
170171  1  0  0  0  0
170172  1  0  0  0  0
 11  2  1  0  0  0  0
 23 17  1  0  0  0  0
 65 24  1  0  0  0  0
107 66  1  0  0  0  0
149108  1  0  0  0  0
160151  1  0  0  0  0
172166  1  0  0  0  0
 10  5  1  0  0  0  0
 22 18  1  0  0  0  0
 34 27  1  0  0  0  0
 42 35  1  0  0  0  0
 64 43  2  0  0  0  0
 76 69  1  0  0  0  0
 84 77  1  0  0  0  0
106 85  2  0  0  0  0
118111  1  0  0  0  0
126119  1  0  0  0  0
148127  2  0  0  0  0
159154  1  0  0  0  0
171167  1  0  0  0  0
 23  7  1  0  0  0  0
 55 48  1  0  0  0  0
 63 56  1  0  0  0  0
 97 90  1  0  0  0  0
105 98  1  0  0  0  0
139132  1  0  0  0  0
147140  1  0  0  0  0
172156  1  0  0  0  0
  1173  1  0  0  0  0
  6174  1  0  0  0  0
  9175  1  0  0  0  0
 17176  1  0  0  0  0
 18177  1  0  0  0  0
 19178  1  0  0  0  0
 20179  1  0  0  0  0
 21180  1  0  0  0  0
 22181  1  0  0  0  0
 22182  1  0  0  0  0
 23183  1  0  0  0  0
 28184  1  0  0  0  0
 29185  1  0  0  0  0
 32186  1  0  0  0  0
 32187  1  0  0  0  0
 32188  1  0  0  0  0
 33189  1  0  0  0  0
 34190  1  0  0  0  0
 36191  1  0  0  0  0
 37192  1  0  0  0  0
 40193  1  0  0  0  0
 40194  1  0  0  0  0
 40195  1  0  0  0  0
 41196  1  0  0  0  0
 42197  1  0  0  0  0
 49198  1  0  0  0  0
 50199  1  0  0  0  0
 53200  1  0  0  0  0
 53201  1  0  0  0  0
 53202  1  0  0  0  0
 54203  1  0  0  0  0
 55204  1  0  0  0  0
 57205  1  0  0  0  0
 58206  1  0  0  0  0
 61207  1  0  0  0  0
 61208  1  0  0  0  0
 61209  1  0  0  0  0
 62210  1  0  0  0  0
 63211  1  0  0  0  0
 70212  1  0  0  0  0
 71213  1  0  0  0  0
 74214  1  0  0  0  0
 74215  1  0  0  0  0
 74216  1  0  0  0  0
 75217  1  0  0  0  0
 76218  1  0  0  0  0
 78219  1  0  0  0  0
 79220  1  0  0  0  0
 82221  1  0  0  0  0
 82222  1  0  0  0  0
 82223  1  0  0  0  0
 83224  1  0  0  0  0
 84225  1  0  0  0  0
 91226  1  0  0  0  0
 92227  1  0  0  0  0
 95228  1  0  0  0  0
 95229  1  0  0  0  0
 95230  1  0  0  0  0
 96231  1  0  0  0  0
 97232  1  0  0  0  0
 99233  1  0  0  0  0
100234  1  0  0  0  0
103235  1  0  0  0  0
103236  1  0  0  0  0
103237  1  0  0  0  0
104238  1  0  0  0  0
105239  1  0  0  0  0
112240  1  0  0  0  0
113241  1  0  0  0  0
116242  1  0  0  0  0
116243  1  0  0  0  0
116244  1  0  0  0  0
117245  1  0  0  0  0
118246  1  0  0  0  0
120247  1  0  0  0  0
121248  1  0  0  0  0
124249  1  0  0  0  0
124250  1  0  0  0  0
124251  1  0  0  0  0
125252  1  0  0  0  0
126253  1  0  0  0  0
133254  1  0  0  0  0
134255  1  0  0  0  0
137256  1  0  0  0  0
137257  1  0  0  0  0
137258  1  0  0  0  0
138259  1  0  0  0  0
139260  1  0  0  0  0
141261  1  0  0  0  0
142262  1  0  0  0  0
145263  1  0  0  0  0
145264  1  0  0  0  0
145265  1  0  0  0  0
146266  1  0  0  0  0
147267  1  0  0  0  0
150268  1  0  0  0  0
155269  1  0  0  0  0
158270  1  0  0  0  0
166271  1  0  0  0  0
167272  1  0  0  0  0
168273  1  0  0  0  0
169274  1  0  0  0  0
170275  1  0  0  0  0
171276  1  0  0  0  0
171277  1  0  0  0  0
172278  1  0  0  0  0
M  END
