
  xtb     02172221523D
 energy: -276.019826180126 gnorm: 0.000240306055 xtb: 6.4.1 (unknown)
159174  0     0  0            999 V2000
    5.0926    0.8902    1.6456 C   0  0  0  0  0  0  0  0  0  0  0  0
    5.5440    2.1725    1.4302 C   0  0  0  0  0  0  0  0  0  0  0  0
    4.6816    3.3633    1.4924 C   0  0  0  0  0  0  0  0  0  0  0  0
    3.4791    3.3994    1.6776 O   0  0  0  0  0  0  0  0  0  0  0  0
    5.5933    4.5240    1.4128 C   0  0  0  0  0  0  0  0  0  0  0  0
    5.2406    5.8698    1.4500 C   0  0  0  0  0  0  0  0  0  0  0  0
    6.3066    6.7314    1.3396 C   0  0  0  0  0  0  0  0  0  0  0  0
    7.6283    6.2863    1.2194 C   0  0  0  0  0  0  0  0  0  0  0  0
    7.9916    4.9593    1.2006 C   0  0  0  0  0  0  0  0  0  0  0  0
    6.9196    4.0675    1.2931 C   0  0  0  0  0  0  0  0  0  0  0  0
    6.9054    2.6055    1.2676 C   0  0  0  0  0  0  0  0  0  0  0  0
    7.9731    1.7954    0.9681 C   0  0  0  0  0  0  0  0  0  0  0  0
    7.8791    0.3975    0.8206 C   0  0  0  0  0  0  0  0  0  0  0  0
    7.8646   -0.7401    0.6618 N   0  0  0  0  0  0  0  0  0  0  0  0
    9.2727    2.2647    0.6997 C   0  0  0  0  0  0  0  0  0  0  0  0
   10.3459    2.6015    0.4664 N   0  0  0  0  0  0  0  0  0  0  0  0
    8.1790    7.6887    1.1391 C   0  0  0  0  0  0  0  0  0  0  0  0
    8.5727    8.1928   -0.2660 C   0  0  0  0  0  0  0  0  0  0  0  0
    8.6168    9.6958   -0.1092 C   0  0  0  0  0  0  0  0  0  0  0  0
    7.3678   10.1250    0.0185 C   0  0  0  0  0  0  0  0  0  0  0  0
    6.4582    8.9200   -0.0526 C   0  0  0  0  0  0  0  0  0  0  0  0
    7.2520    8.0477   -1.0331 C   0  0  0  0  0  0  0  0  0  0  0  0
    6.7048    8.1865    1.2825 C   0  0  0  0  0  0  0  0  0  0  0  0
    3.7763    0.4463    1.4698 C   0  0  0  0  0  0  0  0  0  0  0  0
    2.7405    0.9087    0.6333 C   0  0  0  0  0  0  0  0  0  0  0  0
    2.8626    1.8309   -0.3693 N   0  0  0  0  0  0  0  0  0  0  0  0
    1.7386    2.5620   -0.7958 C   0  0  0  0  0  0  0  0  0  0  0  0
    0.8353    3.0873    0.1274 C   0  0  0  0  0  0  0  0  0  0  0  0
   -0.2569    3.8018   -0.3092 C   0  0  0  0  0  0  0  0  0  0  0  0
   -0.4669    4.0158   -1.6712 C   0  0  0  0  0  0  0  0  0  0  0  0
   -1.9124    4.9268   -2.1057 S   0  0  0  0  0  0  0  0  0  0  0  0
   -1.7724    5.1518   -3.9021 C   0  0  0  0  0  0  0  0  0  0  0  0
    0.4442    3.5115   -2.5903 C   0  0  0  0  0  0  0  0  0  0  0  0
    1.5357    2.7865   -2.1534 C   0  0  0  0  0  0  0  0  0  0  0  0
    4.0906    2.0826   -0.9963 C   0  0  0  0  0  0  0  0  0  0  0  0
    4.4703    3.3904   -1.2923 C   0  0  0  0  0  0  0  0  0  0  0  0
    5.7089    3.6579   -1.8443 C   0  0  0  0  0  0  0  0  0  0  0  0
    6.5897    2.6192   -2.1148 C   0  0  0  0  0  0  0  0  0  0  0  0
    8.2160    2.8440   -2.7501 S   0  0  0  0  0  0  0  0  0  0  0  0
    8.5574    4.5985   -2.4328 C   0  0  0  0  0  0  0  0  0  0  0  0
    6.1837    1.3025   -1.8849 C   0  0  0  0  0  0  0  0  0  0  0  0
    4.9538    1.0369   -1.3315 C   0  0  0  0  0  0  0  0  0  0  0  0
    1.5444    0.1917    0.8783 C   0  0  0  0  0  0  0  0  0  0  0  0
   -0.0375    0.2149    0.1663 S   0  0  0  0  0  0  0  0  0  0  0  0
   -0.5548   -1.0512    1.2518 C   0  0  0  0  0  0  0  0  0  0  0  0
    0.4847   -1.5741    2.0184 C   0  0  0  0  0  0  0  0  0  0  0  0
    0.4196   -2.7241    2.7771 N   0  0  0  0  0  0  0  0  0  0  0  0
    1.2119   -2.8391    3.9284 C   0  0  0  0  0  0  0  0  0  0  0  0
    1.8077   -4.0548    4.2494 C   0  0  0  0  0  0  0  0  0  0  0  0
    2.6026   -4.1732    5.3721 C   0  0  0  0  0  0  0  0  0  0  0  0
    2.8186   -3.0716    6.1903 C   0  0  0  0  0  0  0  0  0  0  0  0
    3.8200   -3.0946    7.6413 S   0  0  0  0  0  0  0  0  0  0  0  0
    4.5305   -4.7651    7.6609 C   0  0  0  0  0  0  0  0  0  0  0  0
    2.2109   -1.8563    5.8782 C   0  0  0  0  0  0  0  0  0  0  0  0
    1.4132   -1.7396    4.7630 C   0  0  0  0  0  0  0  0  0  0  0  0
   -0.4684   -3.7532    2.4284 C   0  0  0  0  0  0  0  0  0  0  0  0
   -0.6824   -4.0870    1.0891 C   0  0  0  0  0  0  0  0  0  0  0  0
   -1.6840   -4.9656    0.7441 C   0  0  0  0  0  0  0  0  0  0  0  0
   -2.4820   -5.5483    1.7277 C   0  0  0  0  0  0  0  0  0  0  0  0
   -3.8265   -6.5550    1.1818 S   0  0  0  0  0  0  0  0  0  0  0  0
   -4.9042   -6.6293    2.6420 C   0  0  0  0  0  0  0  0  0  0  0  0
   -2.1981   -5.3068    3.0649 C   0  0  0  0  0  0  0  0  0  0  0  0
   -1.2020   -4.4145    3.4104 C   0  0  0  0  0  0  0  0  0  0  0  0
    1.6703   -0.8291    1.8123 C   0  0  0  0  0  0  0  0  0  0  0  0
    3.2792   -0.9609    2.4196 S   0  0  0  0  0  0  0  0  0  0  0  0
   -1.9174   -1.4944    1.2213 C   0  0  0  0  0  0  0  0  0  0  0  0
   -2.6038   -1.9161    2.3504 C   0  0  0  0  0  0  0  0  0  0  0  0
   -2.0706   -1.7070    3.5693 F   0  0  0  0  0  0  0  0  0  0  0  0
   -3.8452   -2.5518    2.2733 C   0  0  0  0  0  0  0  0  0  0  0  0
   -4.3804   -3.0024    3.4162 F   0  0  0  0  0  0  0  0  0  0  0  0
   -4.4674   -2.7957    1.0593 C   0  0  0  0  0  0  0  0  0  0  0  0
   -3.8564   -2.2479   -0.1041 C   0  0  0  0  0  0  0  0  0  0  0  0
   -4.4605   -2.3583   -1.2965 N   0  0  0  0  0  0  0  0  0  0  0  0
   -3.9194   -1.8124   -2.3592 C   0  0  0  0  0  0  0  0  0  0  0  0
   -4.6939   -1.9763   -3.6301 C   0  0  0  0  0  0  0  0  0  0  0  0
   -5.5558   -0.7425   -3.9056 C   0  0  0  0  0  0  0  0  0  0  0  0
   -2.6889   -1.1031   -2.2598 C   0  0  0  0  0  0  0  0  0  0  0  0
   -2.0679   -1.0242   -1.1070 N   0  0  0  0  0  0  0  0  0  0  0  0
   -2.6175   -1.5696   -0.0157 C   0  0  0  0  0  0  0  0  0  0  0  0
   -2.0260   -0.3925   -3.3998 C   0  0  0  0  0  0  0  0  0  0  0  0
   -2.0951    1.1207   -3.1876 C   0  0  0  0  0  0  0  0  0  0  0  0
   -5.7127   -3.5244    0.9411 C   0  0  0  0  0  0  0  0  0  0  0  0
   -6.0474   -4.2510   -0.2256 C   0  0  0  0  0  0  0  0  0  0  0  0
   -7.2840   -4.5954   -0.4584 N   0  0  0  0  0  0  0  0  0  0  0  0
   -8.2117   -4.3893    0.4881 C   0  0  0  0  0  0  0  0  0  0  0  0
   -7.7858   -3.9891    1.7655 C   0  0  0  0  0  0  0  0  0  0  0  0
   -6.5801   -3.5059    1.9504 N   0  0  0  0  0  0  0  0  0  0  0  0
   -9.5892   -4.6695    0.1916 C   0  0  0  0  0  0  0  0  0  0  0  0
  -10.1493   -4.8092   -1.0325 C   0  0  0  0  0  0  0  0  0  0  0  0
  -11.4598   -5.5039   -1.1841 C   0  0  0  0  0  0  0  0  0  0  0  0
  -12.2667   -5.7376   -0.3177 O   0  0  0  0  0  0  0  0  0  0  0  0
  -11.5153   -5.8944   -2.6113 C   0  0  0  0  0  0  0  0  0  0  0  0
  -12.4603   -6.6684   -3.2537 C   0  0  0  0  0  0  0  0  0  0  0  0
  -12.2713   -6.9124   -4.6073 C   0  0  0  0  0  0  0  0  0  0  0  0
  -13.5393   -7.9696   -5.5458 Br  0  0  0  0  0  0  0  0  0  0  0  0
  -11.1752   -6.4049   -5.2949 C   0  0  0  0  0  0  0  0  0  0  0  0
  -10.2352   -5.6213   -4.6446 C   0  0  0  0  0  0  0  0  0  0  0  0
  -10.4054   -5.3588   -3.2927 C   0  0  0  0  0  0  0  0  0  0  0  0
   -9.6286   -4.5455   -2.3634 C   0  0  0  0  0  0  0  0  0  0  0  0
   -8.7609   -3.5495   -2.7104 C   0  0  0  0  0  0  0  0  0  0  0  0
   -8.3270   -3.3048   -4.0289 C   0  0  0  0  0  0  0  0  0  0  0  0
   -7.9243   -3.0724   -5.0786 N   0  0  0  0  0  0  0  0  0  0  0  0
   -8.2890   -2.5687   -1.8095 C   0  0  0  0  0  0  0  0  0  0  0  0
   -7.9562   -1.6866   -1.1560 N   0  0  0  0  0  0  0  0  0  0  0  0
    5.7868    0.1548    2.0342 H   0  0  0  0  0  0  0  0  0  0  0  0
    4.2095    6.1704    1.5532 H   0  0  0  0  0  0  0  0  0  0  0  0
    9.0162    4.6304    1.1369 H   0  0  0  0  0  0  0  0  0  0  0  0
    8.8998    7.9638    1.9065 H   0  0  0  0  0  0  0  0  0  0  0  0
    9.4537    7.7185   -0.6906 H   0  0  0  0  0  0  0  0  0  0  0  0
    9.5252   10.2659   -0.0504 H   0  0  0  0  0  0  0  0  0  0  0  0
    7.0243   11.1256    0.2045 H   0  0  0  0  0  0  0  0  0  0  0  0
    5.4129    9.1090   -0.2829 H   0  0  0  0  0  0  0  0  0  0  0  0
    6.8878    7.0242   -1.1014 H   0  0  0  0  0  0  0  0  0  0  0  0
    7.3034    8.4854   -2.0289 H   0  0  0  0  0  0  0  0  0  0  0  0
    6.4413    8.7847    2.1527 H   0  0  0  0  0  0  0  0  0  0  0  0
    1.0232    2.9586    1.1809 H   0  0  0  0  0  0  0  0  0  0  0  0
   -0.9585    4.2137    0.3995 H   0  0  0  0  0  0  0  0  0  0  0  0
   -1.8387    4.1923   -4.4062 H   0  0  0  0  0  0  0  0  0  0  0  0
   -0.8442    5.6625   -4.1403 H   0  0  0  0  0  0  0  0  0  0  0  0
   -2.6171    5.7726   -4.1839 H   0  0  0  0  0  0  0  0  0  0  0  0
    0.3139    3.6679   -3.6487 H   0  0  0  0  0  0  0  0  0  0  0  0
    2.2370    2.3884   -2.8722 H   0  0  0  0  0  0  0  0  0  0  0  0
    3.7927    4.2024   -1.0752 H   0  0  0  0  0  0  0  0  0  0  0  0
    5.9793    4.6814   -2.0490 H   0  0  0  0  0  0  0  0  0  0  0  0
    9.6214    4.7214   -2.6081 H   0  0  0  0  0  0  0  0  0  0  0  0
    7.9958    5.2273   -3.1177 H   0  0  0  0  0  0  0  0  0  0  0  0
    8.3258    4.8311   -1.3975 H   0  0  0  0  0  0  0  0  0  0  0  0
    6.8555    0.4953   -2.1325 H   0  0  0  0  0  0  0  0  0  0  0  0
    4.6601    0.0155   -1.1438 H   0  0  0  0  0  0  0  0  0  0  0  0
    1.6504   -4.9109    3.6099 H   0  0  0  0  0  0  0  0  0  0  0  0
    3.0524   -5.1279    5.5912 H   0  0  0  0  0  0  0  0  0  0  0  0
    3.7451   -5.5050    7.7849 H   0  0  0  0  0  0  0  0  0  0  0  0
    5.0973   -4.9360    6.7505 H   0  0  0  0  0  0  0  0  0  0  0  0
    5.1953   -4.7884    8.5189 H   0  0  0  0  0  0  0  0  0  0  0  0
    2.3694   -1.0088    6.5268 H   0  0  0  0  0  0  0  0  0  0  0  0
    0.9286   -0.8020    4.5379 H   0  0  0  0  0  0  0  0  0  0  0  0
   -0.0823   -3.6259    0.3189 H   0  0  0  0  0  0  0  0  0  0  0  0
   -1.8711   -5.2003   -0.2926 H   0  0  0  0  0  0  0  0  0  0  0  0
   -5.8476   -7.0355    2.2894 H   0  0  0  0  0  0  0  0  0  0  0  0
   -5.0544   -5.6290    3.0378 H   0  0  0  0  0  0  0  0  0  0  0  0
   -4.4793   -7.2915    3.3909 H   0  0  0  0  0  0  0  0  0  0  0  0
   -2.7672   -5.7800    3.8481 H   0  0  0  0  0  0  0  0  0  0  0  0
   -1.0219   -4.1888    4.4504 H   0  0  0  0  0  0  0  0  0  0  0  0
   -4.0241   -2.1610   -4.4711 H   0  0  0  0  0  0  0  0  0  0  0  0
   -5.3490   -2.8400   -3.5104 H   0  0  0  0  0  0  0  0  0  0  0  0
   -4.9394    0.1355   -4.0808 H   0  0  0  0  0  0  0  0  0  0  0  0
   -6.1747   -0.9181   -4.7815 H   0  0  0  0  0  0  0  0  0  0  0  0
   -6.2057   -0.5496   -3.0552 H   0  0  0  0  0  0  0  0  0  0  0  0
   -2.4869   -0.6596   -4.3491 H   0  0  0  0  0  0  0  0  0  0  0  0
   -0.9755   -0.6894   -3.4195 H   0  0  0  0  0  0  0  0  0  0  0  0
   -1.5837    1.6292   -4.0012 H   0  0  0  0  0  0  0  0  0  0  0  0
   -3.1275    1.4619   -3.1543 H   0  0  0  0  0  0  0  0  0  0  0  0
   -1.6130    1.3840   -2.2498 H   0  0  0  0  0  0  0  0  0  0  0  0
   -5.3103   -4.5382   -0.9576 H   0  0  0  0  0  0  0  0  0  0  0  0
   -8.4369   -4.0135    2.6281 H   0  0  0  0  0  0  0  0  0  0  0  0
  -10.2325   -4.8673    1.0419 H   0  0  0  0  0  0  0  0  0  0  0  0
  -13.3091   -7.0630   -2.7171 H   0  0  0  0  0  0  0  0  0  0  0  0
  -11.0587   -6.6238   -6.3453 H   0  0  0  0  0  0  0  0  0  0  0  0
   -9.3873   -5.2395   -5.1900 H   0  0  0  0  0  0  0  0  0  0  0  0
  1  2  2  0  0  0  0
  2  3  1  0  0  0  0
  3  4  2  0  0  0  0
  3  5  1  0  0  0  0
  5  6  2  0  0  0  0
  6  7  1  0  0  0  0
  7  8  2  0  0  0  0
  8  9  1  0  0  0  0
  9 10  2  0  0  0  0
 10 11  1  0  0  0  0
 11 12  2  0  0  0  0
 12 13  1  0  0  0  0
 13 14  3  0  0  0  0
 12 15  1  0  0  0  0
 15 16  3  0  0  0  0
  8 17  1  0  0  0  0
 17 18  1  0  0  0  0
 18 19  1  0  0  0  0
 19 20  2  0  0  0  0
 20 21  1  0  0  0  0
 21 22  1  0  0  0  0
 21 23  1  0  0  0  0
  1 24  1  0  0  0  0
 24 25  2  0  0  0  0
 25 26  1  0  0  0  0
 26 27  1  0  0  0  0
 27 28  2  0  0  0  0
 28 29  1  0  0  0  0
 29 30  2  0  0  0  0
 30 31  1  0  0  0  0
 31 32  1  0  0  0  0
 30 33  1  0  0  0  0
 33 34  2  0  0  0  0
 26 35  1  0  0  0  0
 35 36  2  0  0  0  0
 36 37  1  0  0  0  0
 37 38  2  0  0  0  0
 38 39  1  0  0  0  0
 39 40  1  0  0  0  0
 38 41  1  0  0  0  0
 41 42  2  0  0  0  0
 25 43  1  0  0  0  0
 43 44  1  0  0  0  0
 44 45  1  0  0  0  0
 45 46  2  0  0  0  0
 46 47  1  0  0  0  0
 47 48  1  0  0  0  0
 48 49  2  0  0  0  0
 49 50  1  0  0  0  0
 50 51  2  0  0  0  0
 51 52  1  0  0  0  0
 52 53  1  0  0  0  0
 51 54  1  0  0  0  0
 54 55  2  0  0  0  0
 47 56  1  0  0  0  0
 56 57  2  0  0  0  0
 57 58  1  0  0  0  0
 58 59  2  0  0  0  0
 59 60  1  0  0  0  0
 60 61  1  0  0  0  0
 59 62  1  0  0  0  0
 62 63  2  0  0  0  0
 46 64  1  0  0  0  0
 64 65  1  0  0  0  0
 45 66  1  0  0  0  0
 66 67  2  0  0  0  0
 67 68  1  0  0  0  0
 67 69  1  0  0  0  0
 69 70  1  0  0  0  0
 69 71  2  0  0  0  0
 71 72  1  0  0  0  0
 72 73  2  0  0  0  0
 73 74  1  0  0  0  0
 74 75  1  0  0  0  0
 75 76  1  0  0  0  0
 74 77  2  0  0  0  0
 77 78  1  0  0  0  0
 78 79  2  0  0  0  0
 77 80  1  0  0  0  0
 80 81  1  0  0  0  0
 71 82  1  0  0  0  0
 82 83  2  0  0  0  0
 83 84  1  0  0  0  0
 84 85  2  0  0  0  0
 85 86  1  0  0  0  0
 86 87  2  0  0  0  0
 85 88  1  0  0  0  0
 88 89  2  0  0  0  0
 89 90  1  0  0  0  0
 90 91  2  0  0  0  0
 90 92  1  0  0  0  0
 92 93  2  0  0  0  0
 93 94  1  0  0  0  0
 94 95  1  0  0  0  0
 94 96  2  0  0  0  0
 96 97  1  0  0  0  0
 97 98  2  0  0  0  0
 98 99  1  0  0  0  0
 99100  2  0  0  0  0
100101  1  0  0  0  0
101102  3  0  0  0  0
100103  1  0  0  0  0
103104  3  0  0  0  0
 11  2  1  0  0  0  0
 23 17  1  0  0  0  0
 65 24  1  0  0  0  0
 79 66  1  0  0  0  0
 87 82  1  0  0  0  0
 99 89  1  0  0  0  0
 10  5  1  0  0  0  0
 22 18  1  0  0  0  0
 34 27  1  0  0  0  0
 42 35  1  0  0  0  0
 64 43  2  0  0  0  0
 79 72  1  0  0  0  0
 98 92  1  0  0  0  0
 23  7  1  0  0  0  0
 55 48  1  0  0  0  0
 63 56  1  0  0  0  0
  1105  1  0  0  0  0
  6106  1  0  0  0  0
  9107  1  0  0  0  0
 17108  1  0  0  0  0
 18109  1  0  0  0  0
 19110  1  0  0  0  0
 20111  1  0  0  0  0
 21112  1  0  0  0  0
 22113  1  0  0  0  0
 22114  1  0  0  0  0
 23115  1  0  0  0  0
 28116  1  0  0  0  0
 29117  1  0  0  0  0
 32118  1  0  0  0  0
 32119  1  0  0  0  0
 32120  1  0  0  0  0
 33121  1  0  0  0  0
 34122  1  0  0  0  0
 36123  1  0  0  0  0
 37124  1  0  0  0  0
 40125  1  0  0  0  0
 40126  1  0  0  0  0
 40127  1  0  0  0  0
 41128  1  0  0  0  0
 42129  1  0  0  0  0
 49130  1  0  0  0  0
 50131  1  0  0  0  0
 53132  1  0  0  0  0
 53133  1  0  0  0  0
 53134  1  0  0  0  0
 54135  1  0  0  0  0
 55136  1  0  0  0  0
 57137  1  0  0  0  0
 58138  1  0  0  0  0
 61139  1  0  0  0  0
 61140  1  0  0  0  0
 61141  1  0  0  0  0
 62142  1  0  0  0  0
 63143  1  0  0  0  0
 75144  1  0  0  0  0
 75145  1  0  0  0  0
 76146  1  0  0  0  0
 76147  1  0  0  0  0
 76148  1  0  0  0  0
 80149  1  0  0  0  0
 80150  1  0  0  0  0
 81151  1  0  0  0  0
 81152  1  0  0  0  0
 81153  1  0  0  0  0
 83154  1  0  0  0  0
 86155  1  0  0  0  0
 88156  1  0  0  0  0
 93157  1  0  0  0  0
 96158  1  0  0  0  0
 97159  1  0  0  0  0
M  END
