
  xtb     02072214003D
 energy: -324.506036418022 gnorm: 0.000470613249 xtb: 6.4.1 (unknown)
183201  0     0  0            999 V2000
    4.8604   -0.9878   -5.2187 C   0  0  0  0  0  0  0  0  0  0  0  0
    5.1065   -1.6356   -6.3786 C   0  0  0  0  0  0  0  0  0  0  0  0
    5.8380   -0.8923   -7.4566 C   0  0  0  0  0  0  0  0  0  0  0  0
    6.5305    0.0853   -7.3145 O   0  0  0  0  0  0  0  0  0  0  0  0
    5.4840   -1.5903   -8.7054 C   0  0  0  0  0  0  0  0  0  0  0  0
    5.7318   -1.1658  -10.0094 C   0  0  0  0  0  0  0  0  0  0  0  0
    5.2207   -1.9992  -10.9745 C   0  0  0  0  0  0  0  0  0  0  0  0
    4.5147   -3.1725  -10.6717 C   0  0  0  0  0  0  0  0  0  0  0  0
    4.2803   -3.6154   -9.3917 C   0  0  0  0  0  0  0  0  0  0  0  0
    4.7902   -2.7795   -8.3958 C   0  0  0  0  0  0  0  0  0  0  0  0
    4.7096   -2.9093   -6.9442 C   0  0  0  0  0  0  0  0  0  0  0  0
    4.5148   -4.0702   -6.2477 C   0  0  0  0  0  0  0  0  0  0  0  0
    4.2692   -5.3207   -6.8499 C   0  0  0  0  0  0  0  0  0  0  0  0
    4.0721   -6.3595   -7.2960 N   0  0  0  0  0  0  0  0  0  0  0  0
    4.5993   -4.1285   -4.8419 C   0  0  0  0  0  0  0  0  0  0  0  0
    4.6598   -4.1809   -3.6971 N   0  0  0  0  0  0  0  0  0  0  0  0
    4.2496   -3.4815  -12.1231 C   0  0  0  0  0  0  0  0  0  0  0  0
    2.8356   -3.1679  -12.6738 C   0  0  0  0  0  0  0  0  0  0  0  0
    2.2812   -2.0476  -11.8287 C   0  0  0  0  0  0  0  0  0  0  0  0
    2.9585   -0.9455  -12.1219 C   0  0  0  0  0  0  0  0  0  0  0  0
    3.9850   -1.3015  -13.1688 C   0  0  0  0  0  0  0  0  0  0  0  0
    3.2185   -2.3870  -13.9411 C   0  0  0  0  0  0  0  0  0  0  0  0
    5.0455   -2.1817  -12.4615 C   0  0  0  0  0  0  0  0  0  0  0  0
    3.9158   -1.2107   -4.1626 C   0  0  0  0  0  0  0  0  0  0  0  0
    2.7338   -1.9283   -4.2562 C   0  0  0  0  0  0  0  0  0  0  0  0
    2.3921   -2.5340   -5.4101 F   0  0  0  0  0  0  0  0  0  0  0  0
    1.7630   -1.9235   -3.2482 C   0  0  0  0  0  0  0  0  0  0  0  0
    0.6083   -2.5678   -3.4886 F   0  0  0  0  0  0  0  0  0  0  0  0
    1.9066   -1.1734   -2.1009 C   0  0  0  0  0  0  0  0  0  0  0  0
    3.1497   -0.5029   -1.9183 C   0  0  0  0  0  0  0  0  0  0  0  0
    3.3900    0.1196   -0.7547 N   0  0  0  0  0  0  0  0  0  0  0  0
    4.5037    0.7932   -0.6004 C   0  0  0  0  0  0  0  0  0  0  0  0
    4.7243    1.4040    0.7513 C   0  0  0  0  0  0  0  0  0  0  0  0
    4.4485    0.3964    1.8663 C   0  0  0  0  0  0  0  0  0  0  0  0
    5.4243    0.9089   -1.6832 C   0  0  0  0  0  0  0  0  0  0  0  0
    5.2287    0.2475   -2.7970 N   0  0  0  0  0  0  0  0  0  0  0  0
    4.1208   -0.4943   -2.9439 C   0  0  0  0  0  0  0  0  0  0  0  0
    6.6374    1.7856   -1.6473 C   0  0  0  0  0  0  0  0  0  0  0  0
    6.2471    3.2613   -1.7565 C   0  0  0  0  0  0  0  0  0  0  0  0
    0.8330   -0.9097   -1.1681 C   0  0  0  0  0  0  0  0  0  0  0  0
    0.4165    0.3617   -0.8138 C   0  0  0  0  0  0  0  0  0  0  0  0
    0.8910    1.5533   -1.3370 N   0  0  0  0  0  0  0  0  0  0  0  0
    1.3278    1.6241   -2.6640 C   0  0  0  0  0  0  0  0  0  0  0  0
    0.6437    0.9372   -3.6654 C   0  0  0  0  0  0  0  0  0  0  0  0
    1.1288    0.8947   -4.9573 C   0  0  0  0  0  0  0  0  0  0  0  0
    2.3133    1.5450   -5.2760 C   0  0  0  0  0  0  0  0  0  0  0  0
    3.0824    1.4778   -6.8653 S   0  0  0  0  0  0  0  0  0  0  0  0
    2.1746    0.1700   -7.7402 C   0  0  0  0  0  0  0  0  0  0  0  0
    2.9578    2.3003   -4.2981 C   0  0  0  0  0  0  0  0  0  0  0  0
    2.4714    2.3460   -3.0104 C   0  0  0  0  0  0  0  0  0  0  0  0
    1.0313    2.6432   -0.4648 C   0  0  0  0  0  0  0  0  0  0  0  0
    1.4006    2.4371    0.8661 C   0  0  0  0  0  0  0  0  0  0  0  0
    1.4752    3.4961    1.7429 C   0  0  0  0  0  0  0  0  0  0  0  0
    1.1925    4.7895    1.3082 C   0  0  0  0  0  0  0  0  0  0  0  0
    1.3068    6.0676    2.5186 S   0  0  0  0  0  0  0  0  0  0  0  0
    0.4887    7.4812    1.7228 C   0  0  0  0  0  0  0  0  0  0  0  0
    0.8604    5.0045   -0.0238 C   0  0  0  0  0  0  0  0  0  0  0  0
    0.7748    3.9397   -0.9001 C   0  0  0  0  0  0  0  0  0  0  0  0
   -0.6073    0.2954    0.1624 C   0  0  0  0  0  0  0  0  0  0  0  0
   -1.5317    1.4934    0.9936 S   0  0  0  0  0  0  0  0  0  0  0  0
   -2.2970    0.2357    1.9437 C   0  0  0  0  0  0  0  0  0  0  0  0
   -1.8925   -1.0381    1.5956 C   0  0  0  0  0  0  0  0  0  0  0  0
   -2.4016   -2.1740    2.1976 N   0  0  0  0  0  0  0  0  0  0  0  0
   -1.5921   -3.2756    2.4829 C   0  0  0  0  0  0  0  0  0  0  0  0
   -0.2229   -3.1293    2.7069 C   0  0  0  0  0  0  0  0  0  0  0  0
    0.5591   -4.2335    2.9613 C   0  0  0  0  0  0  0  0  0  0  0  0
   -0.0065   -5.5052    3.0166 C   0  0  0  0  0  0  0  0  0  0  0  0
    1.0948   -6.8409    3.3656 S   0  0  0  0  0  0  0  0  0  0  0  0
    0.0762   -8.3224    3.1147 C   0  0  0  0  0  0  0  0  0  0  0  0
   -1.3733   -5.6517    2.8212 C   0  0  0  0  0  0  0  0  0  0  0  0
   -2.1559   -4.5466    2.5509 C   0  0  0  0  0  0  0  0  0  0  0  0
   -3.7193   -2.0948    2.6941 C   0  0  0  0  0  0  0  0  0  0  0  0
   -4.7515   -1.7217    1.8354 C   0  0  0  0  0  0  0  0  0  0  0  0
   -6.0172   -1.5078    2.3295 C   0  0  0  0  0  0  0  0  0  0  0  0
   -6.2765   -1.6503    3.6916 C   0  0  0  0  0  0  0  0  0  0  0  0
   -7.9034   -1.2226    4.2229 S   0  0  0  0  0  0  0  0  0  0  0  0
   -7.7693   -1.1911    6.0327 C   0  0  0  0  0  0  0  0  0  0  0  0
   -5.2681   -2.0965    4.5361 C   0  0  0  0  0  0  0  0  0  0  0  0
   -4.0008   -2.3282    4.0359 C   0  0  0  0  0  0  0  0  0  0  0  0
   -0.9376   -0.9950    0.5478 C   0  0  0  0  0  0  0  0  0  0  0  0
   -0.0577   -2.1771   -0.3569 S   0  0  0  0  0  0  0  0  0  0  0  0
   -3.0427    0.6005    3.1205 C   0  0  0  0  0  0  0  0  0  0  0  0
   -2.2413    0.4373    4.6587 S   0  0  0  0  0  0  0  0  0  0  0  0
   -3.5814    1.1347    5.5420 C   0  0  0  0  0  0  0  0  0  0  0  0
   -4.6049    1.3979    4.6580 C   0  0  0  0  0  0  0  0  0  0  0  0
   -6.1915    2.0471    4.8493 S   0  0  0  0  0  0  0  0  0  0  0  0
   -6.4574    2.0018    3.0982 C   0  0  0  0  0  0  0  0  0  0  0  0
   -7.7200    2.4918    2.6286 C   0  0  0  0  0  0  0  0  0  0  0  0
   -8.5227    2.0906    1.5780 C   0  0  0  0  0  0  0  0  0  0  0  0
   -9.7091    2.8335    1.4607 C   0  0  0  0  0  0  0  0  0  0  0  0
   -9.8245    3.7941    2.4289 C   0  0  0  0  0  0  0  0  0  0  0  0
  -10.9289    4.7390    2.6104 C   0  0  0  0  0  0  0  0  0  0  0  0
  -11.8900    4.8069    1.8856 O   0  0  0  0  0  0  0  0  0  0  0  0
  -10.7272    5.4998    3.6922 O   0  0  0  0  0  0  0  0  0  0  0  0
  -11.7151    6.4884    3.9846 C   0  0  0  0  0  0  0  0  0  0  0  0
  -11.4802    7.7596    3.1818 C   0  0  0  0  0  0  0  0  0  0  0  0
   -8.4715    3.7978    3.4976 S   0  0  0  0  0  0  0  0  0  0  0  0
   -8.2040    0.7675    0.5455 Cl  0  0  0  0  0  0  0  0  0  0  0  0
   -5.3633    1.5339    2.4270 C   0  0  0  0  0  0  0  0  0  0  0  0
   -4.2903    1.1565    3.2906 C   0  0  0  0  0  0  0  0  0  0  0  0
   -5.1856    1.5058    0.7293 Cl  0  0  0  0  0  0  0  0  0  0  0  0
   -3.5290    1.3787    6.9371 C   0  0  0  0  0  0  0  0  0  0  0  0
   -2.4172    1.6399    7.6713 C   0  0  0  0  0  0  0  0  0  0  0  0
   -2.4199    1.4658    9.1500 C   0  0  0  0  0  0  0  0  0  0  0  0
   -3.3994    1.3398    9.8520 O   0  0  0  0  0  0  0  0  0  0  0  0
   -0.9957    1.4183    9.5299 C   0  0  0  0  0  0  0  0  0  0  0  0
   -0.2022    1.6704    8.4087 C   0  0  0  0  0  0  0  0  0  0  0  0
    1.1952    1.6622    8.5047 C   0  0  0  0  0  0  0  0  0  0  0  0
    1.7695    1.4057    9.7220 C   0  0  0  0  0  0  0  0  0  0  0  0
    0.9971    1.1613   10.8790 C   0  0  0  0  0  0  0  0  0  0  0  0
    1.5970    0.9152   12.1305 C   0  0  0  0  0  0  0  0  0  0  0  0
    0.8292    0.6837   13.2387 C   0  0  0  0  0  0  0  0  0  0  0  0
   -0.5719    0.6858   13.1478 C   0  0  0  0  0  0  0  0  0  0  0  0
   -1.1914    0.9195   11.9511 C   0  0  0  0  0  0  0  0  0  0  0  0
   -0.4259    1.1631   10.7927 C   0  0  0  0  0  0  0  0  0  0  0  0
   -1.0630    1.9724    7.2716 C   0  0  0  0  0  0  0  0  0  0  0  0
   -0.7004    2.6926    6.1634 C   0  0  0  0  0  0  0  0  0  0  0  0
   -1.6369    3.2668    5.2762 C   0  0  0  0  0  0  0  0  0  0  0  0
   -2.3724    3.7980    4.5729 N   0  0  0  0  0  0  0  0  0  0  0  0
    0.6272    2.9890    5.7974 C   0  0  0  0  0  0  0  0  0  0  0  0
    1.6857    3.2130    5.4128 N   0  0  0  0  0  0  0  0  0  0  0  0
    5.4321   -0.0745   -5.0810 H   0  0  0  0  0  0  0  0  0  0  0  0
    6.2718   -0.2521  -10.2021 H   0  0  0  0  0  0  0  0  0  0  0  0
    3.7315   -4.5148   -9.1641 H   0  0  0  0  0  0  0  0  0  0  0  0
    4.6363   -4.4297  -12.4905 H   0  0  0  0  0  0  0  0  0  0  0  0
    2.1961   -4.0380  -12.7952 H   0  0  0  0  0  0  0  0  0  0  0  0
    1.5157   -2.1799  -11.0864 H   0  0  0  0  0  0  0  0  0  0  0  0
    2.8712    0.0285  -11.6764 H   0  0  0  0  0  0  0  0  0  0  0  0
    4.3938   -0.4732  -13.7415 H   0  0  0  0  0  0  0  0  0  0  0  0
    2.3526   -1.9942  -14.4718 H   0  0  0  0  0  0  0  0  0  0  0  0
    3.8447   -2.9548  -14.6278 H   0  0  0  0  0  0  0  0  0  0  0  0
    5.9596   -2.2812  -13.0432 H   0  0  0  0  0  0  0  0  0  0  0  0
    4.0316    2.2446    0.8569 H   0  0  0  0  0  0  0  0  0  0  0  0
    5.7398    1.7867    0.8413 H   0  0  0  0  0  0  0  0  0  0  0  0
    4.4865    0.8887    2.8344 H   0  0  0  0  0  0  0  0  0  0  0  0
    3.4667   -0.0479    1.7317 H   0  0  0  0  0  0  0  0  0  0  0  0
    5.1886   -0.4007    1.8487 H   0  0  0  0  0  0  0  0  0  0  0  0
    7.1999    1.6177   -0.7271 H   0  0  0  0  0  0  0  0  0  0  0  0
    7.2671    1.5140   -2.4949 H   0  0  0  0  0  0  0  0  0  0  0  0
    7.1385    3.8830   -1.7361 H   0  0  0  0  0  0  0  0  0  0  0  0
    5.5985    3.5584   -0.9353 H   0  0  0  0  0  0  0  0  0  0  0  0
    5.7243    3.4396   -2.6929 H   0  0  0  0  0  0  0  0  0  0  0  0
   -0.2719    0.4175   -3.4236 H   0  0  0  0  0  0  0  0  0  0  0  0
    0.5771    0.3452   -5.7031 H   0  0  0  0  0  0  0  0  0  0  0  0
    2.7263   -0.0059   -8.6594 H   0  0  0  0  0  0  0  0  0  0  0  0
    2.1588   -0.7372   -7.1449 H   0  0  0  0  0  0  0  0  0  0  0  0
    1.1676    0.5026   -7.9753 H   0  0  0  0  0  0  0  0  0  0  0  0
    3.8611    2.8293   -4.5602 H   0  0  0  0  0  0  0  0  0  0  0  0
    2.9925    2.9134   -2.2537 H   0  0  0  0  0  0  0  0  0  0  0  0
    1.6257    1.4377    1.2036 H   0  0  0  0  0  0  0  0  0  0  0  0
    1.7501    3.3368    2.7749 H   0  0  0  0  0  0  0  0  0  0  0  0
   -0.4945    7.1815    1.3732 H   0  0  0  0  0  0  0  0  0  0  0  0
    1.0988    7.8653    0.9102 H   0  0  0  0  0  0  0  0  0  0  0  0
    0.3923    8.2366    2.4964 H   0  0  0  0  0  0  0  0  0  0  0  0
    0.6544    5.9968   -0.3914 H   0  0  0  0  0  0  0  0  0  0  0  0
    0.4981    4.1122   -1.9298 H   0  0  0  0  0  0  0  0  0  0  0  0
    0.2238   -2.1467    2.6927 H   0  0  0  0  0  0  0  0  0  0  0  0
    1.6193   -4.1228    3.1288 H   0  0  0  0  0  0  0  0  0  0  0  0
   -0.7009   -8.3780    3.8717 H   0  0  0  0  0  0  0  0  0  0  0  0
   -0.3450   -8.3131    2.1139 H   0  0  0  0  0  0  0  0  0  0  0  0
    0.7538   -9.1638    3.2225 H   0  0  0  0  0  0  0  0  0  0  0  0
   -1.8429   -6.6208    2.8691 H   0  0  0  0  0  0  0  0  0  0  0  0
   -3.2169   -4.6667    2.3887 H   0  0  0  0  0  0  0  0  0  0  0  0
   -4.5437   -1.5768    0.7863 H   0  0  0  0  0  0  0  0  0  0  0  0
   -6.8188   -1.2127    1.6723 H   0  0  0  0  0  0  0  0  0  0  0  0
   -8.7199   -0.8069    6.3887 H   0  0  0  0  0  0  0  0  0  0  0  0
   -7.6125   -2.1947    6.4171 H   0  0  0  0  0  0  0  0  0  0  0  0
   -6.9670   -0.5211    6.3279 H   0  0  0  0  0  0  0  0  0  0  0  0
   -5.4506   -2.2537    5.5870 H   0  0  0  0  0  0  0  0  0  0  0  0
   -3.2114   -2.6589    4.6952 H   0  0  0  0  0  0  0  0  0  0  0  0
  -10.4552    2.6643    0.7062 H   0  0  0  0  0  0  0  0  0  0  0  0
  -11.6190    6.6738    5.0562 H   0  0  0  0  0  0  0  0  0  0  0  0
  -12.7045    6.0759    3.7615 H   0  0  0  0  0  0  0  0  0  0  0  0
  -10.4784    8.1402    3.3658 H   0  0  0  0  0  0  0  0  0  0  0  0
  -11.5919    7.5541    2.1199 H   0  0  0  0  0  0  0  0  0  0  0  0
  -12.2066    8.5128    3.4725 H   0  0  0  0  0  0  0  0  0  0  0  0
   -4.4682    1.3172    7.4778 H   0  0  0  0  0  0  0  0  0  0  0  0
    1.8072    1.8430    7.6358 H   0  0  0  0  0  0  0  0  0  0  0  0
    2.8459    1.3900    9.8139 H   0  0  0  0  0  0  0  0  0  0  0  0
    2.6753    0.9151   12.1981 H   0  0  0  0  0  0  0  0  0  0  0  0
    1.2973    0.4971   14.1939 H   0  0  0  0  0  0  0  0  0  0  0  0
   -1.1590    0.5007   14.0350 H   0  0  0  0  0  0  0  0  0  0  0  0
   -2.2668    0.9233   11.8692 H   0  0  0  0  0  0  0  0  0  0  0  0
  1  2  2  0  0  0  0
  2  3  1  0  0  0  0
  3  4  2  0  0  0  0
  3  5  1  0  0  0  0
  5  6  2  0  0  0  0
  6  7  1  0  0  0  0
  7  8  2  0  0  0  0
  8  9  1  0  0  0  0
  9 10  2  0  0  0  0
 10 11  1  0  0  0  0
 11 12  2  0  0  0  0
 12 13  1  0  0  0  0
 13 14  3  0  0  0  0
 12 15  1  0  0  0  0
 15 16  3  0  0  0  0
  8 17  1  0  0  0  0
 17 18  1  0  0  0  0
 18 19  1  0  0  0  0
 19 20  2  0  0  0  0
 20 21  1  0  0  0  0
 21 22  1  0  0  0  0
 21 23  1  0  0  0  0
  1 24  1  0  0  0  0
 24 25  2  0  0  0  0
 25 26  1  0  0  0  0
 25 27  1  0  0  0  0
 27 28  1  0  0  0  0
 27 29  2  0  0  0  0
 29 30  1  0  0  0  0
 30 31  2  0  0  0  0
 31 32  1  0  0  0  0
 32 33  1  0  0  0  0
 33 34  1  0  0  0  0
 32 35  2  0  0  0  0
 35 36  1  0  0  0  0
 36 37  2  0  0  0  0
 35 38  1  0  0  0  0
 38 39  1  0  0  0  0
 29 40  1  0  0  0  0
 40 41  2  0  0  0  0
 41 42  1  0  0  0  0
 42 43  1  0  0  0  0
 43 44  2  0  0  0  0
 44 45  1  0  0  0  0
 45 46  2  0  0  0  0
 46 47  1  0  0  0  0
 47 48  1  0  0  0  0
 46 49  1  0  0  0  0
 49 50  2  0  0  0  0
 42 51  1  0  0  0  0
 51 52  2  0  0  0  0
 52 53  1  0  0  0  0
 53 54  2  0  0  0  0
 54 55  1  0  0  0  0
 55 56  1  0  0  0  0
 54 57  1  0  0  0  0
 57 58  2  0  0  0  0
 41 59  1  0  0  0  0
 59 60  1  0  0  0  0
 60 61  1  0  0  0  0
 61 62  2  0  0  0  0
 62 63  1  0  0  0  0
 63 64  1  0  0  0  0
 64 65  2  0  0  0  0
 65 66  1  0  0  0  0
 66 67  2  0  0  0  0
 67 68  1  0  0  0  0
 68 69  1  0  0  0  0
 67 70  1  0  0  0  0
 70 71  2  0  0  0  0
 63 72  1  0  0  0  0
 72 73  2  0  0  0  0
 73 74  1  0  0  0  0
 74 75  2  0  0  0  0
 75 76  1  0  0  0  0
 76 77  1  0  0  0  0
 75 78  1  0  0  0  0
 78 79  2  0  0  0  0
 62 80  1  0  0  0  0
 80 81  1  0  0  0  0
 61 82  1  0  0  0  0
 82 83  1  0  0  0  0
 83 84  1  0  0  0  0
 84 85  2  0  0  0  0
 85 86  1  0  0  0  0
 86 87  1  0  0  0  0
 87 88  1  0  0  0  0
 88 89  2  0  0  0  0
 89 90  1  0  0  0  0
 90 91  2  0  0  0  0
 91 92  1  0  0  0  0
 92 93  2  0  0  0  0
 92 94  1  0  0  0  0
 94 95  1  0  0  0  0
 95 96  1  0  0  0  0
 91 97  1  0  0  0  0
 89 98  1  0  0  0  0
 87 99  2  0  0  0  0
 99100  1  0  0  0  0
 99101  1  0  0  0  0
 84102  1  0  0  0  0
102103  2  0  0  0  0
103104  1  0  0  0  0
104105  2  0  0  0  0
104106  1  0  0  0  0
106107  2  0  0  0  0
107108  1  0  0  0  0
108109  2  0  0  0  0
109110  1  0  0  0  0
110111  2  0  0  0  0
111112  1  0  0  0  0
112113  2  0  0  0  0
113114  1  0  0  0  0
114115  2  0  0  0  0
107116  1  0  0  0  0
116117  2  0  0  0  0
117118  1  0  0  0  0
118119  3  0  0  0  0
117120  1  0  0  0  0
120121  3  0  0  0  0
 11  2  1  0  0  0  0
 23 17  1  0  0  0  0
 37 24  1  0  0  0  0
 81 40  1  0  0  0  0
100 82  2  0  0  0  0
116103  1  0  0  0  0
 10  5  1  0  0  0  0
 22 18  1  0  0  0  0
 37 30  1  0  0  0  0
 50 43  1  0  0  0  0
 58 51  1  0  0  0  0
 80 59  2  0  0  0  0
100 85  1  0  0  0  0
115106  1  0  0  0  0
 23  7  1  0  0  0  0
 71 64  1  0  0  0  0
 79 72  1  0  0  0  0
 97 88  1  0  0  0  0
115110  1  0  0  0  0
  1122  1  0  0  0  0
  6123  1  0  0  0  0
  9124  1  0  0  0  0
 17125  1  0  0  0  0
 18126  1  0  0  0  0
 19127  1  0  0  0  0
 20128  1  0  0  0  0
 21129  1  0  0  0  0
 22130  1  0  0  0  0
 22131  1  0  0  0  0
 23132  1  0  0  0  0
 33133  1  0  0  0  0
 33134  1  0  0  0  0
 34135  1  0  0  0  0
 34136  1  0  0  0  0
 34137  1  0  0  0  0
 38138  1  0  0  0  0
 38139  1  0  0  0  0
 39140  1  0  0  0  0
 39141  1  0  0  0  0
 39142  1  0  0  0  0
 44143  1  0  0  0  0
 45144  1  0  0  0  0
 48145  1  0  0  0  0
 48146  1  0  0  0  0
 48147  1  0  0  0  0
 49148  1  0  0  0  0
 50149  1  0  0  0  0
 52150  1  0  0  0  0
 53151  1  0  0  0  0
 56152  1  0  0  0  0
 56153  1  0  0  0  0
 56154  1  0  0  0  0
 57155  1  0  0  0  0
 58156  1  0  0  0  0
 65157  1  0  0  0  0
 66158  1  0  0  0  0
 69159  1  0  0  0  0
 69160  1  0  0  0  0
 69161  1  0  0  0  0
 70162  1  0  0  0  0
 71163  1  0  0  0  0
 73164  1  0  0  0  0
 74165  1  0  0  0  0
 77166  1  0  0  0  0
 77167  1  0  0  0  0
 77168  1  0  0  0  0
 78169  1  0  0  0  0
 79170  1  0  0  0  0
 90171  1  0  0  0  0
 95172  1  0  0  0  0
 95173  1  0  0  0  0
 96174  1  0  0  0  0
 96175  1  0  0  0  0
 96176  1  0  0  0  0
102177  1  0  0  0  0
108178  1  0  0  0  0
109179  1  0  0  0  0
111180  1  0  0  0  0
112181  1  0  0  0  0
113182  1  0  0  0  0
114183  1  0  0  0  0
M  END
