207

C         -4.61860        5.49200       -3.23380
C         -5.48600        6.06860       -2.37340
C         -5.54060        5.69700       -0.92840
O         -4.91910        4.81460       -0.37880
C         -6.41540        6.69580       -0.30100
C         -6.76190        6.76180        1.04710
C         -7.65770        7.75760        1.34650
C         -8.15800        8.64210        0.37960
C         -7.80930        8.60340       -0.94900
C         -6.90750        7.58540       -1.28040
C         -6.36720        7.20330       -2.57770
C         -6.72560        7.71100       -3.79880
C         -7.61070        8.79380       -3.98350
N         -8.31320        9.67620       -4.19650
C         -6.28940        7.19270       -5.03510
N         -6.00380        6.81060       -6.08010
C         -9.01600        9.37460        1.38080
C         -8.49190       10.73960        1.87520
C         -9.26030       10.97910        3.15480
C         -8.79520       10.13700        4.06860
C         -7.70370        9.31470        3.42260
C         -7.12480       10.35690        2.45690
C         -8.46400        8.38320        2.45530
C         -4.04410        4.19980       -2.94400
C         -4.77360        3.02970       -2.85150
N         -6.16920        2.96490       -3.04080
C         -6.94950        3.23300       -1.89740
C         -6.68650        2.54770       -0.71680
C         -7.35830        2.86150        0.44980
C         -8.31220        3.86750        0.45390
S         -9.19360        4.40480        1.88820
C         -8.44270        3.44790        3.23700
C         -8.60250        4.53710       -0.73200
C         -7.92560        4.23030       -1.89100
C         -6.67490        3.16950       -4.32620
C         -5.85220        3.51490       -5.39780
C         -6.38610        3.79740       -6.63920
C         -7.75580        3.73270       -6.84250
S         -8.51820        4.18800       -8.36840
C         -7.33170        5.39300       -9.03570
C         -8.57160        3.27370       -5.81140
C         -8.03870        2.98350       -4.57640
C         -3.93030        1.92340       -2.62790
S         -4.20410        0.24970       -2.32260
C         -2.48490        0.00300       -2.04410
C         -1.74370        1.17590       -2.17730
N         -0.39250        1.33120       -1.92130
C          0.31210        2.26370       -2.70250
C          0.07980        2.34060       -4.07620
C          0.75400        3.26350       -4.84270
C          1.68190        4.12530       -4.25970
S          2.47990        5.26260       -5.34510
C          3.64630        6.15090       -4.27510
C          1.92100        4.04580       -2.89360
C          1.23800        3.12520       -2.12330
C          0.26010        0.64160       -0.89360
C         -0.41020        0.28100        0.27800
C          0.22510       -0.47230        1.23940
C          1.55600       -0.85710        1.07920
S          2.25790       -1.85320        2.35490
C          4.03200       -1.88930        1.97940
C          2.24170       -0.45740       -0.05910
C          1.59640        0.27100       -1.03910
C         -2.58560        2.25640       -2.53170
S         -2.32730        3.94630       -2.79100
C         -1.98700       -1.27410       -1.66590
S         -0.45980       -1.84800       -2.28010
C         -0.38960       -3.17350       -1.14540
C         -1.56820       -3.22600       -0.43460
S         -2.12120       -4.26230        0.84060
C         -3.56940       -3.29460        1.00630
C         -4.54080       -3.71890        2.01940
O         -4.38310       -4.69430        2.71270
O         -5.60560       -2.91460        2.06010
C         -6.61830       -3.24000        3.01170
C         -6.26740       -2.72140        4.39890
C         -3.60790       -2.24160        0.13600
C         -2.48100       -2.17130       -0.72550
F         -4.60150       -1.35260        0.10670
C          0.84030       -3.83150       -0.89660
C          2.02310       -3.63410       -1.55680
C          3.14010       -4.17250       -0.88070
C          4.50010       -4.08440       -1.23560
C          4.94580       -3.43840       -2.47690
C          4.50370       -2.16860       -2.84590
C          4.94000       -1.58380       -4.01440
C          5.83990       -2.22950       -4.86160
S          6.34890       -1.34320       -6.30270
C          6.57590       -2.62410       -7.59030
C          5.30870       -3.41860       -7.83320
C          6.29890       -3.48190       -4.46420
F          7.19990       -4.15990       -5.20710
C          5.85790       -4.08570       -3.30420
C          5.41230       -4.60030       -0.32610
C          5.02610       -5.20460        0.89910
C          3.66420       -5.37620        1.21060
C          3.24760       -6.06750        2.43380
C          3.76790       -7.32420        2.74460
C          3.34630       -7.99870        3.86870
C          2.40860       -7.44250        4.73930
S          1.95830       -8.39200        6.15470
C          0.20980       -7.91700        6.46590
C         -0.48080       -9.04860        7.20080
C          1.93440       -6.16790        4.43980
C          2.32400       -5.49390        3.30090
F          1.07960       -5.53610        5.27250
C          2.75680       -4.82930        0.32090
S          1.02650       -4.80320        0.54420
C          6.12880       -5.44400        1.74580
C          7.32730       -5.06070        1.20870
S          7.14600       -4.46020       -0.43600
C          8.61830       -5.08390        1.79830
C          8.88130       -4.86070        3.11590
C          7.95090       -4.20920        4.07700
O          6.76770       -3.97620        3.94050
C          8.78860       -3.80090        5.21810
C          8.36880       -3.09120        6.34160
C          9.36840       -2.83700        7.24870
C         10.69270       -3.25450        7.05370
C         11.11970       -3.95870        5.95330
C         10.11690       -4.22880        5.01730
C         10.18740       -4.93870        3.74560
C         11.26520       -5.63270        3.26430
C         12.51780       -5.70820        3.90790
N         13.56130       -5.80060        4.37740
C         11.25360       -6.40170        2.08050
N         11.30850       -7.06610        1.14590
C         11.16010       -2.64170        8.34970
C         11.93150       -1.30040        8.27680
C         11.47280       -0.60860        7.01720
C         10.21950       -0.21650        7.20390
C          9.80800       -0.63640        8.59350
C         11.15080       -0.49500        9.32780
C          9.68480       -2.18020        8.56870
H         -4.35630        5.96030       -4.17440
H         -6.35550        6.05800        1.75560
H         -8.19980        9.29120       -1.68080
H        -10.08410        9.37780        1.17430
H         -8.51710       11.53290        1.13310
H        -10.07380       11.67470        3.24450
H         -9.14280        9.98870        5.07400
H         -7.01050        8.81060        4.09060
H         -6.43020        9.94680        1.72580
H         -6.65400       11.18720        2.98080
H         -9.16270        7.71650        2.95660
H         -5.94060        1.76940       -0.70000
H         -7.11690        2.31370        1.34580
H         -8.91460        3.80290        4.14780
H         -7.37410        3.63820        3.27390
H         -8.64990        2.39020        3.10370
H         -9.34540        5.32110       -0.72700
H         -8.13770        4.78440       -2.79400
H         -4.78210        3.56950       -5.27660
H         -5.72090        4.07970       -7.43820
H         -7.87960        5.98260       -9.76390
H         -6.50810        4.88020       -9.52440
H         -6.97680        6.02460       -8.22650
H         -9.63000        3.15780       -5.98710
H         -8.68100        2.62260       -3.78760
H         -0.62660        1.66590       -4.53660
H          0.57720        3.32490       -5.90520
H          4.34710        5.45160       -3.82890
H          3.10590        6.71060       -3.51720
H          4.17670        6.83590       -4.92940
H          2.62850        4.70130       -2.41250
H          1.41920        3.07610       -1.05980
H         -1.43220        0.59380        0.42930
H         -0.29980       -0.76530        2.13560
H          4.20660       -2.37570        1.02450
H          4.42590       -0.87700        1.98420
H          4.49370       -2.47190        2.77190
H          3.27860       -0.71950       -0.19630
H          2.12800        0.54720       -1.93760
H         -6.74570       -4.32740        3.03580
H         -7.52350       -2.76530        2.62790
H         -7.08810       -2.92390        5.08090
H         -5.37330       -3.21930        4.76630
H         -6.08760       -1.64940        4.36490
H          2.07960       -3.08920       -2.48140
H          3.82220       -1.62960       -2.20720
H          4.59090       -0.60250       -4.29710
H          7.41270       -3.26170       -7.31460
H          6.84860       -2.04120       -8.47030
H          4.48270       -2.75490       -8.08070
H          5.03630       -3.99650       -6.95220
H          5.46380       -4.10850       -8.66010
H          6.23330       -5.06720       -3.06030
H          4.47970       -7.78730        2.07800
H          3.73330       -8.98010        4.09520
H         -0.25250       -7.73740        5.49670
H          0.20180       -7.00100        7.05460
H         -0.45340       -9.96130        6.60990
H          0.00690       -9.24020        8.15400
H         -1.51920       -8.78280        7.38670
H          1.93050       -4.50450        3.12890
H          6.03410       -5.87840        2.72270
H          9.44690       -5.22190        1.11380
H          7.33890       -2.78960        6.45250
H         12.14150       -4.27080        5.81470
H         11.59290       -3.32960        9.07310
H         13.00610       -1.39040        8.41070
H         12.06910       -0.52790        6.12730
H          9.55920        0.25670        6.50080
H          8.94920       -0.12150        9.01620
H         11.48470        0.53900        9.39900
H         11.15520       -0.95200       10.31620
H          9.15250       -2.56850        9.43480
