
  xtb     02082207503D
 energy: -358.044420190679 gnorm: 0.000332948835 xtb: 6.4.1 (unknown)
212237  0     0  0            999 V2000
   -0.7039   -3.9663   11.0160 C   0  0  0  0  0  0  0  0  0  0  0  0
    0.4753   -3.9587   11.7024 C   0  0  0  0  0  0  0  0  0  0  0  0
    1.7304   -3.3331   11.2142 C   0  0  0  0  0  0  0  0  0  0  0  0
    1.9325   -2.7938   10.1462 O   0  0  0  0  0  0  0  0  0  0  0  0
    2.6575   -3.3556   12.3624 C   0  0  0  0  0  0  0  0  0  0  0  0
    3.9585   -2.8592   12.3907 C   0  0  0  0  0  0  0  0  0  0  0  0
    4.5821   -2.9896   13.6080 C   0  0  0  0  0  0  0  0  0  0  0  0
    3.9521   -3.5574   14.7235 C   0  0  0  0  0  0  0  0  0  0  0  0
    2.6661   -4.0424   14.7124 C   0  0  0  0  0  0  0  0  0  0  0  0
    2.0185   -3.9311   13.4785 C   0  0  0  0  0  0  0  0  0  0  0  0
    0.6721   -4.3368   13.0853 C   0  0  0  0  0  0  0  0  0  0  0  0
   -0.2155   -5.0380   13.8606 C   0  0  0  0  0  0  0  0  0  0  0  0
    0.0188   -5.4204   15.1969 C   0  0  0  0  0  0  0  0  0  0  0  0
    0.1404   -5.7580   16.2880 N   0  0  0  0  0  0  0  0  0  0  0  0
   -1.4715   -5.5071   13.4216 C   0  0  0  0  0  0  0  0  0  0  0  0
   -2.4956   -5.9454   13.1414 N   0  0  0  0  0  0  0  0  0  0  0  0
    5.1610   -3.3639   15.6045 C   0  0  0  0  0  0  0  0  0  0  0  0
    6.0393   -4.6033   15.9053 C   0  0  0  0  0  0  0  0  0  0  0  0
    5.8556   -5.5503   14.7454 C   0  0  0  0  0  0  0  0  0  0  0  0
    6.4531   -5.0165   13.6885 C   0  0  0  0  0  0  0  0  0  0  0  0
    7.0514   -3.6987   14.1146 C   0  0  0  0  0  0  0  0  0  0  0  0
    7.4244   -4.0283   15.5688 C   0  0  0  0  0  0  0  0  0  0  0  0
    5.8642   -2.7347   14.3606 C   0  0  0  0  0  0  0  0  0  0  0  0
   -0.8304   -3.7759    9.6140 C   0  0  0  0  0  0  0  0  0  0  0  0
    0.1056   -4.2347    8.6656 C   0  0  0  0  0  0  0  0  0  0  0  0
   -0.0253   -3.9441    7.2553 C   0  0  0  0  0  0  0  0  0  0  0  0
    0.9693   -4.4796    6.5449 N   0  0  0  0  0  0  0  0  0  0  0  0
    1.9422   -5.2816    7.5364 S   0  0  0  0  0  4  0  0  0  0  0  0
    1.1667   -5.0058    8.9087 N   0  0  0  0  0  0  0  0  0  0  0  0
   -1.0871   -3.1898    6.7145 C   0  0  0  0  0  0  0  0  0  0  0  0
   -2.0787   -2.8187    7.6509 C   0  0  0  0  0  0  0  0  0  0  0  0
   -3.2046   -2.1473    7.3954 N   0  0  0  0  0  0  0  0  0  0  0  0
   -4.0162   -1.9363    8.7641 S   0  0  0  0  0  0  0  0  0  0  0  0
   -2.9933   -2.6637    9.7610 N   0  0  0  0  0  0  0  0  0  0  0  0
   -1.9566   -3.1292    9.0619 C   0  0  0  0  0  0  0  0  0  0  0  0
   -1.1084   -2.8165    5.3456 C   0  0  0  0  0  0  0  0  0  0  0  0
   -2.0495   -2.0409    4.7080 C   0  0  0  0  0  0  0  0  0  0  0  0
   -1.7365   -1.7710    3.3643 C   0  0  0  0  0  0  0  0  0  0  0  0
   -2.4636   -0.9808    2.4512 C   0  0  0  0  0  0  0  0  0  0  0  0
   -3.7886   -0.4430    2.7883 C   0  0  0  0  0  0  0  0  0  0  0  0
   -3.9789    0.4298    3.8800 C   0  0  0  0  0  0  0  0  0  0  0  0
   -5.2270    0.8801    4.1989 C   0  0  0  0  0  0  0  0  0  0  0  0
   -6.3611    0.4499    3.4744 C   0  0  0  0  0  0  0  0  0  0  0  0
   -7.6647    0.8562    3.8054 C   0  0  0  0  0  0  0  0  0  0  0  0
   -8.7518    0.3774    3.1102 C   0  0  0  0  0  0  0  0  0  0  0  0
  -10.3379    0.9998    3.5876 S   0  0  0  0  0  0  0  0  0  0  0  0
  -11.5513   -0.1701    2.8746 C   0  0  0  0  0  0  0  0  0  0  0  0
  -12.0119    0.2209    1.4820 C   0  0  0  0  0  0  0  0  0  0  0  0
   -8.5673   -0.5333    2.0553 C   0  0  0  0  0  0  0  0  0  0  0  0
   -7.3079   -0.9224    1.7001 C   0  0  0  0  0  0  0  0  0  0  0  0
   -6.1742   -0.4428    2.3856 C   0  0  0  0  0  0  0  0  0  0  0  0
   -4.8723   -0.8468    2.0457 C   0  0  0  0  0  0  0  0  0  0  0  0
   -1.9058   -0.8128    1.2002 C   0  0  0  0  0  0  0  0  0  0  0  0
   -0.7047   -1.4486    0.7934 C   0  0  0  0  0  0  0  0  0  0  0  0
   -0.0028   -2.2793    1.6883 C   0  0  0  0  0  0  0  0  0  0  0  0
    1.2237   -2.9701    1.2691 C   0  0  0  0  0  0  0  0  0  0  0  0
    1.3542   -4.3272    1.4411 C   0  0  0  0  0  0  0  0  0  0  0  0
    2.4992   -5.0088    0.9924 C   0  0  0  0  0  0  0  0  0  0  0  0
    2.6499   -6.4027    1.1414 C   0  0  0  0  0  0  0  0  0  0  0  0
    3.7548   -7.0525    0.6702 C   0  0  0  0  0  0  0  0  0  0  0  0
    4.7699   -6.3336    0.0140 C   0  0  0  0  0  0  0  0  0  0  0  0
    6.2339   -7.0832   -0.6382 S   0  0  0  0  0  0  0  0  0  0  0  0
    5.8367   -8.8612   -0.7799 C   0  0  0  0  0  0  0  0  0  0  0  0
    4.7796   -9.1411   -1.8310 C   0  0  0  0  0  0  0  0  0  0  0  0
    4.6655   -4.9686   -0.1203 C   0  0  0  0  0  0  0  0  0  0  0  0
    3.5401   -4.2786    0.3602 C   0  0  0  0  0  0  0  0  0  0  0  0
    3.3988   -2.8801    0.2242 C   0  0  0  0  0  0  0  0  0  0  0  0
    2.2745   -2.2456    0.6637 C   0  0  0  0  0  0  0  0  0  0  0  0
   -0.5280   -2.4044    2.9615 C   0  0  0  0  0  0  0  0  0  0  0  0
    0.1925   -3.2977    4.2778 S   0  0  0  0  0  0  0  0  0  0  0  0
   -0.3794   -1.1327   -0.5389 C   0  0  0  0  0  0  0  0  0  0  0  0
   -1.2318   -0.2310   -1.1283 C   0  0  0  0  0  0  0  0  0  0  0  0
   -2.5441    0.2200   -0.0577 S   0  0  0  0  0  0  0  0  0  0  0  0
   -1.0205    0.3192   -2.4206 C   0  0  0  0  0  0  0  0  0  0  0  0
   -1.5410    1.4463   -3.0473 C   0  0  0  0  0  0  0  0  0  0  0  0
   -2.4784    2.3325   -2.5377 N   0  0  0  0  0  0  0  0  0  0  0  0
   -3.7493    1.9652   -2.1077 C   0  0  0  0  0  0  0  0  0  0  0  0
   -4.3558    0.7788   -2.5240 C   0  0  0  0  0  0  0  0  0  0  0  0
   -5.6394    0.4801   -2.1221 C   0  0  0  0  0  0  0  0  0  0  0  0
   -6.3473    1.3522   -1.2984 C   0  0  0  0  0  0  0  0  0  0  0  0
   -8.0154    0.9214   -0.9188 S   0  0  0  0  0  0  0  0  0  0  0  0
   -8.5781    2.2701    0.1552 C   0  0  0  0  0  0  0  0  0  0  0  0
   -5.7322    2.5132   -0.8486 C   0  0  0  0  0  0  0  0  0  0  0  0
   -4.4485    2.8137   -1.2499 C   0  0  0  0  0  0  0  0  0  0  0  0
   -2.1768    3.6910   -2.7705 C   0  0  0  0  0  0  0  0  0  0  0  0
   -0.9225    4.1737   -2.4023 C   0  0  0  0  0  0  0  0  0  0  0  0
   -0.5482    5.4568   -2.7364 C   0  0  0  0  0  0  0  0  0  0  0  0
   -1.4220    6.2722   -3.4460 C   0  0  0  0  0  0  0  0  0  0  0  0
   -0.8582    7.8727   -3.9384 S   0  0  0  0  0  0  0  0  0  0  0  0
   -1.6388    8.0103   -5.5758 C   0  0  0  0  0  0  0  0  0  0  0  0
   -2.6957    5.8152   -3.7599 C   0  0  0  0  0  0  0  0  0  0  0  0
   -3.0710    4.5309   -3.4265 C   0  0  0  0  0  0  0  0  0  0  0  0
   -0.8908    1.6950   -4.2847 C   0  0  0  0  0  0  0  0  0  0  0  0
   -1.0247    2.9527   -5.4650 S   0  0  0  0  0  0  0  0  0  0  0  0
    0.2464    2.1965   -6.4307 C   0  0  0  0  0  0  0  0  0  0  0  0
    0.7954    1.0579   -5.7867 C   0  0  0  0  0  0  0  0  0  0  0  0
    1.8792    0.3366   -6.2078 N   0  0  0  0  0  0  0  0  0  0  0  0
    1.9828   -1.0055   -5.7849 C   0  0  0  0  0  0  0  0  0  0  0  0
    3.1376   -1.4636   -5.1601 C   0  0  0  0  0  0  0  0  0  0  0  0
    3.2156   -2.7610   -4.6946 C   0  0  0  0  0  0  0  0  0  0  0  0
    2.1378   -3.6234   -4.8545 C   0  0  0  0  0  0  0  0  0  0  0  0
    2.1070   -5.2848   -4.2721 S   0  0  0  0  0  0  0  0  0  0  0  0
    3.6908   -5.4810   -3.4110 C   0  0  0  0  0  0  0  0  0  0  0  0
    0.9927   -3.1754   -5.5128 C   0  0  0  0  0  0  0  0  0  0  0  0
    0.9133   -1.8806   -5.9727 C   0  0  0  0  0  0  0  0  0  0  0  0
    2.9889    0.9142   -6.8498 C   0  0  0  0  0  0  0  0  0  0  0  0
    3.4082    2.2064   -6.5434 C   0  0  0  0  0  0  0  0  0  0  0  0
    4.4936    2.7637   -7.1885 C   0  0  0  0  0  0  0  0  0  0  0  0
    5.1923    2.0285   -8.1391 C   0  0  0  0  0  0  0  0  0  0  0  0
    6.5851    2.6344   -9.0329 S   0  0  0  0  0  0  0  0  0  0  0  0
    6.7249    4.3683   -8.5114 C   0  0  0  0  0  0  0  0  0  0  0  0
    4.7965    0.7221   -8.4195 C   0  0  0  0  0  0  0  0  0  0  0  0
    3.7045    0.1703   -7.7881 C   0  0  0  0  0  0  0  0  0  0  0  0
    0.0968    0.7743   -4.6007 C   0  0  0  0  0  0  0  0  0  0  0  0
    0.2406   -0.4492   -3.3847 S   0  0  0  0  0  0  0  0  0  0  0  0
    0.6150    2.5948   -7.7129 C   0  0  0  0  0  0  0  0  0  0  0  0
    0.2379    3.6860   -8.4633 C   0  0  0  0  0  0  0  0  0  0  0  0
   -0.6091    4.7969   -8.0314 C   0  0  0  0  0  0  0  0  0  0  0  0
   -1.1998    4.9215   -6.9680 O   0  0  0  0  0  0  0  0  0  0  0  0
   -0.5945    5.7804   -9.1304 C   0  0  0  0  0  0  0  0  0  0  0  0
   -1.2627    7.0020   -9.1815 C   0  0  0  0  0  0  0  0  0  0  0  0
   -1.0392    7.7168  -10.3337 C   0  0  0  0  0  0  0  0  0  0  0  0
   -0.2192    7.2481  -11.3671 C   0  0  0  0  0  0  0  0  0  0  0  0
    0.4322    6.0373  -11.3380 C   0  0  0  0  0  0  0  0  0  0  0  0
    0.2249    5.2976  -10.1707 C   0  0  0  0  0  0  0  0  0  0  0  0
    0.7265    3.9764   -9.7910 C   0  0  0  0  0  0  0  0  0  0  0  0
    1.5035    3.1664  -10.5846 C   0  0  0  0  0  0  0  0  0  0  0  0
    2.0190    3.5390  -11.8422 C   0  0  0  0  0  0  0  0  0  0  0  0
    2.4893    3.7817  -12.8618 N   0  0  0  0  0  0  0  0  0  0  0  0
    1.8774    1.8408  -10.2912 C   0  0  0  0  0  0  0  0  0  0  0  0
    2.1990    0.7451  -10.1536 N   0  0  0  0  0  0  0  0  0  0  0  0
   -0.4388    8.4802  -12.2093 C   0  0  0  0  0  0  0  0  0  0  0  0
    0.7081    9.5128  -12.2303 C   0  0  0  0  0  0  0  0  0  0  0  0
    0.0435   10.7819  -12.7125 C   0  0  0  0  0  0  0  0  0  0  0  0
   -0.7347   11.2267  -11.7341 C   0  0  0  0  0  0  0  0  0  0  0  0
   -0.6088   10.2657  -10.5740 C   0  0  0  0  0  0  0  0  0  0  0  0
    0.8567    9.8433  -10.7394 C   0  0  0  0  0  0  0  0  0  0  0  0
   -1.3547    9.0032  -11.0564 C   0  0  0  0  0  0  0  0  0  0  0  0
   -1.6387   -4.0677   11.5534 H   0  0  0  0  0  0  0  0  0  0  0  0
    4.4024   -2.4205   11.5106 H   0  0  0  0  0  0  0  0  0  0  0  0
    2.1907   -4.4659   15.5815 H   0  0  0  0  0  0  0  0  0  0  0  0
    5.0171   -2.7349   16.4808 H   0  0  0  0  0  0  0  0  0  0  0  0
    5.8991   -5.0259   16.8966 H   0  0  0  0  0  0  0  0  0  0  0  0
    5.2777   -6.4544   14.7966 H   0  0  0  0  0  0  0  0  0  0  0  0
    6.4742   -5.3857   12.6798 H   0  0  0  0  0  0  0  0  0  0  0  0
    7.8340   -3.2974   13.4758 H   0  0  0  0  0  0  0  0  0  0  0  0
    8.2180   -4.7704   15.6424 H   0  0  0  0  0  0  0  0  0  0  0  0
    7.6851   -3.1510   16.1594 H   0  0  0  0  0  0  0  0  0  0  0  0
    6.1811   -1.6953   14.4256 H   0  0  0  0  0  0  0  0  0  0  0  0
   -2.9246   -1.6747    5.2126 H   0  0  0  0  0  0  0  0  0  0  0  0
   -3.1174    0.7513    4.4467 H   0  0  0  0  0  0  0  0  0  0  0  0
   -5.3687    1.5617    5.0252 H   0  0  0  0  0  0  0  0  0  0  0  0
   -7.8159    1.5481    4.6209 H   0  0  0  0  0  0  0  0  0  0  0  0
  -11.1103   -1.1653    2.9036 H   0  0  0  0  0  0  0  0  0  0  0  0
  -12.3877   -0.1368    3.5732 H   0  0  0  0  0  0  0  0  0  0  0  0
  -12.7860   -0.4665    1.1457 H   0  0  0  0  0  0  0  0  0  0  0  0
  -12.4238    1.2277    1.4925 H   0  0  0  0  0  0  0  0  0  0  0  0
  -11.1930    0.1916    0.7663 H   0  0  0  0  0  0  0  0  0  0  0  0
   -9.4109   -0.9184    1.5066 H   0  0  0  0  0  0  0  0  0  0  0  0
   -7.1685   -1.6070    0.8767 H   0  0  0  0  0  0  0  0  0  0  0  0
   -4.7369   -1.5199    1.2109 H   0  0  0  0  0  0  0  0  0  0  0  0
    0.5588   -4.8935    1.9029 H   0  0  0  0  0  0  0  0  0  0  0  0
    1.8706   -6.9581    1.6430 H   0  0  0  0  0  0  0  0  0  0  0  0
    3.8453   -8.1174    0.8147 H   0  0  0  0  0  0  0  0  0  0  0  0
    6.7893   -9.3115   -1.0590 H   0  0  0  0  0  0  0  0  0  0  0  0
    5.5533   -9.2350    0.2034 H   0  0  0  0  0  0  0  0  0  0  0  0
    5.1055   -8.7694   -2.8000 H   0  0  0  0  0  0  0  0  0  0  0  0
    3.8360   -8.6630   -1.5741 H   0  0  0  0  0  0  0  0  0  0  0  0
    4.6125  -10.2136   -1.9095 H   0  0  0  0  0  0  0  0  0  0  0  0
    5.4626   -4.4198   -0.6012 H   0  0  0  0  0  0  0  0  0  0  0  0
    4.2001   -2.3193   -0.2362 H   0  0  0  0  0  0  0  0  0  0  0  0
    2.1839   -1.1730    0.5736 H   0  0  0  0  0  0  0  0  0  0  0  0
    0.4696   -1.5434   -1.0559 H   0  0  0  0  0  0  0  0  0  0  0  0
   -3.8227    0.1044   -3.1777 H   0  0  0  0  0  0  0  0  0  0  0  0
   -6.1167   -0.4271   -2.4598 H   0  0  0  0  0  0  0  0  0  0  0  0
   -8.5336    3.2135   -0.3811 H   0  0  0  0  0  0  0  0  0  0  0  0
   -9.6090    2.0425    0.4061 H   0  0  0  0  0  0  0  0  0  0  0  0
   -7.9796    2.2955    1.0613 H   0  0  0  0  0  0  0  0  0  0  0  0
   -6.2401    3.1941   -0.1857 H   0  0  0  0  0  0  0  0  0  0  0  0
   -3.9762    3.7186   -0.8987 H   0  0  0  0  0  0  0  0  0  0  0  0
   -0.2375    3.5240   -1.8771 H   0  0  0  0  0  0  0  0  0  0  0  0
    0.4285    5.8313   -2.4716 H   0  0  0  0  0  0  0  0  0  0  0  0
   -2.6565    8.3797   -5.4829 H   0  0  0  0  0  0  0  0  0  0  0  0
   -1.0403    8.7195   -6.1397 H   0  0  0  0  0  0  0  0  0  0  0  0
   -1.6127    7.0287   -6.0411 H   0  0  0  0  0  0  0  0  0  0  0  0
   -3.3915    6.4495   -4.2849 H   0  0  0  0  0  0  0  0  0  0  0  0
   -4.0487    4.1625   -3.6985 H   0  0  0  0  0  0  0  0  0  0  0  0
    3.9725   -0.7921   -5.0251 H   0  0  0  0  0  0  0  0  0  0  0  0
    4.1172   -3.0829   -4.1999 H   0  0  0  0  0  0  0  0  0  0  0  0
    3.6814   -6.4897   -3.0114 H   0  0  0  0  0  0  0  0  0  0  0  0
    4.5153   -5.3713   -4.1092 H   0  0  0  0  0  0  0  0  0  0  0  0
    3.7590   -4.7689   -2.5941 H   0  0  0  0  0  0  0  0  0  0  0  0
    0.1679   -3.8568   -5.6525 H   0  0  0  0  0  0  0  0  0  0  0  0
    0.0246   -1.5342   -6.4787 H   0  0  0  0  0  0  0  0  0  0  0  0
    2.8773    2.7823   -5.7996 H   0  0  0  0  0  0  0  0  0  0  0  0
    4.7892    3.7681   -6.9315 H   0  0  0  0  0  0  0  0  0  0  0  0
    7.5449    4.7801   -9.0915 H   0  0  0  0  0  0  0  0  0  0  0  0
    6.9601    4.4245   -7.4525 H   0  0  0  0  0  0  0  0  0  0  0  0
    5.8069    4.9004   -8.7431 H   0  0  0  0  0  0  0  0  0  0  0  0
    5.3427    0.1539   -9.1553 H   0  0  0  0  0  0  0  0  0  0  0  0
    3.3898   -0.8328   -8.0275 H   0  0  0  0  0  0  0  0  0  0  0  0
    1.3198    1.9248   -8.1879 H   0  0  0  0  0  0  0  0  0  0  0  0
   -1.8990    7.3263   -8.3735 H   0  0  0  0  0  0  0  0  0  0  0  0
    1.0501    5.6860  -12.1470 H   0  0  0  0  0  0  0  0  0  0  0  0
   -0.8794    8.3133  -13.1902 H   0  0  0  0  0  0  0  0  0  0  0  0
    1.5986    9.1926  -12.7642 H   0  0  0  0  0  0  0  0  0  0  0  0
    0.1605   11.1814  -13.7027 H   0  0  0  0  0  0  0  0  0  0  0  0
   -1.3973   12.0721  -11.7436 H   0  0  0  0  0  0  0  0  0  0  0  0
   -0.9176   10.6336   -9.5989 H   0  0  0  0  0  0  0  0  0  0  0  0
    1.5450   10.6692  -10.5675 H   0  0  0  0  0  0  0  0  0  0  0  0
    1.1460    8.9938  -10.1234 H   0  0  0  0  0  0  0  0  0  0  0  0
   -2.4066    9.1849  -11.2689 H   0  0  0  0  0  0  0  0  0  0  0  0
  1  2  2  0  0  0  0
  2  3  1  0  0  0  0
  3  4  2  0  0  0  0
  3  5  1  0  0  0  0
  5  6  2  0  0  0  0
  6  7  1  0  0  0  0
  7  8  2  0  0  0  0
  8  9  1  0  0  0  0
  9 10  2  0  0  0  0
 10 11  1  0  0  0  0
 11 12  2  0  0  0  0
 12 13  1  0  0  0  0
 13 14  3  0  0  0  0
 12 15  1  0  0  0  0
 15 16  3  0  0  0  0
  8 17  1  0  0  0  0
 17 18  1  0  0  0  0
 18 19  1  0  0  0  0
 19 20  2  0  0  0  0
 20 21  1  0  0  0  0
 21 22  1  0  0  0  0
 21 23  1  0  0  0  0
  1 24  1  0  0  0  0
 24 25  2  0  0  0  0
 25 26  1  0  0  0  0
 26 27  1  0  0  0  0
 27 28  2  0  0  0  0
 28 29  2  0  0  0  0
 26 30  2  0  0  0  0
 30 31  1  0  0  0  0
 31 32  2  0  0  0  0
 32 33  1  0  0  0  0
 33 34  1  0  0  0  0
 34 35  2  0  0  0  0
 30 36  1  0  0  0  0
 36 37  2  0  0  0  0
 37 38  1  0  0  0  0
 38 39  2  0  0  0  0
 39 40  1  0  0  0  0
 40 41  2  0  0  0  0
 41 42  1  0  0  0  0
 42 43  2  0  0  0  0
 43 44  1  0  0  0  0
 44 45  2  0  0  0  0
 45 46  1  0  0  0  0
 46 47  1  0  0  0  0
 47 48  1  0  0  0  0
 45 49  1  0  0  0  0
 49 50  2  0  0  0  0
 50 51  1  0  0  0  0
 51 52  2  0  0  0  0
 39 53  1  0  0  0  0
 53 54  2  0  0  0  0
 54 55  1  0  0  0  0
 55 56  1  0  0  0  0
 56 57  2  0  0  0  0
 57 58  1  0  0  0  0
 58 59  2  0  0  0  0
 59 60  1  0  0  0  0
 60 61  2  0  0  0  0
 61 62  1  0  0  0  0
 62 63  1  0  0  0  0
 63 64  1  0  0  0  0
 61 65  1  0  0  0  0
 65 66  2  0  0  0  0
 66 67  1  0  0  0  0
 67 68  2  0  0  0  0
 55 69  2  0  0  0  0
 69 70  1  0  0  0  0
 54 71  1  0  0  0  0
 71 72  2  0  0  0  0
 72 73  1  0  0  0  0
 72 74  1  0  0  0  0
 74 75  2  0  0  0  0
 75 76  1  0  0  0  0
 76 77  1  0  0  0  0
 77 78  2  0  0  0  0
 78 79  1  0  0  0  0
 79 80  2  0  0  0  0
 80 81  1  0  0  0  0
 81 82  1  0  0  0  0
 80 83  1  0  0  0  0
 83 84  2  0  0  0  0
 76 85  1  0  0  0  0
 85 86  2  0  0  0  0
 86 87  1  0  0  0  0
 87 88  2  0  0  0  0
 88 89  1  0  0  0  0
 89 90  1  0  0  0  0
 88 91  1  0  0  0  0
 91 92  2  0  0  0  0
 75 93  1  0  0  0  0
 93 94  1  0  0  0  0
 94 95  1  0  0  0  0
 95 96  2  0  0  0  0
 96 97  1  0  0  0  0
 97 98  1  0  0  0  0
 98 99  2  0  0  0  0
 99100  1  0  0  0  0
100101  2  0  0  0  0
101102  1  0  0  0  0
102103  1  0  0  0  0
101104  1  0  0  0  0
104105  2  0  0  0  0
 97106  1  0  0  0  0
106107  2  0  0  0  0
107108  1  0  0  0  0
108109  2  0  0  0  0
109110  1  0  0  0  0
110111  1  0  0  0  0
109112  1  0  0  0  0
112113  2  0  0  0  0
 96114  1  0  0  0  0
114115  1  0  0  0  0
 95116  1  0  0  0  0
116117  2  0  0  0  0
117118  1  0  0  0  0
118119  2  0  0  0  0
118120  1  0  0  0  0
120121  2  0  0  0  0
121122  1  0  0  0  0
122123  2  0  0  0  0
123124  1  0  0  0  0
124125  2  0  0  0  0
125126  1  0  0  0  0
126127  2  0  0  0  0
127128  1  0  0  0  0
128129  3  0  0  0  0
127130  1  0  0  0  0
130131  3  0  0  0  0
123132  1  0  0  0  0
132133  1  0  0  0  0
133134  1  0  0  0  0
134135  2  0  0  0  0
135136  1  0  0  0  0
136137  1  0  0  0  0
136138  1  0  0  0  0
 11  2  1  0  0  0  0
 23 17  1  0  0  0  0
 35 24  1  0  0  0  0
 70 36  1  0  0  0  0
115 74  1  0  0  0  0
126117  1  0  0  0  0
138132  1  0  0  0  0
 10  5  1  0  0  0  0
 22 18  1  0  0  0  0
 29 25  1  0  0  0  0
 35 31  1  0  0  0  0
 69 38  1  0  0  0  0
 84 77  1  0  0  0  0
 92 85  1  0  0  0  0
114 93  2  0  0  0  0
125120  1  0  0  0  0
137133  1  0  0  0  0
 23  7  1  0  0  0  0
 52 40  1  0  0  0  0
 73 53  1  0  0  0  0
105 98  1  0  0  0  0
113106  1  0  0  0  0
138122  1  0  0  0  0
 51 43  1  0  0  0  0
 68 56  1  0  0  0  0
 66 58  1  0  0  0  0
  1139  1  0  0  0  0
  6140  1  0  0  0  0
  9141  1  0  0  0  0
 17142  1  0  0  0  0
 18143  1  0  0  0  0
 19144  1  0  0  0  0
 20145  1  0  0  0  0
 21146  1  0  0  0  0
 22147  1  0  0  0  0
 22148  1  0  0  0  0
 23149  1  0  0  0  0
 37150  1  0  0  0  0
 41151  1  0  0  0  0
 42152  1  0  0  0  0
 44153  1  0  0  0  0
 47154  1  0  0  0  0
 47155  1  0  0  0  0
 48156  1  0  0  0  0
 48157  1  0  0  0  0
 48158  1  0  0  0  0
 49159  1  0  0  0  0
 50160  1  0  0  0  0
 52161  1  0  0  0  0
 57162  1  0  0  0  0
 59163  1  0  0  0  0
 60164  1  0  0  0  0
 63165  1  0  0  0  0
 63166  1  0  0  0  0
 64167  1  0  0  0  0
 64168  1  0  0  0  0
 64169  1  0  0  0  0
 65170  1  0  0  0  0
 67171  1  0  0  0  0
 68172  1  0  0  0  0
 71173  1  0  0  0  0
 78174  1  0  0  0  0
 79175  1  0  0  0  0
 82176  1  0  0  0  0
 82177  1  0  0  0  0
 82178  1  0  0  0  0
 83179  1  0  0  0  0
 84180  1  0  0  0  0
 86181  1  0  0  0  0
 87182  1  0  0  0  0
 90183  1  0  0  0  0
 90184  1  0  0  0  0
 90185  1  0  0  0  0
 91186  1  0  0  0  0
 92187  1  0  0  0  0
 99188  1  0  0  0  0
100189  1  0  0  0  0
103190  1  0  0  0  0
103191  1  0  0  0  0
103192  1  0  0  0  0
104193  1  0  0  0  0
105194  1  0  0  0  0
107195  1  0  0  0  0
108196  1  0  0  0  0
111197  1  0  0  0  0
111198  1  0  0  0  0
111199  1  0  0  0  0
112200  1  0  0  0  0
113201  1  0  0  0  0
116202  1  0  0  0  0
121203  1  0  0  0  0
124204  1  0  0  0  0
132205  1  0  0  0  0
133206  1  0  0  0  0
134207  1  0  0  0  0
135208  1  0  0  0  0
136209  1  0  0  0  0
137210  1  0  0  0  0
137211  1  0  0  0  0
138212  1  0  0  0  0
M  END
