
  xtb     02042208013D
 energy: -280.231847737806 gnorm: 0.000848941457 xtb: 6.4.1 (unknown)
153171  0     0  0            999 V2000
    4.3918   -2.0359   -5.2173 C   0  0  0  0  0  0  0  0  0  0  0  0
    4.6388   -1.5573   -6.4758 C   0  0  0  0  0  0  0  0  0  0  0  0
    5.0164   -2.5090   -7.5520 C   0  0  0  0  0  0  0  0  0  0  0  0
    5.3330   -3.6713   -7.4218 O   0  0  0  0  0  0  0  0  0  0  0  0
    4.8848   -1.7497   -8.8139 C   0  0  0  0  0  0  0  0  0  0  0  0
    5.0510   -2.2291  -10.1109 C   0  0  0  0  0  0  0  0  0  0  0  0
    4.8537   -1.2818  -11.0877 C   0  0  0  0  0  0  0  0  0  0  0  0
    4.5101    0.0450  -10.7992 C   0  0  0  0  0  0  0  0  0  0  0  0
    4.3530    0.5351   -9.5241 C   0  0  0  0  0  0  0  0  0  0  0  0
    4.5548   -0.4116   -8.5170 C   0  0  0  0  0  0  0  0  0  0  0  0
    4.5316   -0.2533   -7.0645 C   0  0  0  0  0  0  0  0  0  0  0  0
    4.6201    0.9449   -6.3939 C   0  0  0  0  0  0  0  0  0  0  0  0
    4.9668    1.0375   -5.0378 C   0  0  0  0  0  0  0  0  0  0  0  0
    5.3139    1.1826   -3.9505 N   0  0  0  0  0  0  0  0  0  0  0  0
    4.4694    2.2111   -6.9863 C   0  0  0  0  0  0  0  0  0  0  0  0
    4.3252    3.2755   -7.3953 N   0  0  0  0  0  0  0  0  0  0  0  0
    4.4564    0.4328  -12.2563 C   0  0  0  0  0  0  0  0  0  0  0  0
    3.0537    0.5604  -12.8873 C   0  0  0  0  0  0  0  0  0  0  0  0
    3.3171    0.4715  -14.3731 C   0  0  0  0  0  0  0  0  0  0  0  0
    3.6508   -0.7828  -14.6491 C   0  0  0  0  0  0  0  0  0  0  0  0
    3.6174   -1.5628  -13.3547 C   0  0  0  0  0  0  0  0  0  0  0  0
    2.4714   -0.8370  -12.6382 C   0  0  0  0  0  0  0  0  0  0  0  0
    4.8466   -1.0453  -12.5785 C   0  0  0  0  0  0  0  0  0  0  0  0
    3.6924   -1.4701   -4.1310 C   0  0  0  0  0  0  0  0  0  0  0  0
    2.7644   -0.4023   -4.1826 C   0  0  0  0  0  0  0  0  0  0  0  0
    2.1005    0.1328   -3.0084 C   0  0  0  0  0  0  0  0  0  0  0  0
    1.2105    1.0689   -3.3325 N   0  0  0  0  0  0  0  0  0  0  0  0
    1.2036    1.2744   -4.9271 S   0  0  0  0  0  4  0  0  0  0  0  0
    2.3276    0.1815   -5.2975 N   0  0  0  0  0  0  0  0  0  0  0  0
    2.3369   -0.3633   -1.7028 C   0  0  0  0  0  0  0  0  0  0  0  0
    3.1580   -1.5202   -1.6798 C   0  0  0  0  0  0  0  0  0  0  0  0
    3.4290   -2.2296   -0.5875 N   0  0  0  0  0  0  0  0  0  0  0  0
    4.3894   -3.4621   -0.9858 S   0  0  0  0  0  0  0  0  0  0  0  0
    4.5238   -3.1435   -2.5542 N   0  0  0  0  0  0  0  0  0  0  0  0
    3.8068   -2.0609   -2.8481 C   0  0  0  0  0  0  0  0  0  0  0  0
    1.7719    0.1138   -0.5022 C   0  0  0  0  0  0  0  0  0  0  0  0
    1.0506    1.2899   -0.2059 C   0  0  0  0  0  0  0  0  0  0  0  0
    0.8997    2.4232   -0.9699 N   0  0  0  0  0  0  0  0  0  0  0  0
   -0.2860    3.1485   -0.7340 C   0  0  0  0  0  0  0  0  0  0  0  0
   -0.2511    4.4849   -0.3351 C   0  0  0  0  0  0  0  0  0  0  0  0
   -1.3939    5.0860    0.1435 C   0  0  0  0  0  0  0  0  0  0  0  0
   -2.5863    4.3688    0.2269 C   0  0  0  0  0  0  0  0  0  0  0  0
   -3.9412    5.1425    1.0487 S   0  0  0  0  0  0  0  0  0  0  0  0
   -4.9596    3.7348    1.5775 C   0  0  0  0  0  0  0  0  0  0  0  0
   -2.6538    3.0841   -0.2997 C   0  0  0  0  0  0  0  0  0  0  0  0
   -1.5083    2.4804   -0.7758 C   0  0  0  0  0  0  0  0  0  0  0  0
    1.9138    2.9676   -1.7470 C   0  0  0  0  0  0  0  0  0  0  0  0
    1.5966    3.8487   -2.7880 C   0  0  0  0  0  0  0  0  0  0  0  0
    2.5913    4.3987   -3.5585 C   0  0  0  0  0  0  0  0  0  0  0  0
    3.9348    4.1092   -3.3010 C   0  0  0  0  0  0  0  0  0  0  0  0
    5.1145    4.8863   -4.3371 S   0  0  0  0  0  0  0  0  0  0  0  0
    6.7002    4.1792   -3.8109 C   0  0  0  0  0  0  0  0  0  0  0  0
    4.2562    3.2589   -2.2469 C   0  0  0  0  0  0  0  0  0  0  0  0
    3.2571    2.6953   -1.4841 C   0  0  0  0  0  0  0  0  0  0  0  0
    0.4826    1.2127    1.0849 C   0  0  0  0  0  0  0  0  0  0  0  0
   -0.4653    2.3181    2.0231 S   0  0  0  0  0  0  0  0  0  0  0  0
   -0.5875    1.1430    3.3242 C   0  0  0  0  0  0  0  0  0  0  0  0
    0.2491    0.0282    3.1033 C   0  0  0  0  0  0  0  0  0  0  0  0
    0.5893   -0.9582    3.9930 N   0  0  0  0  0  0  0  0  0  0  0  0
    0.6630   -0.7770    5.3695 C   0  0  0  0  0  0  0  0  0  0  0  0
    0.8639    0.4810    5.9367 C   0  0  0  0  0  0  0  0  0  0  0  0
    0.8835    0.6454    7.3068 C   0  0  0  0  0  0  0  0  0  0  0  0
    0.7242   -0.4511    8.1449 C   0  0  0  0  0  0  0  0  0  0  0  0
    0.6998   -0.3602    9.9033 S   0  0  0  0  0  0  0  0  0  0  0  0
    0.6204    1.4199   10.2485 C   0  0  0  0  0  0  0  0  0  0  0  0
    0.5864   -1.7215    7.5831 C   0  0  0  0  0  0  0  0  0  0  0  0
    0.5607   -1.8846    6.2194 C   0  0  0  0  0  0  0  0  0  0  0  0
    0.9994   -2.1897    3.4333 C   0  0  0  0  0  0  0  0  0  0  0  0
    2.2560   -2.7132    3.7142 C   0  0  0  0  0  0  0  0  0  0  0  0
    2.6984   -3.8521    3.0706 C   0  0  0  0  0  0  0  0  0  0  0  0
    1.8844   -4.4833    2.1383 C   0  0  0  0  0  0  0  0  0  0  0  0
    2.3684   -5.8892    1.1961 S   0  0  0  0  0  0  0  0  0  0  0  0
    4.1050   -6.1526    1.6550 C   0  0  0  0  0  0  0  0  0  0  0  0
    0.6005   -3.9929    1.9015 C   0  0  0  0  0  0  0  0  0  0  0  0
    0.1614   -2.8558    2.5404 C   0  0  0  0  0  0  0  0  0  0  0  0
    0.7993    0.0722    1.8005 C   0  0  0  0  0  0  0  0  0  0  0  0
    1.8598   -0.9635    0.8917 S   0  0  0  0  0  0  0  0  0  0  0  0
   -1.5650    1.4245    4.3053 C   0  0  0  0  0  0  0  0  0  0  0  0
   -2.1817    0.4934    5.1734 C   0  0  0  0  0  0  0  0  0  0  0  0
   -3.2640    0.8623    6.0664 C   0  0  0  0  0  0  0  0  0  0  0  0
   -3.6870   -0.1840    6.7760 N   0  0  0  0  0  0  0  0  0  0  0  0
   -2.8679   -1.4958    6.3366 S   0  0  0  0  0  4  0  0  0  0  0  0
   -1.9150   -0.8103    5.2396 N   0  0  0  0  0  0  0  0  0  0  0  0
   -3.7965    2.1701    6.1402 C   0  0  0  0  0  0  0  0  0  0  0  0
   -3.1708    3.1006    5.2866 C   0  0  0  0  0  0  0  0  0  0  0  0
   -3.5207    4.3814    5.1324 N   0  0  0  0  0  0  0  0  0  0  0  0
   -2.6341    5.0398    3.9705 S   0  0  0  0  0  0  0  0  0  0  0  0
   -1.7468    3.7487    3.6063 N   0  0  0  0  0  0  0  0  0  0  0  0
   -2.1184    2.7260    4.3782 C   0  0  0  0  0  0  0  0  0  0  0  0
   -4.8798    2.5685    6.9649 C   0  0  0  0  0  0  0  0  0  0  0  0
   -5.8870    1.7994    7.4628 C   0  0  0  0  0  0  0  0  0  0  0  0
   -6.6901    2.2599    8.6217 C   0  0  0  0  0  0  0  0  0  0  0  0
   -6.7287    3.3746    9.0918 O   0  0  0  0  0  0  0  0  0  0  0  0
   -7.3801    1.0453    9.1148 C   0  0  0  0  0  0  0  0  0  0  0  0
   -8.1499    0.8895   10.2493 C   0  0  0  0  0  0  0  0  0  0  0  0
   -8.6371   -0.3795   10.5298 C   0  0  0  0  0  0  0  0  0  0  0  0
   -8.3313   -1.4599    9.7198 C   0  0  0  0  0  0  0  0  0  0  0  0
   -7.5482   -1.3132    8.5699 C   0  0  0  0  0  0  0  0  0  0  0  0
   -7.1464   -2.3252    7.7772 O   0  0  0  0  0  0  0  0  0  0  0  0
   -7.6432   -3.6248    7.9964 C   0  0  0  0  0  0  0  0  0  0  0  0
   -7.1044   -0.0258    8.2480 C   0  0  0  0  0  0  0  0  0  0  0  0
   -6.3413    0.4714    7.1107 C   0  0  0  0  0  0  0  0  0  0  0  0
   -6.3042   -0.0583    5.8458 C   0  0  0  0  0  0  0  0  0  0  0  0
   -5.7486    0.6219    4.7439 C   0  0  0  0  0  0  0  0  0  0  0  0
   -5.3402    1.1315    3.7974 N   0  0  0  0  0  0  0  0  0  0  0  0
   -6.8980   -1.2628    5.4167 C   0  0  0  0  0  0  0  0  0  0  0  0
   -7.3566   -2.1980    4.9324 N   0  0  0  0  0  0  0  0  0  0  0  0
    4.7492   -3.0459   -5.0377 H   0  0  0  0  0  0  0  0  0  0  0  0
    5.3189   -3.2583  -10.2919 H   0  0  0  0  0  0  0  0  0  0  0  0
    4.0919    1.5588   -9.3113 H   0  0  0  0  0  0  0  0  0  0  0  0
    5.1333    1.2290  -12.5612 H   0  0  0  0  0  0  0  0  0  0  0  0
    2.4753    1.4133  -12.5426 H   0  0  0  0  0  0  0  0  0  0  0  0
    3.2906    1.3143  -15.0388 H   0  0  0  0  0  0  0  0  0  0  0  0
    3.9586   -1.1968  -15.5916 H   0  0  0  0  0  0  0  0  0  0  0  0
    3.5521   -2.6444  -13.4370 H   0  0  0  0  0  0  0  0  0  0  0  0
    2.3732   -1.0951  -11.5855 H   0  0  0  0  0  0  0  0  0  0  0  0
    1.5156   -0.9803  -13.1398 H   0  0  0  0  0  0  0  0  0  0  0  0
    5.7867   -1.2335  -13.0939 H   0  0  0  0  0  0  0  0  0  0  0  0
    0.6858    5.0208   -0.3420 H   0  0  0  0  0  0  0  0  0  0  0  0
   -1.3642    6.1004    0.5090 H   0  0  0  0  0  0  0  0  0  0  0  0
   -5.5299    3.3441    0.7402 H   0  0  0  0  0  0  0  0  0  0  0  0
   -5.6396    4.1230    2.3297 H   0  0  0  0  0  0  0  0  0  0  0  0
   -4.3321    2.9645    2.0152 H   0  0  0  0  0  0  0  0  0  0  0  0
   -3.5837    2.5391   -0.3130 H   0  0  0  0  0  0  0  0  0  0  0  0
   -1.5404    1.4659   -1.1441 H   0  0  0  0  0  0  0  0  0  0  0  0
    0.5610    4.0621   -3.0034 H   0  0  0  0  0  0  0  0  0  0  0  0
    2.3486    5.0583   -4.3773 H   0  0  0  0  0  0  0  0  0  0  0  0
    6.9536    4.5342   -2.8162 H   0  0  0  0  0  0  0  0  0  0  0  0
    6.6404    3.0952   -3.8445 H   0  0  0  0  0  0  0  0  0  0  0  0
    7.4319    4.5360   -4.5289 H   0  0  0  0  0  0  0  0  0  0  0  0
    5.2809    3.0321   -2.0085 H   0  0  0  0  0  0  0  0  0  0  0  0
    3.5234    2.0475   -0.6631 H   0  0  0  0  0  0  0  0  0  0  0  0
    1.0079    1.3428    5.3034 H   0  0  0  0  0  0  0  0  0  0  0  0
    1.0312    1.6353    7.7076 H   0  0  0  0  0  0  0  0  0  0  0  0
   -0.2356    1.8542    9.7404 H   0  0  0  0  0  0  0  0  0  0  0  0
    0.4932    1.5034   11.3233 H   0  0  0  0  0  0  0  0  0  0  0  0
    1.5464    1.9033    9.9509 H   0  0  0  0  0  0  0  0  0  0  0  0
    0.4840   -2.5737    8.2371 H   0  0  0  0  0  0  0  0  0  0  0  0
    0.4176   -2.8664    5.7962 H   0  0  0  0  0  0  0  0  0  0  0  0
    2.8982   -2.2089    4.4209 H   0  0  0  0  0  0  0  0  0  0  0  0
    3.6849   -4.2244    3.2919 H   0  0  0  0  0  0  0  0  0  0  0  0
    4.6790   -5.2523    1.4564 H   0  0  0  0  0  0  0  0  0  0  0  0
    4.4543   -6.9605    1.0196 H   0  0  0  0  0  0  0  0  0  0  0  0
    4.1754   -6.4493    2.6974 H   0  0  0  0  0  0  0  0  0  0  0  0
   -0.0364   -4.5072    1.1986 H   0  0  0  0  0  0  0  0  0  0  0  0
   -0.8248   -2.4615    2.3478 H   0  0  0  0  0  0  0  0  0  0  0  0
   -4.8835    3.6128    7.2590 H   0  0  0  0  0  0  0  0  0  0  0  0
   -8.3589    1.7330   10.8875 H   0  0  0  0  0  0  0  0  0  0  0  0
   -9.2524   -0.5384   11.4027 H   0  0  0  0  0  0  0  0  0  0  0  0
   -8.7028   -2.4352    9.9925 H   0  0  0  0  0  0  0  0  0  0  0  0
   -7.2593   -4.2194    7.1697 H   0  0  0  0  0  0  0  0  0  0  0  0
   -8.7363   -3.6433    7.9744 H   0  0  0  0  0  0  0  0  0  0  0  0
   -7.2840   -4.0352    8.9455 H   0  0  0  0  0  0  0  0  0  0  0  0
  1  2  2  0  0  0  0
  2  3  1  0  0  0  0
  3  4  2  0  0  0  0
  3  5  1  0  0  0  0
  5  6  2  0  0  0  0
  6  7  1  0  0  0  0
  7  8  2  0  0  0  0
  8  9  1  0  0  0  0
  9 10  2  0  0  0  0
 10 11  1  0  0  0  0
 11 12  2  0  0  0  0
 12 13  1  0  0  0  0
 13 14  3  0  0  0  0
 12 15  1  0  0  0  0
 15 16  3  0  0  0  0
  8 17  1  0  0  0  0
 17 18  1  0  0  0  0
 18 19  1  0  0  0  0
 19 20  2  0  0  0  0
 20 21  1  0  0  0  0
 21 22  1  0  0  0  0
 21 23  1  0  0  0  0
  1 24  1  0  0  0  0
 24 25  2  0  0  0  0
 25 26  1  0  0  0  0
 26 27  1  0  0  0  0
 27 28  2  0  0  0  0
 28 29  2  0  0  0  0
 26 30  2  0  0  0  0
 30 31  1  0  0  0  0
 31 32  2  0  0  0  0
 32 33  1  0  0  0  0
 33 34  1  0  0  0  0
 34 35  2  0  0  0  0
 30 36  1  0  0  0  0
 36 37  2  0  0  0  0
 37 38  1  0  0  0  0
 38 39  1  0  0  0  0
 39 40  2  0  0  0  0
 40 41  1  0  0  0  0
 41 42  2  0  0  0  0
 42 43  1  0  0  0  0
 43 44  1  0  0  0  0
 42 45  1  0  0  0  0
 45 46  2  0  0  0  0
 38 47  1  0  0  0  0
 47 48  2  0  0  0  0
 48 49  1  0  0  0  0
 49 50  2  0  0  0  0
 50 51  1  0  0  0  0
 51 52  1  0  0  0  0
 50 53  1  0  0  0  0
 53 54  2  0  0  0  0
 37 55  1  0  0  0  0
 55 56  1  0  0  0  0
 56 57  1  0  0  0  0
 57 58  2  0  0  0  0
 58 59  1  0  0  0  0
 59 60  1  0  0  0  0
 60 61  2  0  0  0  0
 61 62  1  0  0  0  0
 62 63  2  0  0  0  0
 63 64  1  0  0  0  0
 64 65  1  0  0  0  0
 63 66  1  0  0  0  0
 66 67  2  0  0  0  0
 59 68  1  0  0  0  0
 68 69  2  0  0  0  0
 69 70  1  0  0  0  0
 70 71  2  0  0  0  0
 71 72  1  0  0  0  0
 72 73  1  0  0  0  0
 71 74  1  0  0  0  0
 74 75  2  0  0  0  0
 58 76  1  0  0  0  0
 76 77  1  0  0  0  0
 57 78  1  0  0  0  0
 78 79  2  0  0  0  0
 79 80  1  0  0  0  0
 80 81  1  0  0  0  0
 81 82  2  0  0  0  0
 82 83  2  0  0  0  0
 80 84  2  0  0  0  0
 84 85  1  0  0  0  0
 85 86  2  0  0  0  0
 86 87  1  0  0  0  0
 87 88  1  0  0  0  0
 88 89  2  0  0  0  0
 84 90  1  0  0  0  0
 90 91  2  0  0  0  0
 91 92  1  0  0  0  0
 92 93  2  0  0  0  0
 92 94  1  0  0  0  0
 94 95  2  0  0  0  0
 95 96  1  0  0  0  0
 96 97  2  0  0  0  0
 97 98  1  0  0  0  0
 98 99  1  0  0  0  0
 99100  1  0  0  0  0
 98101  2  0  0  0  0
101102  1  0  0  0  0
102103  2  0  0  0  0
103104  1  0  0  0  0
104105  3  0  0  0  0
103106  1  0  0  0  0
106107  3  0  0  0  0
 11  2  1  0  0  0  0
 23 17  1  0  0  0  0
 35 24  1  0  0  0  0
 77 36  1  0  0  0  0
 89 78  1  0  0  0  0
102 91  1  0  0  0  0
 10  5  1  0  0  0  0
 22 18  1  0  0  0  0
 29 25  1  0  0  0  0
 35 31  1  0  0  0  0
 46 39  1  0  0  0  0
 54 47  1  0  0  0  0
 76 55  2  0  0  0  0
 83 79  1  0  0  0  0
 89 85  1  0  0  0  0
101 94  1  0  0  0  0
 23  7  1  0  0  0  0
 67 60  1  0  0  0  0
 75 68  1  0  0  0  0
  1108  1  0  0  0  0
  6109  1  0  0  0  0
  9110  1  0  0  0  0
 17111  1  0  0  0  0
 18112  1  0  0  0  0
 19113  1  0  0  0  0
 20114  1  0  0  0  0
 21115  1  0  0  0  0
 22116  1  0  0  0  0
 22117  1  0  0  0  0
 23118  1  0  0  0  0
 40119  1  0  0  0  0
 41120  1  0  0  0  0
 44121  1  0  0  0  0
 44122  1  0  0  0  0
 44123  1  0  0  0  0
 45124  1  0  0  0  0
 46125  1  0  0  0  0
 48126  1  0  0  0  0
 49127  1  0  0  0  0
 52128  1  0  0  0  0
 52129  1  0  0  0  0
 52130  1  0  0  0  0
 53131  1  0  0  0  0
 54132  1  0  0  0  0
 61133  1  0  0  0  0
 62134  1  0  0  0  0
 65135  1  0  0  0  0
 65136  1  0  0  0  0
 65137  1  0  0  0  0
 66138  1  0  0  0  0
 67139  1  0  0  0  0
 69140  1  0  0  0  0
 70141  1  0  0  0  0
 73142  1  0  0  0  0
 73143  1  0  0  0  0
 73144  1  0  0  0  0
 74145  1  0  0  0  0
 75146  1  0  0  0  0
 90147  1  0  0  0  0
 95148  1  0  0  0  0
 96149  1  0  0  0  0
 97150  1  0  0  0  0
100151  1  0  0  0  0
100152  1  0  0  0  0
100153  1  0  0  0  0
M  END
