
  xtb     02082209263D
 energy: -347.455845453325 gnorm: 0.000435671376 xtb: 6.4.1 (unknown)
212234  0     0  0            999 V2000
    7.3028    7.1162   -2.5597 C   0  0  0  0  0  0  0  0  0  0  0  0
    6.4095    8.1230   -2.6976 C   0  0  0  0  0  0  0  0  0  0  0  0
    4.9890    8.0433   -2.2429 C   0  0  0  0  0  0  0  0  0  0  0  0
    4.4347    7.1036   -1.7144 O   0  0  0  0  0  0  0  0  0  0  0  0
    4.3561    9.2909   -2.6968 C   0  0  0  0  0  0  0  0  0  0  0  0
    3.0322    9.6732   -2.4849 C   0  0  0  0  0  0  0  0  0  0  0  0
    2.7058   10.8874   -3.0371 C   0  0  0  0  0  0  0  0  0  0  0  0
    3.6257   11.6631   -3.7576 C   0  0  0  0  0  0  0  0  0  0  0  0
    4.9329   11.2994   -3.9733 C   0  0  0  0  0  0  0  0  0  0  0  0
    5.2902   10.0666   -3.4144 C   0  0  0  0  0  0  0  0  0  0  0  0
    6.5699    9.3670   -3.4350 C   0  0  0  0  0  0  0  0  0  0  0  0
    7.7270    9.8221   -4.0069 C   0  0  0  0  0  0  0  0  0  0  0  0
    8.9656    9.1450   -3.9816 C   0  0  0  0  0  0  0  0  0  0  0  0
   10.0091    8.6668   -4.0024 N   0  0  0  0  0  0  0  0  0  0  0  0
    7.8486   11.0402   -4.7089 C   0  0  0  0  0  0  0  0  0  0  0  0
    8.0185   12.0099   -5.2995 N   0  0  0  0  0  0  0  0  0  0  0  0
    2.6126   12.7437   -4.0414 C   0  0  0  0  0  0  0  0  0  0  0  0
    2.0005   12.7581   -5.4586 C   0  0  0  0  0  0  0  0  0  0  0  0
    0.7395   13.5764   -5.2990 C   0  0  0  0  0  0  0  0  0  0  0  0
   -0.1301   12.8478   -4.6108 C   0  0  0  0  0  0  0  0  0  0  0  0
    0.5280   11.5243   -4.2945 C   0  0  0  0  0  0  0  0  0  0  0  0
    1.3920   11.3526   -5.5506 C   0  0  0  0  0  0  0  0  0  0  0  0
    1.5897   11.8827   -3.2329 C   0  0  0  0  0  0  0  0  0  0  0  0
    7.0671    5.9678   -1.7181 C   0  0  0  0  0  0  0  0  0  0  0  0
    6.5785    6.0659   -0.4254 C   0  0  0  0  0  0  0  0  0  0  0  0
    6.4550    7.2713    0.1477 F   0  0  0  0  0  0  0  0  0  0  0  0
    6.2325    4.9493    0.3387 C   0  0  0  0  0  0  0  0  0  0  0  0
    5.7712    5.1814    1.5784 F   0  0  0  0  0  0  0  0  0  0  0  0
    6.3146    3.6563   -0.1660 C   0  0  0  0  0  0  0  0  0  0  0  0
    6.9133    3.5310   -1.4553 C   0  0  0  0  0  0  0  0  0  0  0  0
    7.0904    2.3061   -1.9604 N   0  0  0  0  0  0  0  0  0  0  0  0
    7.6211    2.1428   -3.1480 C   0  0  0  0  0  0  0  0  0  0  0  0
    7.7475    0.7235   -3.6095 C   0  0  0  0  0  0  0  0  0  0  0  0
    6.5926    0.3453   -4.5387 C   0  0  0  0  0  0  0  0  0  0  0  0
    8.0140    3.2809   -3.9077 C   0  0  0  0  0  0  0  0  0  0  0  0
    7.8466    4.4922   -3.4309 N   0  0  0  0  0  0  0  0  0  0  0  0
    7.3058    4.6592   -2.2141 C   0  0  0  0  0  0  0  0  0  0  0  0
    8.6169    3.2078   -5.2786 C   0  0  0  0  0  0  0  0  0  0  0  0
    7.6540    3.7921   -6.3144 C   0  0  0  0  0  0  0  0  0  0  0  0
    5.7493    2.4999    0.4625 C   0  0  0  0  0  0  0  0  0  0  0  0
    5.0925    2.4173    1.6617 C   0  0  0  0  0  0  0  0  0  0  0  0
    4.4272    1.1875    1.8643 C   0  0  0  0  0  0  0  0  0  0  0  0
    3.5782    0.8589    2.9382 C   0  0  0  0  0  0  0  0  0  0  0  0
    3.4645    1.7378    4.1069 C   0  0  0  0  0  0  0  0  0  0  0  0
    2.2238    2.1740    4.5615 C   0  0  0  0  0  0  0  0  0  0  0  0
    2.1350    3.0019    5.6629 C   0  0  0  0  0  0  0  0  0  0  0  0
    3.2747    3.4130    6.3430 C   0  0  0  0  0  0  0  0  0  0  0  0
    3.1663    4.2735    7.5683 C   0  0  0  0  0  0  0  0  0  0  0  0
    2.9614    3.4073    8.8129 C   0  0  0  0  0  0  0  0  0  0  0  0
    4.5119    2.9733    5.8888 C   0  0  0  0  0  0  0  0  0  0  0  0
    4.6098    2.1524    4.7829 C   0  0  0  0  0  0  0  0  0  0  0  0
    2.8382   -0.3007    2.7920 C   0  0  0  0  0  0  0  0  0  0  0  0
    2.9732   -1.1618    1.6749 C   0  0  0  0  0  0  0  0  0  0  0  0
    3.8974   -0.8842    0.6514 C   0  0  0  0  0  0  0  0  0  0  0  0
    3.9914   -1.7890   -0.5014 C   0  0  0  0  0  0  0  0  0  0  0  0
    4.0582   -3.1682   -0.3105 C   0  0  0  0  0  0  0  0  0  0  0  0
    3.9977   -4.0339   -1.3848 C   0  0  0  0  0  0  0  0  0  0  0  0
    3.8754   -3.5535   -2.6826 C   0  0  0  0  0  0  0  0  0  0  0  0
    3.6771   -4.4906   -3.8375 C   0  0  0  0  0  0  0  0  0  0  0  0
    2.1804   -4.7031   -4.0809 C   0  0  0  0  0  0  0  0  0  0  0  0
    3.8721   -2.1781   -2.8770 C   0  0  0  0  0  0  0  0  0  0  0  0
    3.9343   -1.3081   -1.8066 C   0  0  0  0  0  0  0  0  0  0  0  0
    4.5808    0.3154    0.7576 C   0  0  0  0  0  0  0  0  0  0  0  0
    5.6514    1.0000   -0.4447 S   0  0  0  0  0  0  0  0  0  0  0  0
    1.9779   -2.1665    1.6686 C   0  0  0  0  0  0  0  0  0  0  0  0
    1.1174   -2.0978    2.7226 C   0  0  0  0  0  0  0  0  0  0  0  0
    1.5656   -0.8439    3.8619 S   0  0  0  0  0  0  0  0  0  0  0  0
   -0.1440   -2.7709    2.7695 C   0  0  0  0  0  0  0  0  0  0  0  0
   -0.9766   -2.8958    1.6666 C   0  0  0  0  0  0  0  0  0  0  0  0
   -0.7453   -2.3235    0.4194 N   0  0  0  0  0  0  0  0  0  0  0  0
   -0.9515   -3.1142   -0.7163 C   0  0  0  0  0  0  0  0  0  0  0  0
   -0.6844   -4.4832   -0.6708 C   0  0  0  0  0  0  0  0  0  0  0  0
   -0.8973   -5.2715   -1.7785 C   0  0  0  0  0  0  0  0  0  0  0  0
   -1.3711   -4.7121   -2.9623 C   0  0  0  0  0  0  0  0  0  0  0  0
   -1.5709   -5.8143   -4.3272 S   0  0  0  0  0  0  0  0  0  0  0  0
   -2.4515   -4.8179   -5.5632 C   0  0  0  0  0  0  0  0  0  0  0  0
   -1.6347   -3.3503   -3.0144 C   0  0  0  0  0  0  0  0  0  0  0  0
   -1.4339   -2.5619   -1.8988 C   0  0  0  0  0  0  0  0  0  0  0  0
   -0.2362   -1.0227    0.3366 C   0  0  0  0  0  0  0  0  0  0  0  0
   -0.5803   -0.0732    1.3028 C   0  0  0  0  0  0  0  0  0  0  0  0
    0.0037    1.1719    1.2996 C   0  0  0  0  0  0  0  0  0  0  0  0
    0.9338    1.5186    0.3209 C   0  0  0  0  0  0  0  0  0  0  0  0
    1.6918    3.1061    0.4825 S   0  0  0  0  0  0  0  0  0  0  0  0
    2.6127    3.3232   -1.0651 C   0  0  0  0  0  0  0  0  0  0  0  0
    1.2232    0.6060   -0.6825 C   0  0  0  0  0  0  0  0  0  0  0  0
    0.6525   -0.6526   -0.6699 C   0  0  0  0  0  0  0  0  0  0  0  0
   -2.1548   -3.6053    1.9910 C   0  0  0  0  0  0  0  0  0  0  0  0
   -3.5096   -4.1331    1.0632 S   0  0  0  0  0  0  0  0  0  0  0  0
   -4.2642   -4.7695    2.5287 C   0  0  0  0  0  0  0  0  0  0  0  0
   -3.4167   -4.6518    3.6607 C   0  0  0  0  0  0  0  0  0  0  0  0
   -3.6909   -5.1284    4.9156 N   0  0  0  0  0  0  0  0  0  0  0  0
   -4.3728   -6.3368    5.1380 C   0  0  0  0  0  0  0  0  0  0  0  0
   -5.2065   -6.4718    6.2485 C   0  0  0  0  0  0  0  0  0  0  0  0
   -5.8774   -7.6538    6.4677 C   0  0  0  0  0  0  0  0  0  0  0  0
   -5.7399   -8.7221    5.5837 C   0  0  0  0  0  0  0  0  0  0  0  0
   -6.6687  -10.1735    5.9578 S   0  0  0  0  0  0  0  0  0  0  0  0
   -6.3666  -11.2683    4.5407 C   0  0  0  0  0  0  0  0  0  0  0  0
   -4.8940   -8.5968    4.4881 C   0  0  0  0  0  0  0  0  0  0  0  0
   -4.2112   -7.4166    4.2734 C   0  0  0  0  0  0  0  0  0  0  0  0
   -3.1565   -4.4380    6.0199 C   0  0  0  0  0  0  0  0  0  0  0  0
   -3.2319   -3.0493    6.0712 C   0  0  0  0  0  0  0  0  0  0  0  0
   -2.6670   -2.3517    7.1200 C   0  0  0  0  0  0  0  0  0  0  0  0
   -2.0198   -3.0375    8.1394 C   0  0  0  0  0  0  0  0  0  0  0  0
   -1.2385   -2.2507    9.5088 S   0  0  0  0  0  0  0  0  0  0  0  0
   -1.1336   -0.5110    8.9981 C   0  0  0  0  0  0  0  0  0  0  0  0
   -1.9785   -4.4311    8.1104 C   0  0  0  0  0  0  0  0  0  0  0  0
   -2.5382   -5.1263    7.0628 C   0  0  0  0  0  0  0  0  0  0  0  0
   -2.2359   -3.9625    3.3312 C   0  0  0  0  0  0  0  0  0  0  0  0
   -0.8408   -3.4401    4.2277 S   0  0  0  0  0  0  0  0  0  0  0  0
   -5.5879   -5.1973    2.6133 C   0  0  0  0  0  0  0  0  0  0  0  0
   -6.5327   -5.3739    1.6281 C   0  0  0  0  0  0  0  0  0  0  0  0
   -6.3001   -5.3065    0.1848 C   0  0  0  0  0  0  0  0  0  0  0  0
   -5.2727   -4.9896   -0.3928 O   0  0  0  0  0  0  0  0  0  0  0  0
   -7.5604   -5.7220   -0.4566 C   0  0  0  0  0  0  0  0  0  0  0  0
   -7.8126   -5.8258   -1.8217 C   0  0  0  0  0  0  0  0  0  0  0  0
   -9.0931   -6.2226   -2.1252 C   0  0  0  0  0  0  0  0  0  0  0  0
  -10.0505   -6.4988   -1.1414 C   0  0  0  0  0  0  0  0  0  0  0  0
   -9.8117   -6.4066    0.2099 C   0  0  0  0  0  0  0  0  0  0  0  0
   -8.5162   -6.0021    0.5403 C   0  0  0  0  0  0  0  0  0  0  0  0
   -7.9034   -5.7692    1.8492 C   0  0  0  0  0  0  0  0  0  0  0  0
   -8.5487   -5.8769    3.0582 C   0  0  0  0  0  0  0  0  0  0  0  0
   -8.0033   -5.5347    4.3105 C   0  0  0  0  0  0  0  0  0  0  0  0
   -7.6494   -5.2470    5.3663 N   0  0  0  0  0  0  0  0  0  0  0  0
   -9.8790   -6.3136    3.2163 C   0  0  0  0  0  0  0  0  0  0  0  0
  -10.9504   -6.6742    3.4209 N   0  0  0  0  0  0  0  0  0  0  0  0
  -11.1185   -6.8191   -2.1570 C   0  0  0  0  0  0  0  0  0  0  0  0
  -12.2020   -5.7453   -2.4251 C   0  0  0  0  0  0  0  0  0  0  0  0
  -11.5751   -4.4119   -2.1015 C   0  0  0  0  0  0  0  0  0  0  0  0
  -10.6692   -4.1531   -3.0350 C   0  0  0  0  0  0  0  0  0  0  0  0
  -10.6665   -5.3077   -4.0061 C   0  0  0  0  0  0  0  0  0  0  0  0
  -12.1511   -5.7028   -3.9607 C   0  0  0  0  0  0  0  0  0  0  0  0
  -10.0505   -6.5135   -3.2541 C   0  0  0  0  0  0  0  0  0  0  0  0
    8.2181    7.0940   -3.1347 H   0  0  0  0  0  0  0  0  0  0  0  0
    2.3592    9.0444   -1.9234 H   0  0  0  0  0  0  0  0  0  0  0  0
    5.6274   11.9087   -4.5270 H   0  0  0  0  0  0  0  0  0  0  0  0
    2.8629   13.7377   -3.6764 H   0  0  0  0  0  0  0  0  0  0  0  0
    2.6847   13.0610   -6.2465 H   0  0  0  0  0  0  0  0  0  0  0  0
    0.6336   14.5883   -5.6435 H   0  0  0  0  0  0  0  0  0  0  0  0
   -1.1074   13.1295   -4.2653 H   0  0  0  0  0  0  0  0  0  0  0  0
   -0.1296   10.7033   -4.0217 H   0  0  0  0  0  0  0  0  0  0  0  0
    0.7906   11.2231   -6.4490 H   0  0  0  0  0  0  0  0  0  0  0  0
    2.1208   10.5471   -5.4815 H   0  0  0  0  0  0  0  0  0  0  0  0
    1.1605   12.3002   -2.3243 H   0  0  0  0  0  0  0  0  0  0  0  0
    7.7083    0.0876   -2.7245 H   0  0  0  0  0  0  0  0  0  0  0  0
    8.7017    0.5680   -4.1148 H   0  0  0  0  0  0  0  0  0  0  0  0
    5.6460    0.4866   -4.0237 H   0  0  0  0  0  0  0  0  0  0  0  0
    6.5966    0.9549   -5.4390 H   0  0  0  0  0  0  0  0  0  0  0  0
    6.6767   -0.6998   -4.8255 H   0  0  0  0  0  0  0  0  0  0  0  0
    9.5291    3.8077   -5.2781 H   0  0  0  0  0  0  0  0  0  0  0  0
    8.8714    2.1824   -5.5408 H   0  0  0  0  0  0  0  0  0  0  0  0
    6.7291    3.2199   -6.3497 H   0  0  0  0  0  0  0  0  0  0  0  0
    7.4135    4.8192   -6.0536 H   0  0  0  0  0  0  0  0  0  0  0  0
    8.1101    3.7764   -7.3008 H   0  0  0  0  0  0  0  0  0  0  0  0
    5.0255    3.2239    2.3671 H   0  0  0  0  0  0  0  0  0  0  0  0
    1.3308    1.8850    4.0291 H   0  0  0  0  0  0  0  0  0  0  0  0
    1.1650    3.3425    5.9968 H   0  0  0  0  0  0  0  0  0  0  0  0
    2.3231    4.9595    7.4650 H   0  0  0  0  0  0  0  0  0  0  0  0
    4.0758    4.8654    7.6873 H   0  0  0  0  0  0  0  0  0  0  0  0
    2.8819    4.0297    9.7012 H   0  0  0  0  0  0  0  0  0  0  0  0
    2.0519    2.8179    8.7180 H   0  0  0  0  0  0  0  0  0  0  0  0
    3.7985    2.7245    8.9406 H   0  0  0  0  0  0  0  0  0  0  0  0
    5.4097    3.2819    6.4054 H   0  0  0  0  0  0  0  0  0  0  0  0
    5.5785    1.8102    4.4476 H   0  0  0  0  0  0  0  0  0  0  0  0
    4.1637   -3.5610    0.6906 H   0  0  0  0  0  0  0  0  0  0  0  0
    4.0340   -5.1006   -1.2136 H   0  0  0  0  0  0  0  0  0  0  0  0
    4.1475   -5.4524   -3.6253 H   0  0  0  0  0  0  0  0  0  0  0  0
    4.1342   -4.0763   -4.7387 H   0  0  0  0  0  0  0  0  0  0  0  0
    2.0190   -5.3831   -4.9136 H   0  0  0  0  0  0  0  0  0  0  0  0
    1.6945   -3.7557   -4.3059 H   0  0  0  0  0  0  0  0  0  0  0  0
    1.7060   -5.1220   -3.1962 H   0  0  0  0  0  0  0  0  0  0  0  0
    3.8025   -1.7840   -3.8815 H   0  0  0  0  0  0  0  0  0  0  0  0
    3.9066   -0.2445   -1.9831 H   0  0  0  0  0  0  0  0  0  0  0  0
    1.8685   -2.8870    0.8785 H   0  0  0  0  0  0  0  0  0  0  0  0
   -0.3055   -4.9238    0.2399 H   0  0  0  0  0  0  0  0  0  0  0  0
   -0.6939   -6.3309   -1.7427 H   0  0  0  0  0  0  0  0  0  0  0  0
   -3.3620   -4.4177   -5.1276 H   0  0  0  0  0  0  0  0  0  0  0  0
   -1.8085   -4.0252   -5.9349 H   0  0  0  0  0  0  0  0  0  0  0  0
   -2.6958   -5.5007   -6.3710 H   0  0  0  0  0  0  0  0  0  0  0  0
   -2.0066   -2.8891   -3.9152 H   0  0  0  0  0  0  0  0  0  0  0  0
   -1.6578   -1.5064   -1.9407 H   0  0  0  0  0  0  0  0  0  0  0  0
   -1.2987   -0.3267    2.0682 H   0  0  0  0  0  0  0  0  0  0  0  0
   -0.2529    1.8964    2.0573 H   0  0  0  0  0  0  0  0  0  0  0  0
    1.9347    3.2397   -1.9096 H   0  0  0  0  0  0  0  0  0  0  0  0
    3.4161    2.5953   -1.1317 H   0  0  0  0  0  0  0  0  0  0  0  0
    3.0292    4.3258   -1.0228 H   0  0  0  0  0  0  0  0  0  0  0  0
    1.9126    0.8539   -1.4721 H   0  0  0  0  0  0  0  0  0  0  0  0
    0.9269   -1.3652   -1.4336 H   0  0  0  0  0  0  0  0  0  0  0  0
   -5.3370   -5.6426    6.9250 H   0  0  0  0  0  0  0  0  0  0  0  0
   -6.5336   -7.7553    7.3174 H   0  0  0  0  0  0  0  0  0  0  0  0
   -6.6739  -10.7777    3.6217 H   0  0  0  0  0  0  0  0  0  0  0  0
   -6.9835  -12.1445    4.7144 H   0  0  0  0  0  0  0  0  0  0  0  0
   -5.3202  -11.5575    4.5053 H   0  0  0  0  0  0  0  0  0  0  0  0
   -4.7484   -9.4127    3.7987 H   0  0  0  0  0  0  0  0  0  0  0  0
   -3.5512   -7.3292    3.4229 H   0  0  0  0  0  0  0  0  0  0  0  0
   -3.7402   -2.5143    5.2824 H   0  0  0  0  0  0  0  0  0  0  0  0
   -2.7430   -1.2768    7.1318 H   0  0  0  0  0  0  0  0  0  0  0  0
   -0.5075   -0.0260    9.7407 H   0  0  0  0  0  0  0  0  0  0  0  0
   -0.6665   -0.4467    8.0198 H   0  0  0  0  0  0  0  0  0  0  0  0
   -2.1203   -0.0568    8.9990 H   0  0  0  0  0  0  0  0  0  0  0  0
   -1.4861   -4.9576    8.9131 H   0  0  0  0  0  0  0  0  0  0  0  0
   -2.4862   -6.2042    7.0355 H   0  0  0  0  0  0  0  0  0  0  0  0
   -5.9162   -5.4074    3.6229 H   0  0  0  0  0  0  0  0  0  0  0  0
   -7.0443   -5.6015   -2.5452 H   0  0  0  0  0  0  0  0  0  0  0  0
  -10.5603   -6.6256    0.9526 H   0  0  0  0  0  0  0  0  0  0  0  0
  -11.5335   -7.8243   -2.1145 H   0  0  0  0  0  0  0  0  0  0  0  0
  -13.1631   -5.9485   -1.9606 H   0  0  0  0  0  0  0  0  0  0  0  0
  -11.8062   -3.8392   -1.2225 H   0  0  0  0  0  0  0  0  0  0  0  0
   -9.9917   -3.3211   -3.0913 H   0  0  0  0  0  0  0  0  0  0  0  0
  -10.2301   -5.1132   -4.9826 H   0  0  0  0  0  0  0  0  0  0  0  0
  -12.3589   -6.6643   -4.4284 H   0  0  0  0  0  0  0  0  0  0  0  0
  -12.8033   -4.9397   -4.3830 H   0  0  0  0  0  0  0  0  0  0  0  0
   -9.7663   -7.3209   -3.9266 H   0  0  0  0  0  0  0  0  0  0  0  0
  1  2  2  0  0  0  0
  2  3  1  0  0  0  0
  3  4  2  0  0  0  0
  3  5  1  0  0  0  0
  5  6  2  0  0  0  0
  6  7  1  0  0  0  0
  7  8  2  0  0  0  0
  8  9  1  0  0  0  0
  9 10  2  0  0  0  0
 10 11  1  0  0  0  0
 11 12  2  0  0  0  0
 12 13  1  0  0  0  0
 13 14  3  0  0  0  0
 12 15  1  0  0  0  0
 15 16  3  0  0  0  0
  8 17  1  0  0  0  0
 17 18  1  0  0  0  0
 18 19  1  0  0  0  0
 19 20  2  0  0  0  0
 20 21  1  0  0  0  0
 21 22  1  0  0  0  0
 21 23  1  0  0  0  0
  1 24  1  0  0  0  0
 24 25  2  0  0  0  0
 25 26  1  0  0  0  0
 25 27  1  0  0  0  0
 27 28  1  0  0  0  0
 27 29  2  0  0  0  0
 29 30  1  0  0  0  0
 30 31  2  0  0  0  0
 31 32  1  0  0  0  0
 32 33  1  0  0  0  0
 33 34  1  0  0  0  0
 32 35  2  0  0  0  0
 35 36  1  0  0  0  0
 36 37  2  0  0  0  0
 35 38  1  0  0  0  0
 38 39  1  0  0  0  0
 29 40  1  0  0  0  0
 40 41  2  0  0  0  0
 41 42  1  0  0  0  0
 42 43  2  0  0  0  0
 43 44  1  0  0  0  0
 44 45  2  0  0  0  0
 45 46  1  0  0  0  0
 46 47  2  0  0  0  0
 47 48  1  0  0  0  0
 48 49  1  0  0  0  0
 47 50  1  0  0  0  0
 50 51  2  0  0  0  0
 43 52  1  0  0  0  0
 52 53  2  0  0  0  0
 53 54  1  0  0  0  0
 54 55  1  0  0  0  0
 55 56  2  0  0  0  0
 56 57  1  0  0  0  0
 57 58  2  0  0  0  0
 58 59  1  0  0  0  0
 59 60  1  0  0  0  0
 58 61  1  0  0  0  0
 61 62  2  0  0  0  0
 54 63  2  0  0  0  0
 63 64  1  0  0  0  0
 53 65  1  0  0  0  0
 65 66  2  0  0  0  0
 66 67  1  0  0  0  0
 66 68  1  0  0  0  0
 68 69  2  0  0  0  0
 69 70  1  0  0  0  0
 70 71  1  0  0  0  0
 71 72  2  0  0  0  0
 72 73  1  0  0  0  0
 73 74  2  0  0  0  0
 74 75  1  0  0  0  0
 75 76  1  0  0  0  0
 74 77  1  0  0  0  0
 77 78  2  0  0  0  0
 70 79  1  0  0  0  0
 79 80  2  0  0  0  0
 80 81  1  0  0  0  0
 81 82  2  0  0  0  0
 82 83  1  0  0  0  0
 83 84  1  0  0  0  0
 82 85  1  0  0  0  0
 85 86  2  0  0  0  0
 69 87  1  0  0  0  0
 87 88  1  0  0  0  0
 88 89  1  0  0  0  0
 89 90  2  0  0  0  0
 90 91  1  0  0  0  0
 91 92  1  0  0  0  0
 92 93  2  0  0  0  0
 93 94  1  0  0  0  0
 94 95  2  0  0  0  0
 95 96  1  0  0  0  0
 96 97  1  0  0  0  0
 95 98  1  0  0  0  0
 98 99  2  0  0  0  0
 91100  1  0  0  0  0
100101  2  0  0  0  0
101102  1  0  0  0  0
102103  2  0  0  0  0
103104  1  0  0  0  0
104105  1  0  0  0  0
103106  1  0  0  0  0
106107  2  0  0  0  0
 90108  1  0  0  0  0
108109  1  0  0  0  0
 89110  1  0  0  0  0
110111  2  0  0  0  0
111112  1  0  0  0  0
112113  2  0  0  0  0
112114  1  0  0  0  0
114115  2  0  0  0  0
115116  1  0  0  0  0
116117  2  0  0  0  0
117118  1  0  0  0  0
118119  2  0  0  0  0
119120  1  0  0  0  0
120121  2  0  0  0  0
121122  1  0  0  0  0
122123  3  0  0  0  0
121124  1  0  0  0  0
124125  3  0  0  0  0
117126  1  0  0  0  0
126127  1  0  0  0  0
127128  1  0  0  0  0
128129  2  0  0  0  0
129130  1  0  0  0  0
130131  1  0  0  0  0
130132  1  0  0  0  0
 11  2  1  0  0  0  0
 23 17  1  0  0  0  0
 37 24  1  0  0  0  0
 64 40  1  0  0  0  0
109 68  1  0  0  0  0
120111  1  0  0  0  0
132126  1  0  0  0  0
 10  5  1  0  0  0  0
 22 18  1  0  0  0  0
 37 30  1  0  0  0  0
 63 42  1  0  0  0  0
 78 71  1  0  0  0  0
 86 79  1  0  0  0  0
108 87  2  0  0  0  0
119114  1  0  0  0  0
131127  1  0  0  0  0
 23  7  1  0  0  0  0
 51 44  1  0  0  0  0
 67 52  1  0  0  0  0
 99 92  1  0  0  0  0
107100  1  0  0  0  0
132116  1  0  0  0  0
 62 55  1  0  0  0  0
  1133  1  0  0  0  0
  6134  1  0  0  0  0
  9135  1  0  0  0  0
 17136  1  0  0  0  0
 18137  1  0  0  0  0
 19138  1  0  0  0  0
 20139  1  0  0  0  0
 21140  1  0  0  0  0
 22141  1  0  0  0  0
 22142  1  0  0  0  0
 23143  1  0  0  0  0
 33144  1  0  0  0  0
 33145  1  0  0  0  0
 34146  1  0  0  0  0
 34147  1  0  0  0  0
 34148  1  0  0  0  0
 38149  1  0  0  0  0
 38150  1  0  0  0  0
 39151  1  0  0  0  0
 39152  1  0  0  0  0
 39153  1  0  0  0  0
 41154  1  0  0  0  0
 45155  1  0  0  0  0
 46156  1  0  0  0  0
 48157  1  0  0  0  0
 48158  1  0  0  0  0
 49159  1  0  0  0  0
 49160  1  0  0  0  0
 49161  1  0  0  0  0
 50162  1  0  0  0  0
 51163  1  0  0  0  0
 56164  1  0  0  0  0
 57165  1  0  0  0  0
 59166  1  0  0  0  0
 59167  1  0  0  0  0
 60168  1  0  0  0  0
 60169  1  0  0  0  0
 60170  1  0  0  0  0
 61171  1  0  0  0  0
 62172  1  0  0  0  0
 65173  1  0  0  0  0
 72174  1  0  0  0  0
 73175  1  0  0  0  0
 76176  1  0  0  0  0
 76177  1  0  0  0  0
 76178  1  0  0  0  0
 77179  1  0  0  0  0
 78180  1  0  0  0  0
 80181  1  0  0  0  0
 81182  1  0  0  0  0
 84183  1  0  0  0  0
 84184  1  0  0  0  0
 84185  1  0  0  0  0
 85186  1  0  0  0  0
 86187  1  0  0  0  0
 93188  1  0  0  0  0
 94189  1  0  0  0  0
 97190  1  0  0  0  0
 97191  1  0  0  0  0
 97192  1  0  0  0  0
 98193  1  0  0  0  0
 99194  1  0  0  0  0
101195  1  0  0  0  0
102196  1  0  0  0  0
105197  1  0  0  0  0
105198  1  0  0  0  0
105199  1  0  0  0  0
106200  1  0  0  0  0
107201  1  0  0  0  0
110202  1  0  0  0  0
115203  1  0  0  0  0
118204  1  0  0  0  0
126205  1  0  0  0  0
127206  1  0  0  0  0
128207  1  0  0  0  0
129208  1  0  0  0  0
130209  1  0  0  0  0
131210  1  0  0  0  0
131211  1  0  0  0  0
132212  1  0  0  0  0
M  END
