212

C         -7.85280        2.64080       -1.20780
C         -8.31900        1.83180       -2.22130
C         -7.66940        0.57720       -2.63470
O         -6.63640        0.10100       -2.19990
C         -8.59830       -0.05900       -3.59180
C         -8.41690       -1.26430       -4.26290
C         -9.44620       -1.59090       -5.11440
C        -10.57800       -0.78380       -5.27950
C        -10.77140        0.40720       -4.61960
C         -9.73360        0.75820       -3.75390
C         -9.56430        1.94930       -2.92580
C        -10.36480        3.06590       -2.94620
C        -10.04910        4.26680       -2.28160
N         -9.83130        5.29500       -1.81660
C        -11.54660        3.19410       -3.69830
N        -12.51480        3.38340       -4.28800
C        -11.20470       -1.72640       -6.27720
C        -12.34190       -2.62990       -5.75570
C        -12.41930       -3.74050       -6.77830
C        -11.34480       -4.50400       -6.62700
C        -10.52330       -3.92260       -5.49900
C        -11.64660       -3.37540       -4.60910
C         -9.93940       -2.62510       -6.09680
C         -6.52280        2.72570       -0.78470
C         -5.31400        2.47090       -1.46370
N         -5.14610        2.23410       -2.79900
C         -6.07760        2.62500       -3.76790
C         -6.36320        1.77300       -4.83770
C         -7.32810        2.11350       -5.75830
C         -8.02550        3.31570       -5.64370
S         -9.29730        3.59960       -6.82590
C         -9.98980        5.21090       -6.36350
C         -7.69560        4.19690       -4.61910
C         -6.73450        3.85120       -3.69140
C         -3.98920        1.55170       -3.23520
C         -3.24840        2.04880       -4.30130
C         -2.10240        1.40030       -4.72210
C         -1.67970        0.24540       -4.07600
S         -0.22310       -0.65670       -4.48790
C          0.47070        0.22130       -5.91680
C         -2.44140       -0.26930       -3.02640
C         -3.58610        0.37160       -2.61110
C         -4.21900        2.60000       -0.57710
S         -2.51610        2.38050       -0.74510
C         -2.27010        2.76240        0.95380
C         -3.44990        3.08240        1.60500
N         -3.59320        3.52080        2.91340
C         -4.46540        4.59920        3.13610
C         -4.48940        5.67220        2.24390
C         -5.36240        6.71810        2.43780
C         -6.22580        6.72540        3.53170
S         -7.28980        8.12450        3.68170
C         -8.40120        7.68370        5.04770
C         -6.19550        5.66640        4.42930
C         -5.32770        4.61120        4.22800
C         -3.02460        2.84630        3.99480
C         -2.56580        3.56700        5.09590
C         -2.04210        2.91870        6.19520
C         -1.96160        1.53220        6.21310
S         -1.37330        0.61700        7.60490
C         -0.41590        1.84290        8.54010
C         -2.40320        0.80720        5.10890
C         -2.92920        1.45410        4.01020
C         -4.54860        2.99220        0.71160
S         -6.24450        3.25760        0.88370
C         -0.89620        2.61830        1.32620
C         -0.20290        2.21610        2.43640
C          1.13770        1.98770        2.01540
C          2.27360        1.48160        2.66340
C          2.26850        0.97540        4.03810
C          1.23540        0.15040        4.47770
C          1.24890       -0.36970        5.75650
C          2.27230       -0.05910        6.64300
C          2.27950       -0.62740        8.03370
C          3.13270       -1.89450        8.11020
C          3.30440        0.76050        6.20050
C          3.31320        1.26170        4.91290
C          3.39510        1.39480        1.84730
C          3.43470        1.78660        0.48050
C          2.29590        2.29460       -0.17080
C          2.27320        2.75310       -1.55960
C          1.13430        2.59700       -2.34930
C          1.09340        3.11000       -3.63010
C          2.18910        3.76410       -4.17840
C          2.12890        4.35840       -5.55640
C          1.71670        5.83030       -5.48560
C          3.32900        3.90670       -3.39610
C          3.37040        3.42050       -2.10490
C          1.16950        2.33620        0.63950
O         -0.06630        2.71280        0.24460
C          4.72800        1.41750        0.03220
C          5.36460        0.83500        1.10180
O          4.57290        0.84140        2.20250
C          6.62500        0.13780        1.15400
C          7.62390        0.33490        0.21280
F          7.50400        1.30840       -0.70820
C          8.76530       -0.46990        0.15930
F          9.65790       -0.24460       -0.81850
C          8.95510       -1.53730        1.01830
C          7.99660       -1.70960        2.05910
N          8.20300       -2.63960        3.00210
C          7.28830       -2.86090        3.91270
C          7.60190       -3.94180        4.90240
C          6.92570       -5.25130        4.48970
C          6.08060       -2.10730        3.91250
N          5.91850       -1.13020        3.05770
C          6.84310       -0.88940        2.12160
C          4.93740       -2.32250        4.85720
C          3.68450       -2.72740        4.07970
C         10.07370       -2.43700        0.90720
C          9.93950       -3.77620        1.06290
C          8.63720       -4.49580        0.96150
O          7.54270       -4.03060        0.72680
C          8.96770       -5.92830        1.05570
C          8.06700       -6.99170        1.00700
C          8.65710       -8.22960        1.07850
C         10.04510       -8.40110        1.18060
C         10.94420       -7.36310        1.22720
C         10.36370       -6.09090        1.16210
C         10.98990       -4.77300        1.18540
C         12.32160       -4.51960        1.37420
C         12.89150       -3.23190        1.47580
N         13.43000       -2.22430        1.58750
C         13.31320       -5.51270        1.52080
N         14.16930       -6.26790        1.64200
C          9.93860       -9.90590        1.18150
C         10.28890      -10.62200       -0.14030
C          9.64580      -11.98260        0.00400
C          8.33220      -11.82020       -0.08930
C          8.06510      -10.34710       -0.29840
C          9.30470       -9.96840       -1.11920
C          8.39180       -9.71420        1.07120
H         -8.56450        3.23580       -0.64760
H         -7.52760       -1.85640       -4.11140
H        -11.64670        1.02050       -4.75550
H        -11.41050       -1.30720       -7.26030
H        -13.26800       -2.10980       -5.52680
H        -13.19320       -3.82130       -7.51900
H        -11.04170       -5.34980       -7.21610
H         -9.79270       -4.58070       -5.03620
H        -12.26840       -4.16840       -4.19650
H        -11.29980       -2.72860       -3.80530
H         -9.30120       -2.80350       -6.96050
H         -5.83850        0.83360       -4.92280
H         -7.57200        1.44170       -6.56690
H        -10.79360        5.39160       -7.07020
H        -10.39490        5.17190       -5.35670
H         -9.23190        5.98290       -6.45850
H         -8.18830        5.15060       -4.52230
H         -6.50050        4.53970       -2.89340
H         -3.56930        2.95200       -4.79980
H         -1.54900        1.80720       -5.55340
H          1.32640       -0.36870       -6.23020
H          0.80130        1.21160       -5.61830
H         -0.26010        0.26370       -6.71890
H         -2.12130       -1.18180       -2.54770
H         -4.19620       -0.03940       -1.82270
H         -3.81750        5.67880        1.39840
H         -5.38480        7.54630        1.74640
H         -9.12670        8.48930        5.10440
H         -8.90480        6.74800        4.82400
H         -7.84660        7.62320        5.97980
H         -6.84970        5.64300        5.28570
H         -5.32210        3.78350        4.92160
H         -2.62930        4.64470        5.08740
H         -1.70380        3.50560        7.03360
H          0.30970        2.31010        7.88070
H          0.09520        1.28690        9.31940
H         -1.07650        2.57740        8.99150
H         -2.34170       -0.26990        5.12790
H         -3.27480        0.88660        3.15920
H         -0.58900        2.07700        3.42250
H          0.43510       -0.10770        3.80040
H          0.44900       -1.02060        6.07720
H          2.67880        0.11190        8.73240
H          1.25740       -0.86860        8.33200
H          2.76110       -2.64260        7.41390
H          3.10230       -2.31090        9.11460
H          4.16740       -1.67330        7.85860
H          4.11170        1.01030        6.87580
H          4.12610        1.89050        4.58350
H          0.27560        2.06940       -1.96540
H          0.18360        3.01010       -4.20560
H          3.10740        4.28190       -6.03540
H          1.40640        3.81400       -6.16930
H          2.42860        6.39310       -4.88620
H          0.73450        5.92580       -5.02780
H          1.68080        6.26480       -6.48200
H          4.19080        4.41820       -3.80100
H          4.24870        3.58700       -1.50050
H          5.11430        1.51180       -0.96100
H          8.68360       -4.08400        4.90960
H          7.27940       -3.65160        5.90350
H          7.24480       -5.53350        3.48930
H          7.19820       -6.04690        5.17910
H          5.84360       -5.14700        4.48820
H          4.73110       -1.37390        5.35720
H          5.17790       -3.07530        5.60610
H          2.84060       -2.83430        4.75620
H          3.84070       -3.66950        3.55800
H          3.44930       -1.95900        3.34900
H         11.03820       -1.99310        0.69840
H          7.00620       -6.81410        0.92020
H         12.00840       -7.51230        1.30050
H         10.34090      -10.41010        2.05800
H         11.34320      -10.60400       -0.40180
H         10.19130      -12.88530        0.20710
H          7.56110      -12.56010        0.02030
H          7.09360      -10.07830       -0.70430
H          9.31450      -10.45060       -2.09520
H          9.44550       -8.89610       -1.24190
H          7.76120      -10.08940        1.87500
