
  xtb     02042208583D
 energy: -308.176385089900 gnorm: 0.000757139497 xtb: 6.4.1 (unknown)
180199  0     0  0            999 V2000
    0.7221   -3.6641   -6.5045 C   0  0  0  0  0  0  0  0  0  0  0  0
    1.0284   -2.5253   -7.1528 C   0  0  0  0  0  0  0  0  0  0  0  0
    0.6199   -1.1738   -6.6552 C   0  0  0  0  0  0  0  0  0  0  0  0
    0.2258   -0.8812   -5.5491 O   0  0  0  0  0  0  0  0  0  0  0  0
    0.7313   -0.2825   -7.8210 C   0  0  0  0  0  0  0  0  0  0  0  0
    0.3299    1.0510   -7.8865 C   0  0  0  0  0  0  0  0  0  0  0  0
    0.5365    1.6338   -9.1132 C   0  0  0  0  0  0  0  0  0  0  0  0
    1.0895    0.9422  -10.2018 C   0  0  0  0  0  0  0  0  0  0  0  0
    1.4799   -0.3744  -10.1540 C   0  0  0  0  0  0  0  0  0  0  0  0
    1.2883   -0.9865   -8.9109 C   0  0  0  0  0  0  0  0  0  0  0  0
    1.5728   -2.3517   -8.4921 C   0  0  0  0  0  0  0  0  0  0  0  0
    2.3154   -3.2801   -9.1649 C   0  0  0  0  0  0  0  0  0  0  0  0
    2.8993   -3.0670  -10.4313 C   0  0  0  0  0  0  0  0  0  0  0  0
    3.3960   -2.9504  -11.4594 N   0  0  0  0  0  0  0  0  0  0  0  0
    2.6411   -4.5476   -8.6342 C   0  0  0  0  0  0  0  0  0  0  0  0
    2.9591   -5.5800   -8.2475 N   0  0  0  0  0  0  0  0  0  0  0  0
    1.0018    2.1428  -11.1101 C   0  0  0  0  0  0  0  0  0  0  0  0
    2.3070    2.9272  -11.3932 C   0  0  0  0  0  0  0  0  0  0  0  0
    3.2089    2.7006  -10.2051 C   0  0  0  0  0  0  0  0  0  0  0  0
    2.6907    3.3533   -9.1734 C   0  0  0  0  0  0  0  0  0  0  0  0
    1.4296    4.0342   -9.6450 C   0  0  0  0  0  0  0  0  0  0  0  0
    1.8215    4.3551  -11.0962 C   0  0  0  0  0  0  0  0  0  0  0  0
    0.3909    2.9130   -9.8969 C   0  0  0  0  0  0  0  0  0  0  0  0
    0.2342   -3.5964   -5.1311 C   0  0  0  0  0  0  0  0  0  0  0  0
   -1.0693   -3.8580   -4.7749 C   0  0  0  0  0  0  0  0  0  0  0  0
   -1.9154   -4.3505   -5.7028 F   0  0  0  0  0  0  0  0  0  0  0  0
   -1.5926   -3.5239   -3.5277 C   0  0  0  0  0  0  0  0  0  0  0  0
   -0.7871   -2.9575   -2.5615 C   0  0  0  0  0  0  0  0  0  0  0  0
    0.5948   -2.7886   -2.8340 C   0  0  0  0  0  0  0  0  0  0  0  0
    1.4099   -2.2484   -1.9039 N   0  0  0  0  0  0  0  0  0  0  0  0
    2.6474   -2.0251   -2.2163 C   0  0  0  0  0  0  0  0  0  0  0  0
    3.1549   -2.3374   -3.5123 C   0  0  0  0  0  0  0  0  0  0  0  0
    4.4405   -2.1020   -3.7600 O   0  0  0  0  0  0  0  0  0  0  0  0
    4.9099   -2.4060   -5.0722 C   0  0  0  0  0  0  0  0  0  0  0  0
    4.4994   -1.3428   -6.0823 C   0  0  0  0  0  0  0  0  0  0  0  0
    2.3842   -2.8588   -4.4345 N   0  0  0  0  0  0  0  0  0  0  0  0
    1.0935   -3.0862   -4.1254 C   0  0  0  0  0  0  0  0  0  0  0  0
   -1.3680   -2.3563   -1.3763 C   0  0  0  0  0  0  0  0  0  0  0  0
   -1.0052   -2.4015   -0.0547 C   0  0  0  0  0  0  0  0  0  0  0  0
   -0.0185   -3.2290    0.5265 N   0  0  0  0  0  0  0  0  0  0  0  0
   -0.5577   -4.3155    1.2355 C   0  0  0  0  0  0  0  0  0  0  0  0
   -0.2215   -4.5812    2.5642 C   0  0  0  0  0  0  0  0  0  0  0  0
   -0.8103   -5.6285    3.2360 C   0  0  0  0  0  0  0  0  0  0  0  0
   -1.7632   -6.4286    2.6097 C   0  0  0  0  0  0  0  0  0  0  0  0
   -2.4784   -7.7136    3.5931 S   0  0  0  0  0  0  0  0  0  0  0  0
   -3.5287   -8.6248    2.4269 C   0  0  0  0  0  0  0  0  0  0  0  0
   -2.1094   -6.1665    1.2925 C   0  0  0  0  0  0  0  0  0  0  0  0
   -1.5095   -5.1217    0.6157 C   0  0  0  0  0  0  0  0  0  0  0  0
    1.1918   -2.6511    0.9180 C   0  0  0  0  0  0  0  0  0  0  0  0
    2.2600   -3.4737    1.2735 C   0  0  0  0  0  0  0  0  0  0  0  0
    3.4579   -2.9421    1.7102 C   0  0  0  0  0  0  0  0  0  0  0  0
    3.6223   -1.5663    1.7799 C   0  0  0  0  0  0  0  0  0  0  0  0
    5.0842   -0.7695    2.3897 S   0  0  0  0  0  0  0  0  0  0  0  0
    6.3080   -2.1100    2.4575 C   0  0  0  0  0  0  0  0  0  0  0  0
    2.5827   -0.7377    1.3696 C   0  0  0  0  0  0  0  0  0  0  0  0
    1.3860   -1.2692    0.9422 C   0  0  0  0  0  0  0  0  0  0  0  0
   -1.7892   -1.5160    0.7217 C   0  0  0  0  0  0  0  0  0  0  0  0
   -1.8141   -1.1146    2.3970 S   0  0  0  0  0  0  0  0  0  0  0  0
   -2.8714    0.2526    2.0628 C   0  0  0  0  0  0  0  0  0  0  0  0
   -3.3130    0.2742    0.7460 C   0  0  0  0  0  0  0  0  0  0  0  0
   -4.2240    1.1424    0.1726 N   0  0  0  0  0  0  0  0  0  0  0  0
   -3.9528    1.5176   -1.1577 C   0  0  0  0  0  0  0  0  0  0  0  0
   -2.6606    1.9162   -1.5025 C   0  0  0  0  0  0  0  0  0  0  0  0
   -2.3372    2.1721   -2.8153 C   0  0  0  0  0  0  0  0  0  0  0  0
   -3.3007    2.0433   -3.8125 C   0  0  0  0  0  0  0  0  0  0  0  0
   -2.7684    2.3469   -5.4688 S   0  0  0  0  0  0  0  0  0  0  0  0
   -4.0891    1.6172   -6.4794 C   0  0  0  0  0  0  0  0  0  0  0  0
   -4.6011    1.6984   -3.4683 C   0  0  0  0  0  0  0  0  0  0  0  0
   -4.9228    1.4326   -2.1505 C   0  0  0  0  0  0  0  0  0  0  0  0
   -5.3554    1.6002    0.8446 C   0  0  0  0  0  0  0  0  0  0  0  0
   -5.9040    0.8830    1.9050 C   0  0  0  0  0  0  0  0  0  0  0  0
   -7.0273    1.3418    2.5656 C   0  0  0  0  0  0  0  0  0  0  0  0
   -7.6309    2.5278    2.1743 C   0  0  0  0  0  0  0  0  0  0  0  0
   -9.0727    3.2117    2.9335 S   0  0  0  0  0  0  0  0  0  0  0  0
   -9.4477    2.0578    4.2837 C   0  0  0  0  0  0  0  0  0  0  0  0
   -7.0876    3.2488    1.1124 C   0  0  0  0  0  0  0  0  0  0  0  0
   -5.9653    2.7962    0.4585 C   0  0  0  0  0  0  0  0  0  0  0  0
   -2.6834   -0.7523   -0.0072 C   0  0  0  0  0  0  0  0  0  0  0  0
   -2.6732   -1.2202   -1.6724 S   0  0  0  0  0  0  0  0  0  0  0  0
   -2.8980    1.2496    3.0987 C   0  0  0  0  0  0  0  0  0  0  0  0
   -2.9051    2.6207    2.8843 C   0  0  0  0  0  0  0  0  0  0  0  0
   -3.1574    3.1133    1.6538 F   0  0  0  0  0  0  0  0  0  0  0  0
   -2.4756    3.5475    3.8315 C   0  0  0  0  0  0  0  0  0  0  0  0
   -1.9756    3.1246    5.0439 C   0  0  0  0  0  0  0  0  0  0  0  0
   -2.1292    1.7560    5.3929 C   0  0  0  0  0  0  0  0  0  0  0  0
   -1.7751    1.3377    6.6265 N   0  0  0  0  0  0  0  0  0  0  0  0
   -1.8591    0.0712    6.8954 C   0  0  0  0  0  0  0  0  0  0  0  0
   -2.2986   -0.8703    5.9216 C   0  0  0  0  0  0  0  0  0  0  0  0
   -2.3481   -2.1500    6.2679 O   0  0  0  0  0  0  0  0  0  0  0  0
   -2.7736   -3.0845    5.2745 C   0  0  0  0  0  0  0  0  0  0  0  0
   -2.9610   -4.4311    5.9482 C   0  0  0  0  0  0  0  0  0  0  0  0
   -2.6637   -0.4766    4.7237 N   0  0  0  0  0  0  0  0  0  0  0  0
   -2.5949    0.8349    4.4306 C   0  0  0  0  0  0  0  0  0  0  0  0
   -1.1100    3.9508    5.8691 C   0  0  0  0  0  0  0  0  0  0  0  0
    0.1729    3.5660    6.0498 C   0  0  0  0  0  0  0  0  0  0  0  0
    0.8216    2.5014    5.2230 C   0  0  0  0  0  0  0  0  0  0  0  0
    0.3116    1.8034    4.3728 O   0  0  0  0  0  0  0  0  0  0  0  0
    2.2491    2.5462    5.5609 C   0  0  0  0  0  0  0  0  0  0  0  0
    3.2538    1.7696    4.9863 C   0  0  0  0  0  0  0  0  0  0  0  0
    4.5099    2.0433    5.4665 C   0  0  0  0  0  0  0  0  0  0  0  0
    4.7527    3.0193    6.4445 C   0  0  0  0  0  0  0  0  0  0  0  0
    3.7714    3.7973    7.0120 C   0  0  0  0  0  0  0  0  0  0  0  0
    2.4800    3.5366    6.5386 C   0  0  0  0  0  0  0  0  0  0  0  0
    1.2083    4.1639    6.8821 C   0  0  0  0  0  0  0  0  0  0  0  0
    1.0076    5.1067    7.8522 C   0  0  0  0  0  0  0  0  0  0  0  0
   -0.2471    5.6694    8.1716 C   0  0  0  0  0  0  0  0  0  0  0  0
   -1.2299    6.1738    8.4833 N   0  0  0  0  0  0  0  0  0  0  0  0
    2.0232    5.6365    8.6762 C   0  0  0  0  0  0  0  0  0  0  0  0
    2.7998    6.1102    9.3762 N   0  0  0  0  0  0  0  0  0  0  0  0
    6.2380    2.7519    6.4502 C   0  0  0  0  0  0  0  0  0  0  0  0
    6.8164    1.9177    7.6203 C   0  0  0  0  0  0  0  0  0  0  0  0
    5.6954    1.0377    8.1153 C   0  0  0  0  0  0  0  0  0  0  0  0
    5.4622    0.1190    7.1876 C   0  0  0  0  0  0  0  0  0  0  0  0
    6.4214    0.3606    6.0489 C   0  0  0  0  0  0  0  0  0  0  0  0
    7.6373    0.8889    6.8259 C   0  0  0  0  0  0  0  0  0  0  0  0
    5.9642    1.6689    5.3591 C   0  0  0  0  0  0  0  0  0  0  0  0
    0.7980   -4.6331   -6.9794 H   0  0  0  0  0  0  0  0  0  0  0  0
   -0.1062    1.5432   -7.0307 H   0  0  0  0  0  0  0  0  0  0  0  0
    1.8873   -0.9015  -11.0012 H   0  0  0  0  0  0  0  0  0  0  0  0
    0.3880    2.0227  -12.0005 H   0  0  0  0  0  0  0  0  0  0  0  0
    2.7434    2.7388  -12.3703 H   0  0  0  0  0  0  0  0  0  0  0  0
    4.0728    2.0622  -10.2233 H   0  0  0  0  0  0  0  0  0  0  0  0
    3.0343    3.3694   -8.1557 H   0  0  0  0  0  0  0  0  0  0  0  0
    1.0672    4.8533   -9.0298 H   0  0  0  0  0  0  0  0  0  0  0  0
    2.6192    5.0930  -11.1635 H   0  0  0  0  0  0  0  0  0  0  0  0
    0.9803    4.6651  -11.7146 H   0  0  0  0  0  0  0  0  0  0  0  0
   -0.6212    3.3008   -9.9930 H   0  0  0  0  0  0  0  0  0  0  0  0
   -2.6496   -3.6581   -3.3556 H   0  0  0  0  0  0  0  0  0  0  0  0
    3.2867   -1.5957   -1.4588 H   0  0  0  0  0  0  0  0  0  0  0  0
    4.5210   -3.3834   -5.3754 H   0  0  0  0  0  0  0  0  0  0  0  0
    5.9965   -2.4502   -4.9739 H   0  0  0  0  0  0  0  0  0  0  0  0
    3.4151   -1.2830   -6.1356 H   0  0  0  0  0  0  0  0  0  0  0  0
    4.8902   -0.3714   -5.7892 H   0  0  0  0  0  0  0  0  0  0  0  0
    4.8897   -1.6019   -7.0627 H   0  0  0  0  0  0  0  0  0  0  0  0
    0.4924   -3.9518    3.0731 H   0  0  0  0  0  0  0  0  0  0  0  0
   -0.5500   -5.8313    4.2635 H   0  0  0  0  0  0  0  0  0  0  0  0
   -4.3398   -7.9914    2.0793 H   0  0  0  0  0  0  0  0  0  0  0  0
   -3.9310   -9.4620    2.9888 H   0  0  0  0  0  0  0  0  0  0  0  0
   -2.9288   -8.9898    1.5984 H   0  0  0  0  0  0  0  0  0  0  0  0
   -2.8447   -6.7644    0.7784 H   0  0  0  0  0  0  0  0  0  0  0  0
   -1.7846   -4.9241   -0.4097 H   0  0  0  0  0  0  0  0  0  0  0  0
    2.1465   -4.5463    1.2168 H   0  0  0  0  0  0  0  0  0  0  0  0
    4.2514   -3.6151    1.9946 H   0  0  0  0  0  0  0  0  0  0  0  0
    6.0493   -2.8181    3.2400 H   0  0  0  0  0  0  0  0  0  0  0  0
    6.3684   -2.5993    1.4898 H   0  0  0  0  0  0  0  0  0  0  0  0
    7.2563   -1.6350    2.6901 H   0  0  0  0  0  0  0  0  0  0  0  0
    2.7171    0.3332    1.4026 H   0  0  0  0  0  0  0  0  0  0  0  0
    0.6017   -0.6015    0.6272 H   0  0  0  0  0  0  0  0  0  0  0  0
   -1.9120    2.0099   -0.7305 H   0  0  0  0  0  0  0  0  0  0  0  0
   -1.3338    2.4619   -3.0858 H   0  0  0  0  0  0  0  0  0  0  0  0
   -4.9878    2.2251   -6.4252 H   0  0  0  0  0  0  0  0  0  0  0  0
   -4.2780    0.6011   -6.1464 H   0  0  0  0  0  0  0  0  0  0  0  0
   -3.7134    1.6094   -7.4981 H   0  0  0  0  0  0  0  0  0  0  0  0
   -5.3715    1.6171   -4.2183 H   0  0  0  0  0  0  0  0  0  0  0  0
   -5.9296    1.1410   -1.8908 H   0  0  0  0  0  0  0  0  0  0  0  0
   -5.4556   -0.0483    2.2169 H   0  0  0  0  0  0  0  0  0  0  0  0
   -7.4216    0.7564    3.3807 H   0  0  0  0  0  0  0  0  0  0  0  0
   -9.6890    1.0782    3.8811 H   0  0  0  0  0  0  0  0  0  0  0  0
   -8.6092    2.0076    4.9723 H   0  0  0  0  0  0  0  0  0  0  0  0
  -10.3149    2.4718    4.7886 H   0  0  0  0  0  0  0  0  0  0  0  0
   -7.5545    4.1752    0.8149 H   0  0  0  0  0  0  0  0  0  0  0  0
   -5.5397    3.3747   -0.3465 H   0  0  0  0  0  0  0  0  0  0  0  0
   -2.3923    4.5797    3.5270 H   0  0  0  0  0  0  0  0  0  0  0  0
   -1.5879   -0.2552    7.8888 H   0  0  0  0  0  0  0  0  0  0  0  0
   -2.0134   -3.1396    4.4877 H   0  0  0  0  0  0  0  0  0  0  0  0
   -3.7053   -2.7271    4.8231 H   0  0  0  0  0  0  0  0  0  0  0  0
   -3.7474   -4.3745    6.6960 H   0  0  0  0  0  0  0  0  0  0  0  0
   -3.2245   -5.1796    5.2073 H   0  0  0  0  0  0  0  0  0  0  0  0
   -2.0396   -4.7313    6.4390 H   0  0  0  0  0  0  0  0  0  0  0  0
   -1.4991    4.8689    6.2865 H   0  0  0  0  0  0  0  0  0  0  0  0
    3.0277    1.0312    4.2331 H   0  0  0  0  0  0  0  0  0  0  0  0
    3.9758    4.5530    7.7524 H   0  0  0  0  0  0  0  0  0  0  0  0
    6.8745    3.5943    6.1868 H   0  0  0  0  0  0  0  0  0  0  0  0
    7.3382    2.5002    8.3749 H   0  0  0  0  0  0  0  0  0  0  0  0
    5.1651    1.2052    9.0345 H   0  0  0  0  0  0  0  0  0  0  0  0
    4.6962   -0.6341    7.1755 H   0  0  0  0  0  0  0  0  0  0  0  0
    6.5789   -0.4710    5.3681 H   0  0  0  0  0  0  0  0  0  0  0  0
    8.3970    1.3393    6.1885 H   0  0  0  0  0  0  0  0  0  0  0  0
    8.0927    0.1322    7.4631 H   0  0  0  0  0  0  0  0  0  0  0  0
    6.4141    1.7974    4.3773 H   0  0  0  0  0  0  0  0  0  0  0  0
  1  2  2  0  0  0  0
  2  3  1  0  0  0  0
  3  4  2  0  0  0  0
  3  5  1  0  0  0  0
  5  6  2  0  0  0  0
  6  7  1  0  0  0  0
  7  8  2  0  0  0  0
  8  9  1  0  0  0  0
  9 10  2  0  0  0  0
 10 11  1  0  0  0  0
 11 12  2  0  0  0  0
 12 13  1  0  0  0  0
 13 14  3  0  0  0  0
 12 15  1  0  0  0  0
 15 16  3  0  0  0  0
  8 17  1  0  0  0  0
 17 18  1  0  0  0  0
 18 19  1  0  0  0  0
 19 20  2  0  0  0  0
 20 21  1  0  0  0  0
 21 22  1  0  0  0  0
 21 23  1  0  0  0  0
  1 24  1  0  0  0  0
 24 25  2  0  0  0  0
 25 26  1  0  0  0  0
 25 27  1  0  0  0  0
 27 28  2  0  0  0  0
 28 29  1  0  0  0  0
 29 30  2  0  0  0  0
 30 31  1  0  0  0  0
 31 32  2  0  0  0  0
 32 33  1  0  0  0  0
 33 34  1  0  0  0  0
 34 35  1  0  0  0  0
 32 36  1  0  0  0  0
 36 37  2  0  0  0  0
 28 38  1  0  0  0  0
 38 39  2  0  0  0  0
 39 40  1  0  0  0  0
 40 41  1  0  0  0  0
 41 42  2  0  0  0  0
 42 43  1  0  0  0  0
 43 44  2  0  0  0  0
 44 45  1  0  0  0  0
 45 46  1  0  0  0  0
 44 47  1  0  0  0  0
 47 48  2  0  0  0  0
 40 49  1  0  0  0  0
 49 50  2  0  0  0  0
 50 51  1  0  0  0  0
 51 52  2  0  0  0  0
 52 53  1  0  0  0  0
 53 54  1  0  0  0  0
 52 55  1  0  0  0  0
 55 56  2  0  0  0  0
 39 57  1  0  0  0  0
 57 58  1  0  0  0  0
 58 59  1  0  0  0  0
 59 60  2  0  0  0  0
 60 61  1  0  0  0  0
 61 62  1  0  0  0  0
 62 63  2  0  0  0  0
 63 64  1  0  0  0  0
 64 65  2  0  0  0  0
 65 66  1  0  0  0  0
 66 67  1  0  0  0  0
 65 68  1  0  0  0  0
 68 69  2  0  0  0  0
 61 70  1  0  0  0  0
 70 71  2  0  0  0  0
 71 72  1  0  0  0  0
 72 73  2  0  0  0  0
 73 74  1  0  0  0  0
 74 75  1  0  0  0  0
 73 76  1  0  0  0  0
 76 77  2  0  0  0  0
 60 78  1  0  0  0  0
 78 79  1  0  0  0  0
 59 80  1  0  0  0  0
 80 81  2  0  0  0  0
 81 82  1  0  0  0  0
 81 83  1  0  0  0  0
 83 84  2  0  0  0  0
 84 85  1  0  0  0  0
 85 86  2  0  0  0  0
 86 87  1  0  0  0  0
 87 88  2  0  0  0  0
 88 89  1  0  0  0  0
 89 90  1  0  0  0  0
 90 91  1  0  0  0  0
 88 92  1  0  0  0  0
 92 93  2  0  0  0  0
 84 94  1  0  0  0  0
 94 95  2  0  0  0  0
 95 96  1  0  0  0  0
 96 97  2  0  0  0  0
 96 98  1  0  0  0  0
 98 99  2  0  0  0  0
 99100  1  0  0  0  0
100101  2  0  0  0  0
101102  1  0  0  0  0
102103  2  0  0  0  0
103104  1  0  0  0  0
104105  2  0  0  0  0
105106  1  0  0  0  0
106107  3  0  0  0  0
105108  1  0  0  0  0
108109  3  0  0  0  0
101110  1  0  0  0  0
110111  1  0  0  0  0
111112  1  0  0  0  0
112113  2  0  0  0  0
113114  1  0  0  0  0
114115  1  0  0  0  0
114116  1  0  0  0  0
 11  2  1  0  0  0  0
 23 17  1  0  0  0  0
 37 24  1  0  0  0  0
 79 38  1  0  0  0  0
 93 80  1  0  0  0  0
104 95  1  0  0  0  0
116110  1  0  0  0  0
 10  5  1  0  0  0  0
 22 18  1  0  0  0  0
 37 29  1  0  0  0  0
 48 41  1  0  0  0  0
 56 49  1  0  0  0  0
 78 57  2  0  0  0  0
 93 85  1  0  0  0  0
103 98  1  0  0  0  0
115111  1  0  0  0  0
 23  7  1  0  0  0  0
 69 62  1  0  0  0  0
 77 70  1  0  0  0  0
116100  1  0  0  0  0
  1117  1  0  0  0  0
  6118  1  0  0  0  0
  9119  1  0  0  0  0
 17120  1  0  0  0  0
 18121  1  0  0  0  0
 19122  1  0  0  0  0
 20123  1  0  0  0  0
 21124  1  0  0  0  0
 22125  1  0  0  0  0
 22126  1  0  0  0  0
 23127  1  0  0  0  0
 27128  1  0  0  0  0
 31129  1  0  0  0  0
 34130  1  0  0  0  0
 34131  1  0  0  0  0
 35132  1  0  0  0  0
 35133  1  0  0  0  0
 35134  1  0  0  0  0
 42135  1  0  0  0  0
 43136  1  0  0  0  0
 46137  1  0  0  0  0
 46138  1  0  0  0  0
 46139  1  0  0  0  0
 47140  1  0  0  0  0
 48141  1  0  0  0  0
 50142  1  0  0  0  0
 51143  1  0  0  0  0
 54144  1  0  0  0  0
 54145  1  0  0  0  0
 54146  1  0  0  0  0
 55147  1  0  0  0  0
 56148  1  0  0  0  0
 63149  1  0  0  0  0
 64150  1  0  0  0  0
 67151  1  0  0  0  0
 67152  1  0  0  0  0
 67153  1  0  0  0  0
 68154  1  0  0  0  0
 69155  1  0  0  0  0
 71156  1  0  0  0  0
 72157  1  0  0  0  0
 75158  1  0  0  0  0
 75159  1  0  0  0  0
 75160  1  0  0  0  0
 76161  1  0  0  0  0
 77162  1  0  0  0  0
 83163  1  0  0  0  0
 87164  1  0  0  0  0
 90165  1  0  0  0  0
 90166  1  0  0  0  0
 91167  1  0  0  0  0
 91168  1  0  0  0  0
 91169  1  0  0  0  0
 94170  1  0  0  0  0
 99171  1  0  0  0  0
102172  1  0  0  0  0
110173  1  0  0  0  0
111174  1  0  0  0  0
112175  1  0  0  0  0
113176  1  0  0  0  0
114177  1  0  0  0  0
115178  1  0  0  0  0
115179  1  0  0  0  0
116180  1  0  0  0  0
M  END
