
  xtb     02122223513D
 energy: -315.429186107581 gnorm: 0.000677506635 xtb: 6.4.1 (unknown)
187207  0     0  0            999 V2000
    4.9176    7.8510   -1.2678 C   0  0  0  0  0  0  0  0  0  0  0  0
    6.0025    7.7866   -0.4662 C   0  0  0  0  0  0  0  0  0  0  0  0
    6.4658    6.5463    0.2266 C   0  0  0  0  0  0  0  0  0  0  0  0
    5.9560    5.4468    0.2044 O   0  0  0  0  0  0  0  0  0  0  0  0
    7.7531    6.8972    0.8463 C   0  0  0  0  0  0  0  0  0  0  0  0
    8.5703    6.0526    1.5962 C   0  0  0  0  0  0  0  0  0  0  0  0
    9.7307    6.6395    2.0371 C   0  0  0  0  0  0  0  0  0  0  0  0
   10.0668    7.9681    1.7380 C   0  0  0  0  0  0  0  0  0  0  0  0
    9.2768    8.8094    0.9932 C   0  0  0  0  0  0  0  0  0  0  0  0
    8.0807    8.2362    0.5472 C   0  0  0  0  0  0  0  0  0  0  0  0
    7.0054    8.8196   -0.2450 C   0  0  0  0  0  0  0  0  0  0  0  0
    6.9170   10.1245   -0.6440 C   0  0  0  0  0  0  0  0  0  0  0  0
    7.8933   11.1102   -0.3819 C   0  0  0  0  0  0  0  0  0  0  0  0
    8.6471   11.9587   -0.2108 N   0  0  0  0  0  0  0  0  0  0  0  0
    5.8316   10.6845   -1.3533 C   0  0  0  0  0  0  0  0  0  0  0  0
    4.9844   11.2218   -1.9109 N   0  0  0  0  0  0  0  0  0  0  0  0
   11.3678    7.8930    2.4961 C   0  0  0  0  0  0  0  0  0  0  0  0
   11.4257    8.5622    3.8915 C   0  0  0  0  0  0  0  0  0  0  0  0
   10.0148    8.5602    4.4258 C   0  0  0  0  0  0  0  0  0  0  0  0
    9.6929    7.3062    4.7138 C   0  0  0  0  0  0  0  0  0  0  0  0
   10.8802    6.4374    4.3795 C   0  0  0  0  0  0  0  0  0  0  0  0
   12.0264    7.4071    4.7084 C   0  0  0  0  0  0  0  0  0  0  0  0
   10.9910    6.4161    2.8342 C   0  0  0  0  0  0  0  0  0  0  0  0
    3.9044    6.8202   -1.2943 C   0  0  0  0  0  0  0  0  0  0  0  0
    3.3910    6.2795   -0.0841 C   0  0  0  0  0  0  0  0  0  0  0  0
    3.7353    6.8378    1.0977 N   0  0  0  0  0  0  0  0  0  0  0  0
    3.2991    6.2923    2.1889 C   0  0  0  0  0  0  0  0  0  0  0  0
    2.4717    5.1293    2.1600 C   0  0  0  0  0  0  0  0  0  0  0  0
    2.1094    4.5742    3.3085 O   0  0  0  0  0  0  0  0  0  0  0  0
    1.3071    3.3948    3.2161 C   0  0  0  0  0  0  0  0  0  0  0  0
    0.9843    2.9277    4.6227 C   0  0  0  0  0  0  0  0  0  0  0  0
    2.0513    4.6306    1.0250 N   0  0  0  0  0  0  0  0  0  0  0  0
    2.4949    5.1869   -0.1196 C   0  0  0  0  0  0  0  0  0  0  0  0
    2.0521    4.6461   -1.3564 C   0  0  0  0  0  0  0  0  0  0  0  0
    2.4844    5.2621   -2.5097 C   0  0  0  0  0  0  0  0  0  0  0  0
    3.3928    6.3286   -2.4792 C   0  0  0  0  0  0  0  0  0  0  0  0
    3.8387    6.8183   -3.6484 F   0  0  0  0  0  0  0  0  0  0  0  0
    2.1003    4.8021   -3.7118 F   0  0  0  0  0  0  0  0  0  0  0  0
    1.1941    3.4613   -1.3298 C   0  0  0  0  0  0  0  0  0  0  0  0
    1.6052    2.3324   -0.6067 C   0  0  0  0  0  0  0  0  0  0  0  0
    2.8811    2.0818   -0.0222 C   0  0  0  0  0  0  0  0  0  0  0  0
    2.9856    0.8670    0.5570 C   0  0  0  0  0  0  0  0  0  0  0  0
    4.1898    0.2570    1.1856 C   0  0  0  0  0  0  0  0  0  0  0  0
    4.8729   -0.7060    0.2113 C   0  0  0  0  0  0  0  0  0  0  0  0
    1.5053   -0.0598    0.4185 S   0  0  0  0  0  0  0  0  0  0  0  0
    0.7437    1.2240   -0.4770 C   0  0  0  0  0  0  0  0  0  0  0  0
   -0.4997    1.1600   -1.0921 C   0  0  0  0  0  0  0  0  0  0  0  0
   -0.9035    2.2842   -1.8268 C   0  0  0  0  0  0  0  0  0  0  0  0
   -0.0505    3.4054   -1.9409 C   0  0  0  0  0  0  0  0  0  0  0  0
   -0.7898    4.6496   -2.9070 S   0  0  0  0  0  0  0  0  0  0  0  0
   -2.2191    3.6774   -3.1426 C   0  0  0  0  0  0  0  0  0  0  0  0
   -3.3266    4.1640   -4.0124 C   0  0  0  0  0  0  0  0  0  0  0  0
   -3.2241    3.5497   -5.4116 C   0  0  0  0  0  0  0  0  0  0  0  0
   -2.1321    2.4828   -2.5157 C   0  0  0  0  0  0  0  0  0  0  0  0
   -1.3045   -0.0478   -1.0765 C   0  0  0  0  0  0  0  0  0  0  0  0
   -1.7393   -0.7485   -2.1857 C   0  0  0  0  0  0  0  0  0  0  0  0
   -1.4112   -0.4083   -3.4929 N   0  0  0  0  0  0  0  0  0  0  0  0
   -0.1168    0.0864   -3.7300 C   0  0  0  0  0  0  0  0  0  0  0  0
    0.1037    1.1885   -4.5504 C   0  0  0  0  0  0  0  0  0  0  0  0
    1.3670    1.7342   -4.6719 C   0  0  0  0  0  0  0  0  0  0  0  0
    2.4338    1.1803   -3.9773 C   0  0  0  0  0  0  0  0  0  0  0  0
    4.0652    1.8562   -3.9754 S   0  0  0  0  0  0  0  0  0  0  0  0
    4.1154    2.8485   -5.4961 C   0  0  0  0  0  0  0  0  0  0  0  0
    2.2283    0.0450   -3.1982 C   0  0  0  0  0  0  0  0  0  0  0  0
    0.9699   -0.4987   -3.0798 C   0  0  0  0  0  0  0  0  0  0  0  0
   -2.3669   -0.4950   -4.5038 C   0  0  0  0  0  0  0  0  0  0  0  0
   -3.7258   -0.3899   -4.2131 C   0  0  0  0  0  0  0  0  0  0  0  0
   -4.6765   -0.4853   -5.2109 C   0  0  0  0  0  0  0  0  0  0  0  0
   -4.2856   -0.6826   -6.5267 C   0  0  0  0  0  0  0  0  0  0  0  0
   -5.4093   -0.8016   -7.8843 S   0  0  0  0  0  0  0  0  0  0  0  0
   -7.0250   -1.0166   -7.0838 C   0  0  0  0  0  0  0  0  0  0  0  0
   -2.9277   -0.7817   -6.8259 C   0  0  0  0  0  0  0  0  0  0  0  0
   -1.9813   -0.6961   -5.8311 C   0  0  0  0  0  0  0  0  0  0  0  0
   -2.4605   -1.9051   -1.7999 C   0  0  0  0  0  0  0  0  0  0  0  0
   -3.2971   -3.1410   -2.6604 S   0  0  0  0  0  0  0  0  0  0  0  0
   -3.6812   -3.9743   -1.1438 C   0  0  0  0  0  0  0  0  0  0  0  0
   -3.2388   -3.2508   -0.0189 C   0  0  0  0  0  0  0  0  0  0  0  0
   -3.5065   -3.5118    1.2973 N   0  0  0  0  0  0  0  0  0  0  0  0
   -4.6341   -4.2135    1.7321 C   0  0  0  0  0  0  0  0  0  0  0  0
   -5.8687   -4.0689    1.1023 C   0  0  0  0  0  0  0  0  0  0  0  0
   -6.9587   -4.8152    1.5018 C   0  0  0  0  0  0  0  0  0  0  0  0
   -6.8338   -5.7294    2.5421 C   0  0  0  0  0  0  0  0  0  0  0  0
   -8.1213   -6.8026    3.0774 S   0  0  0  0  0  0  0  0  0  0  0  0
   -9.5335   -6.3766    2.0228 C   0  0  0  0  0  0  0  0  0  0  0  0
   -5.6166   -5.8345    3.2142 C   0  0  0  0  0  0  0  0  0  0  0  0
   -4.5320   -5.0847    2.8199 C   0  0  0  0  0  0  0  0  0  0  0  0
   -2.6049   -3.0123    2.2612 C   0  0  0  0  0  0  0  0  0  0  0  0
   -1.2364   -3.2006    2.0944 C   0  0  0  0  0  0  0  0  0  0  0  0
   -0.3393   -2.6156    2.9648 C   0  0  0  0  0  0  0  0  0  0  0  0
   -0.8053   -1.8334    4.0135 C   0  0  0  0  0  0  0  0  0  0  0  0
    0.2608   -0.9648    5.1198 S   0  0  0  0  0  0  0  0  0  0  0  0
    1.8227   -0.8864    4.1946 C   0  0  0  0  0  0  0  0  0  0  0  0
   -2.1764   -1.7106    4.2281 C   0  0  0  0  0  0  0  0  0  0  0  0
   -3.0726   -2.2958    3.3603 C   0  0  0  0  0  0  0  0  0  0  0  0
   -2.5281   -2.0952   -0.4269 C   0  0  0  0  0  0  0  0  0  0  0  0
   -1.7208   -0.8235    0.4292 S   0  0  0  0  0  0  0  0  0  0  0  0
   -4.3878   -5.1761   -1.2502 C   0  0  0  0  0  0  0  0  0  0  0  0
   -4.4164   -6.1796   -0.3068 C   0  0  0  0  0  0  0  0  0  0  0  0
   -3.3264   -6.4477    0.6457 C   0  0  0  0  0  0  0  0  0  0  0  0
   -2.2870   -5.8258    0.7709 O   0  0  0  0  0  0  0  0  0  0  0  0
   -3.6943   -7.7046    1.3307 C   0  0  0  0  0  0  0  0  0  0  0  0
   -2.9773   -8.3603    2.3260 C   0  0  0  0  0  0  0  0  0  0  0  0
   -3.5978   -9.4863    2.8146 C   0  0  0  0  0  0  0  0  0  0  0  0
   -4.8361   -9.9339    2.3394 C   0  0  0  0  0  0  0  0  0  0  0  0
   -5.5450   -9.3079    1.3412 C   0  0  0  0  0  0  0  0  0  0  0  0
   -4.9335   -8.1589    0.8381 C   0  0  0  0  0  0  0  0  0  0  0  0
   -5.4000   -7.2165   -0.1748 C   0  0  0  0  0  0  0  0  0  0  0  0
   -6.6395   -7.2155   -0.7689 C   0  0  0  0  0  0  0  0  0  0  0  0
   -7.6266   -8.1976   -0.5708 C   0  0  0  0  0  0  0  0  0  0  0  0
   -8.4894   -8.9479   -0.4533 N   0  0  0  0  0  0  0  0  0  0  0  0
   -7.1164   -6.1711   -1.5843 C   0  0  0  0  0  0  0  0  0  0  0  0
   -7.5973   -5.3321   -2.2057 N   0  0  0  0  0  0  0  0  0  0  0  0
   -4.8725  -11.0996    3.2943 C   0  0  0  0  0  0  0  0  0  0  0  0
   -5.7747  -10.9733    4.5465 C   0  0  0  0  0  0  0  0  0  0  0  0
   -5.8844   -9.5006    4.8570 C   0  0  0  0  0  0  0  0  0  0  0  0
   -4.7051   -9.0954    5.3095 C   0  0  0  0  0  0  0  0  0  0  0  0
   -3.7758  -10.2835    5.3053 C   0  0  0  0  0  0  0  0  0  0  0  0
   -4.7735  -11.4065    5.6296 C   0  0  0  0  0  0  0  0  0  0  0  0
   -3.4865  -10.6079    3.8187 C   0  0  0  0  0  0  0  0  0  0  0  0
    4.7720    8.6856   -1.9411 H   0  0  0  0  0  0  0  0  0  0  0  0
    8.2775    5.0329    1.7921 H   0  0  0  0  0  0  0  0  0  0  0  0
    9.5550    9.8245    0.7646 H   0  0  0  0  0  0  0  0  0  0  0  0
   12.2695    8.0686    1.9130 H   0  0  0  0  0  0  0  0  0  0  0  0
   11.9459    9.5157    3.9132 H   0  0  0  0  0  0  0  0  0  0  0  0
    9.3956    9.4361    4.4840 H   0  0  0  0  0  0  0  0  0  0  0  0
    8.7504    6.9248    5.0606 H   0  0  0  0  0  0  0  0  0  0  0  0
   10.9046    5.4566    4.8470 H   0  0  0  0  0  0  0  0  0  0  0  0
   12.9960    7.0739    4.3410 H   0  0  0  0  0  0  0  0  0  0  0  0
   12.0939    7.6339    5.7712 H   0  0  0  0  0  0  0  0  0  0  0  0
   11.6485    5.6261    2.4768 H   0  0  0  0  0  0  0  0  0  0  0  0
    3.5642    6.7558    3.1281 H   0  0  0  0  0  0  0  0  0  0  0  0
    1.8660    2.6348    2.6576 H   0  0  0  0  0  0  0  0  0  0  0  0
    0.3979    3.6253    2.6502 H   0  0  0  0  0  0  0  0  0  0  0  0
    1.9011    2.7337    5.1727 H   0  0  0  0  0  0  0  0  0  0  0  0
    0.4210    3.6915    5.1515 H   0  0  0  0  0  0  0  0  0  0  0  0
    0.3940    2.0171    4.5819 H   0  0  0  0  0  0  0  0  0  0  0  0
    3.6960    2.7820   -0.0612 H   0  0  0  0  0  0  0  0  0  0  0  0
    3.9078   -0.2851    2.0916 H   0  0  0  0  0  0  0  0  0  0  0  0
    4.8842    1.0540    1.4590 H   0  0  0  0  0  0  0  0  0  0  0  0
    4.1921   -1.5086   -0.0641 H   0  0  0  0  0  0  0  0  0  0  0  0
    5.7574   -1.1414    0.6693 H   0  0  0  0  0  0  0  0  0  0  0  0
    5.1713   -0.1765   -0.6908 H   0  0  0  0  0  0  0  0  0  0  0  0
   -3.2846    5.2517   -4.0881 H   0  0  0  0  0  0  0  0  0  0  0  0
   -4.2837    3.8842   -3.5657 H   0  0  0  0  0  0  0  0  0  0  0  0
   -4.0315    3.9140   -6.0415 H   0  0  0  0  0  0  0  0  0  0  0  0
   -3.2896    2.4646   -5.3579 H   0  0  0  0  0  0  0  0  0  0  0  0
   -2.2773    3.8201   -5.8739 H   0  0  0  0  0  0  0  0  0  0  0  0
   -2.9247    1.7579   -2.5286 H   0  0  0  0  0  0  0  0  0  0  0  0
   -0.7259    1.6417   -5.0716 H   0  0  0  0  0  0  0  0  0  0  0  0
    1.5008    2.6117   -5.2831 H   0  0  0  0  0  0  0  0  0  0  0  0
    3.7660    2.2453   -6.3285 H   0  0  0  0  0  0  0  0  0  0  0  0
    3.5193    3.7480   -5.3850 H   0  0  0  0  0  0  0  0  0  0  0  0
    5.1582    3.1143   -5.6396 H   0  0  0  0  0  0  0  0  0  0  0  0
    3.0661   -0.3978   -2.6816 H   0  0  0  0  0  0  0  0  0  0  0  0
    0.8168   -1.3746   -2.4664 H   0  0  0  0  0  0  0  0  0  0  0  0
   -4.0514   -0.2270   -3.1961 H   0  0  0  0  0  0  0  0  0  0  0  0
   -5.7172   -0.3953   -4.9449 H   0  0  0  0  0  0  0  0  0  0  0  0
   -7.3281   -0.0965   -6.5921 H   0  0  0  0  0  0  0  0  0  0  0  0
   -6.9779   -1.8439   -6.3820 H   0  0  0  0  0  0  0  0  0  0  0  0
   -7.7199   -1.2490   -7.8847 H   0  0  0  0  0  0  0  0  0  0  0  0
   -2.6274   -0.9392   -7.8503 H   0  0  0  0  0  0  0  0  0  0  0  0
   -0.9341   -0.7955   -6.0724 H   0  0  0  0  0  0  0  0  0  0  0  0
   -5.9787   -3.3729    0.2842 H   0  0  0  0  0  0  0  0  0  0  0  0
   -7.8939   -4.6831    0.9820 H   0  0  0  0  0  0  0  0  0  0  0  0
  -10.3435   -7.0203    2.3512 H   0  0  0  0  0  0  0  0  0  0  0  0
   -9.3032   -6.5872    0.9826 H   0  0  0  0  0  0  0  0  0  0  0  0
   -9.8052   -5.3354    2.1693 H   0  0  0  0  0  0  0  0  0  0  0  0
   -5.5306   -6.5335    4.0310 H   0  0  0  0  0  0  0  0  0  0  0  0
   -3.5873   -5.1838    3.3323 H   0  0  0  0  0  0  0  0  0  0  0  0
   -0.8885   -3.8151    1.2791 H   0  0  0  0  0  0  0  0  0  0  0  0
    0.7157   -2.7701    2.8098 H   0  0  0  0  0  0  0  0  0  0  0  0
    2.4322   -0.1466    4.7040 H   0  0  0  0  0  0  0  0  0  0  0  0
    2.3224   -1.8507    4.2148 H   0  0  0  0  0  0  0  0  0  0  0  0
    1.6147   -0.5697    3.1764 H   0  0  0  0  0  0  0  0  0  0  0  0
   -2.5280   -1.1297    5.0669 H   0  0  0  0  0  0  0  0  0  0  0  0
   -4.1353   -2.1768    3.5108 H   0  0  0  0  0  0  0  0  0  0  0  0
   -4.9294   -5.3204   -2.1779 H   0  0  0  0  0  0  0  0  0  0  0  0
   -2.0270   -7.9805    2.6682 H   0  0  0  0  0  0  0  0  0  0  0  0
   -6.4919   -9.6698    0.9762 H   0  0  0  0  0  0  0  0  0  0  0  0
   -4.9265  -12.0887    2.8435 H   0  0  0  0  0  0  0  0  0  0  0  0
   -6.7122  -11.5188    4.4831 H   0  0  0  0  0  0  0  0  0  0  0  0
   -6.7637   -8.9131    4.6655 H   0  0  0  0  0  0  0  0  0  0  0  0
   -4.3987   -8.1024    5.5836 H   0  0  0  0  0  0  0  0  0  0  0  0
   -2.8907  -10.2041    5.9316 H   0  0  0  0  0  0  0  0  0  0  0  0
   -5.1815  -11.3296    6.6364 H   0  0  0  0  0  0  0  0  0  0  0  0
   -4.3690  -12.4055    5.4719 H   0  0  0  0  0  0  0  0  0  0  0  0
   -2.6328  -11.2722    3.6969 H   0  0  0  0  0  0  0  0  0  0  0  0
  1  2  2  0  0  0  0
  2  3  1  0  0  0  0
  3  4  2  0  0  0  0
  3  5  1  0  0  0  0
  5  6  2  0  0  0  0
  6  7  1  0  0  0  0
  7  8  2  0  0  0  0
  8  9  1  0  0  0  0
  9 10  2  0  0  0  0
 10 11  1  0  0  0  0
 11 12  2  0  0  0  0
 12 13  1  0  0  0  0
 13 14  3  0  0  0  0
 12 15  1  0  0  0  0
 15 16  3  0  0  0  0
  8 17  1  0  0  0  0
 17 18  1  0  0  0  0
 18 19  1  0  0  0  0
 19 20  2  0  0  0  0
 20 21  1  0  0  0  0
 21 22  1  0  0  0  0
 21 23  1  0  0  0  0
  1 24  1  0  0  0  0
 24 25  1  0  0  0  0
 25 26  2  0  0  0  0
 26 27  1  0  0  0  0
 27 28  2  0  0  0  0
 28 29  1  0  0  0  0
 29 30  1  0  0  0  0
 30 31  1  0  0  0  0
 28 32  1  0  0  0  0
 32 33  2  0  0  0  0
 33 34  1  0  0  0  0
 34 35  2  0  0  0  0
 35 36  1  0  0  0  0
 36 37  1  0  0  0  0
 35 38  1  0  0  0  0
 34 39  1  0  0  0  0
 39 40  2  0  0  0  0
 40 41  1  0  0  0  0
 41 42  2  0  0  0  0
 42 43  1  0  0  0  0
 43 44  1  0  0  0  0
 42 45  1  0  0  0  0
 45 46  1  0  0  0  0
 46 47  2  0  0  0  0
 47 48  1  0  0  0  0
 48 49  2  0  0  0  0
 49 50  1  0  0  0  0
 50 51  1  0  0  0  0
 51 52  1  0  0  0  0
 52 53  1  0  0  0  0
 51 54  2  0  0  0  0
 47 55  1  0  0  0  0
 55 56  2  0  0  0  0
 56 57  1  0  0  0  0
 57 58  1  0  0  0  0
 58 59  2  0  0  0  0
 59 60  1  0  0  0  0
 60 61  2  0  0  0  0
 61 62  1  0  0  0  0
 62 63  1  0  0  0  0
 61 64  1  0  0  0  0
 64 65  2  0  0  0  0
 57 66  1  0  0  0  0
 66 67  2  0  0  0  0
 67 68  1  0  0  0  0
 68 69  2  0  0  0  0
 69 70  1  0  0  0  0
 70 71  1  0  0  0  0
 69 72  1  0  0  0  0
 72 73  2  0  0  0  0
 56 74  1  0  0  0  0
 74 75  1  0  0  0  0
 75 76  1  0  0  0  0
 76 77  2  0  0  0  0
 77 78  1  0  0  0  0
 78 79  1  0  0  0  0
 79 80  2  0  0  0  0
 80 81  1  0  0  0  0
 81 82  2  0  0  0  0
 82 83  1  0  0  0  0
 83 84  1  0  0  0  0
 82 85  1  0  0  0  0
 85 86  2  0  0  0  0
 78 87  1  0  0  0  0
 87 88  2  0  0  0  0
 88 89  1  0  0  0  0
 89 90  2  0  0  0  0
 90 91  1  0  0  0  0
 91 92  1  0  0  0  0
 90 93  1  0  0  0  0
 93 94  2  0  0  0  0
 77 95  1  0  0  0  0
 95 96  1  0  0  0  0
 76 97  1  0  0  0  0
 97 98  2  0  0  0  0
 98 99  1  0  0  0  0
 99100  2  0  0  0  0
 99101  1  0  0  0  0
101102  2  0  0  0  0
102103  1  0  0  0  0
103104  2  0  0  0  0
104105  1  0  0  0  0
105106  2  0  0  0  0
106107  1  0  0  0  0
107108  2  0  0  0  0
108109  1  0  0  0  0
109110  3  0  0  0  0
108111  1  0  0  0  0
111112  3  0  0  0  0
104113  1  0  0  0  0
113114  1  0  0  0  0
114115  1  0  0  0  0
115116  2  0  0  0  0
116117  1  0  0  0  0
117118  1  0  0  0  0
117119  1  0  0  0  0
 11  2  1  0  0  0  0
 23 17  1  0  0  0  0
 36 24  2  0  0  0  0
 49 39  1  0  0  0  0
 96 55  1  0  0  0  0
107 98  1  0  0  0  0
119113  1  0  0  0  0
 10  5  1  0  0  0  0
 22 18  1  0  0  0  0
 33 25  1  0  0  0  0
 46 40  1  0  0  0  0
 54 48  1  0  0  0  0
 65 58  1  0  0  0  0
 73 66  1  0  0  0  0
 95 74  2  0  0  0  0
106101  1  0  0  0  0
118114  1  0  0  0  0
 23  7  1  0  0  0  0
 86 79  1  0  0  0  0
 94 87  1  0  0  0  0
119103  1  0  0  0  0
  1120  1  0  0  0  0
  6121  1  0  0  0  0
  9122  1  0  0  0  0
 17123  1  0  0  0  0
 18124  1  0  0  0  0
 19125  1  0  0  0  0
 20126  1  0  0  0  0
 21127  1  0  0  0  0
 22128  1  0  0  0  0
 22129  1  0  0  0  0
 23130  1  0  0  0  0
 27131  1  0  0  0  0
 30132  1  0  0  0  0
 30133  1  0  0  0  0
 31134  1  0  0  0  0
 31135  1  0  0  0  0
 31136  1  0  0  0  0
 41137  1  0  0  0  0
 43138  1  0  0  0  0
 43139  1  0  0  0  0
 44140  1  0  0  0  0
 44141  1  0  0  0  0
 44142  1  0  0  0  0
 52143  1  0  0  0  0
 52144  1  0  0  0  0
 53145  1  0  0  0  0
 53146  1  0  0  0  0
 53147  1  0  0  0  0
 54148  1  0  0  0  0
 59149  1  0  0  0  0
 60150  1  0  0  0  0
 63151  1  0  0  0  0
 63152  1  0  0  0  0
 63153  1  0  0  0  0
 64154  1  0  0  0  0
 65155  1  0  0  0  0
 67156  1  0  0  0  0
 68157  1  0  0  0  0
 71158  1  0  0  0  0
 71159  1  0  0  0  0
 71160  1  0  0  0  0
 72161  1  0  0  0  0
 73162  1  0  0  0  0
 80163  1  0  0  0  0
 81164  1  0  0  0  0
 84165  1  0  0  0  0
 84166  1  0  0  0  0
 84167  1  0  0  0  0
 85168  1  0  0  0  0
 86169  1  0  0  0  0
 88170  1  0  0  0  0
 89171  1  0  0  0  0
 92172  1  0  0  0  0
 92173  1  0  0  0  0
 92174  1  0  0  0  0
 93175  1  0  0  0  0
 94176  1  0  0  0  0
 97177  1  0  0  0  0
102178  1  0  0  0  0
105179  1  0  0  0  0
113180  1  0  0  0  0
114181  1  0  0  0  0
115182  1  0  0  0  0
116183  1  0  0  0  0
117184  1  0  0  0  0
118185  1  0  0  0  0
118186  1  0  0  0  0
119187  1  0  0  0  0
M  END
