238

C         -0.51800       -0.12970       -8.30980
C         -0.00770        0.98670       -8.90680
C         -0.48460        2.35600       -8.57850
O         -1.47020        2.64930       -7.93610
C          0.37600        3.27270       -9.34030
C          0.37280        4.66410       -9.27770
C          1.31120        5.25840      -10.08470
C          2.17660        4.52530      -10.90930
C          2.17380        3.15340      -10.99690
C          1.23420        2.52500      -10.17210
C          0.96650        1.10210       -9.96970
C          1.58960        0.06390      -10.61370
C          1.34120       -1.29770      -10.34540
N          1.19100       -2.42170      -10.16360
C          2.55390        0.21430      -11.63070
N          3.33760        0.26550      -12.46840
C          2.86420        5.76670      -11.42420
C          4.25080        6.08160      -10.82380
C          4.45380        7.54930      -11.12440
C          3.63380        8.23930      -10.34170
C          2.86090        7.25000       -9.50040
C          3.92850        6.16150       -9.32620
C          1.89870        6.58150      -10.50480
C         -1.06230       -0.05070       -7.00380
C         -0.56880        0.76650       -5.99130
N          0.68750        1.41850       -6.02010
C          1.57670        0.66680       -5.19990
C          2.16760        1.20580       -4.06160
C          2.88780        0.40370       -3.19780
C          3.01420       -0.95600       -3.44670
S          3.81710       -2.08760       -2.35600
C          4.03540       -1.12810       -0.82820
C          2.47200       -1.48980       -4.61390
C          1.76600       -0.68700       -5.48190
C          0.82470        2.81280       -5.99960
C          2.07920        3.34680       -6.28490
C          2.29520        4.70770       -6.23370
C          1.24990        5.55890       -5.90590
S          1.44010        7.31670       -5.81930
C          3.22110        7.51700       -5.51330
C         -0.01300        5.03440       -5.65310
C         -0.22630        3.67260       -5.69180
C         -1.21410        0.49770       -4.77460
S         -1.03840        1.19540       -3.21600
C         -2.07980       -0.04620       -2.53970
C         -2.59430       -0.89890       -3.50860
N         -3.43210       -1.96280       -3.22050
C         -4.52320       -1.75360       -2.36680
C         -5.24410       -0.56190       -2.44120
C         -6.32130       -0.35210       -1.61250
C         -6.68270       -1.30920       -0.66780
S         -8.04600       -0.89840        0.38020
C         -8.42590       -2.44920        1.24010
C         -5.96600       -2.49480       -0.58560
C         -4.90110       -2.71840       -1.43770
C         -3.20970       -3.18670       -3.86020
C         -4.27140       -4.01370       -4.21540
C         -4.04430       -5.20770       -4.87190
C         -2.75040       -5.58300       -5.20740
S         -2.34460       -7.08930       -6.03840
C         -3.93240       -7.64250       -6.72320
C         -1.68470       -4.75830       -4.85330
C         -1.90820       -3.58240       -4.17440
C         -2.11330       -0.55910       -4.79700
S         -2.26020       -1.19010       -6.40330
C         -2.03810       -0.20020       -1.12540
C         -1.71870        0.80620       -0.22340
N         -1.89960        2.16100       -0.53830
C         -3.24320        2.49590       -0.81340
C         -4.21800        2.12180        0.10680
C         -5.55190        2.39730       -0.11720
C         -5.93440        3.05170       -1.28030
S         -7.60790        3.43670       -1.69000
C         -8.54470        2.97000       -0.20680
C         -4.96430        3.41340       -2.21350
C         -3.63360        3.13780       -1.98740
C         -0.83740        3.01740       -0.79230
C          0.47160        2.53260       -0.86330
C          1.50640        3.36680       -1.22190
C          1.26710        4.70230       -1.53080
S          2.64330        5.65020       -2.10960
C          2.03110        7.36010       -2.07580
C         -0.01720        5.20710       -1.39410
C         -1.05090        4.37840       -1.00680
C         -1.32800        0.27280        1.01920
S         -0.76690        0.93780        2.50640
C         -0.53780       -0.67730        3.18510
C         -0.94880       -1.67660        2.30290
N         -0.90090       -3.05260        2.46640
C         -0.55250       -3.78370        1.30680
C         -1.35270       -4.81650        0.83250
C         -1.02290       -5.48040       -0.33330
C          0.11100       -5.11470       -1.04790
S          0.61970       -5.87240       -2.55260
C         -0.54370       -7.24670       -2.77010
C          0.91810       -4.08110       -0.57190
C          0.59290       -3.42740        0.59450
C         -1.35380       -3.71850        3.60050
C         -0.92740       -5.02650        3.85270
C         -1.34100       -5.68650        4.98610
C         -2.16540       -5.05400        5.91280
S         -2.60730       -5.97110        7.35630
C         -2.92460       -4.66290        8.57580
C         -2.61050       -3.76430        5.65900
C         -2.21610       -3.10660        4.51040
C         -1.37690       -1.11280        1.07530
S         -1.96310       -1.79580       -0.40670
C          0.07690       -0.73440        4.46690
C          0.44990       -1.79770        5.24340
C          1.07050       -1.43040        6.46180
C          1.53090       -2.26960        7.48910
C          1.35420       -3.72790        7.43980
C          0.77060       -4.38470        8.51980
C          0.59600       -5.75200        8.47560
F          0.02200       -6.35390        9.53510
C          0.97070       -6.53280        7.38720
C          0.77420       -8.01910        7.37870
C          1.84870       -8.71320        8.21820
C          1.55640       -5.84130        6.33430
F          1.94840       -6.53310        5.24280
C          1.75360       -4.47430        6.33730
C          2.13330       -1.66000        8.58240
C          2.29900       -0.25350        8.68450
C          1.80500        0.59330        7.67090
C          1.96290        2.05210        7.73590
C          3.21650        2.61650        7.95250
C          3.34820        3.99040        7.98150
C          2.27920        4.86370        7.81390
C          2.45130        6.35330        7.80720
C          2.68560        6.85630        6.38060
C          1.04490        4.25960        7.60010
C          0.86780        2.89140        7.55730
F         -0.03640        5.04780        7.43650
F          4.57710        4.50690        8.18890
C          1.18660       -0.02040        6.59890
S          0.50310        0.79840        5.22180
C          2.94780        0.10130        9.88040
C          3.30870       -0.97480       10.66450
S          2.82550       -2.49680        9.94500
C          3.98650       -0.81950       11.89650
C          4.43710       -1.75150       12.77710
S          5.27330       -1.27860       14.24650
C          5.50080       -2.95410       14.72670
S          6.26380       -3.42320       16.08910
N          4.95960       -3.78250       13.79740
C          4.97840       -5.22530       13.94850
C          3.82860       -5.70270       14.82610
C          4.34860       -3.20360       12.70060
O          3.83200       -3.86020       11.81860
H         -0.45640       -1.10560       -8.77140
H         -0.31100        5.18850       -8.62950
H          2.83770        2.60470      -11.64420
H          2.81970        5.92500      -12.49980
H          5.04410        5.40490      -11.13010
H          5.11140        7.91900      -11.88910
H          3.46900        9.30070      -10.32260
H          2.37750        7.63660       -8.60730
H          4.78320        6.50720       -8.74480
H          3.54880        5.23160       -8.90680
H          1.20830        7.28540      -10.96500
H          2.03800        2.25230       -3.82960
H          3.32430        0.85100       -2.31970
H          4.38140       -1.83830       -0.08360
H          4.78410       -0.35420       -0.97130
H          3.08340       -0.70310       -0.52350
H          2.59410       -2.54190       -4.82010
H          1.33560       -1.11430       -6.37480
H          2.89180        2.67970       -6.53350
H          3.27900        5.09250       -6.44740
H          3.35290        8.54520       -5.19070
H          3.52680        6.83290       -4.72730
H          3.78500        7.34600       -6.42570
H         -0.82410        5.70390       -5.40930
H         -1.20740        3.27290       -5.48890
H         -4.96740        0.19150       -3.16340
H         -6.90290        0.55020       -1.70270
H         -9.33610       -2.25940        1.80050
H         -8.59620       -3.23730        0.51270
H         -7.62110       -2.70710        1.92260
H         -6.22050       -3.25230        0.13850
H         -4.34540       -3.64230       -1.37520
H         -5.28260       -3.71590       -3.98100
H         -4.88740       -5.83000       -5.12600
H         -4.58570       -7.99540       -5.93030
H         -3.69300       -8.46320       -7.39210
H         -4.38980       -6.83090       -7.28090
H         -0.67950       -5.05550       -5.10690
H         -1.07110       -2.96600       -3.88170
H         -3.92570        1.61300        1.01350
H         -6.27890        2.09150        0.61730
H         -9.57180        3.25430       -0.41380
H         -8.17390        3.52400        0.65040
H         -8.48700        1.89740       -0.04110
H         -5.27090        3.90650       -3.12340
H         -2.89230        3.41230       -2.72230
H          0.66800        1.48980       -0.66160
H          2.51520        2.98830       -1.28510
H          1.62350        7.58060       -1.09400
H          1.29100        7.50870       -2.85740
H          2.89670        7.98800       -2.26360
H         -0.23330        6.24440       -1.59210
H         -2.03990        4.79280       -0.88760
H         -2.24370       -5.09390        1.37650
H         -1.66660       -6.27230       -0.68010
H         -1.55310       -6.86430       -2.88890
H         -0.23890       -7.74740       -3.68370
H         -0.46930       -7.92910       -1.92870
H          1.80030       -3.80630       -1.12960
H          1.21920       -2.62870        0.96490
H         -0.25420       -5.51360        3.16430
H         -1.01860       -6.69820        5.17350
H         -2.16100       -3.89690        8.47970
H         -2.85420       -5.14070        9.54790
H         -3.91910       -4.24750        8.43960
H         -3.27550       -3.26480        6.34570
H         -2.57750       -2.10810        4.31690
H          0.30040       -2.82070        4.96450
H          0.44490       -3.84010        9.39150
H         -0.21140       -8.24710        7.79040
H          0.82010       -8.38710        6.35280
H          1.80670       -8.36950        9.24870
H          1.69390       -9.78900        8.20460
H          2.83830       -8.49910        7.82010
H          2.24000       -4.00940        5.49470
H          4.09160        1.99700        8.06910
H          3.30350        6.62370        8.43240
H          1.55360        6.82280        8.21310
H          1.84050        6.60150        5.74510
H          2.80630        7.93640        6.38210
H          3.58340        6.40670        5.96230
H         -0.12100        2.49160        7.39990
H          3.14250        1.11790       10.17260
H          4.17710        0.21410       12.16420
H          5.93780       -5.50550       14.38930
H          4.88940       -5.64270       12.94280
H          3.86200       -6.78480       14.90970
H          3.90950       -5.27340       15.82200
H          2.87560       -5.41460       14.38880
