199

C         -0.92360        5.85310        2.90430
C          0.02580        6.61130        3.54830
C          1.44740        6.29530        3.70780
O          2.00260        5.22500        3.51460
C          2.09720        7.54370        4.15050
C          3.45280        7.75260        4.39360
C          3.76030        9.03060        4.79620
C          2.79180       10.02990        4.95260
C          1.45020        9.83730        4.72020
C          1.11780        8.54630        4.30200
C         -0.18640        7.97090        3.98400
C         -1.39270        8.61850        4.10210
C         -1.54780        9.99030        4.37860
N         -1.77240       11.10370        4.55350
C         -2.65620        8.00950        3.98840
N         -3.72830        7.59430        3.95500
C          3.80820       11.06200        5.37360
C          4.21410       12.10350        4.30950
C          5.52650       12.65130        4.82190
C          6.44460       11.70500        4.67250
C          5.76810       10.50160        4.05650
C          4.72760       11.20590        3.17620
C          4.88910        9.94740        5.19790
C         -0.83760        4.58690        2.32500
C         -1.84360        4.03000        1.49390
N         -2.94770        4.70620        1.03100
C         -4.18240        4.04770        0.93830
C         -5.10840        4.41530       -0.03930
C         -6.35810        3.84090       -0.06210
C         -6.70580        2.86200        0.86840
S         -8.34720        2.23080        0.76490
C         -8.46450        1.08690        2.17160
C         -5.77110        2.45920        1.81180
C         -4.52750        3.05710        1.85310
C         -2.86920        6.07850        0.72390
C         -1.73480        6.58330        0.08390
C         -1.59360        7.93810       -0.10550
C         -2.58950        8.81930        0.31840
S         -2.26870       10.54010        0.10620
C         -3.52500       11.34270        1.14040
C         -3.75590        8.31160        0.87350
C         -3.89210        6.95230        1.08080
C         -1.54430        2.69570        1.17100
S         -2.30320        1.47240        0.18990
C         -0.97120        0.36710        0.50940
C         -0.05500        0.90920        1.40080
N          0.97360        0.17430        1.98050
C          0.66830       -1.07520        2.52940
C         -0.59680       -1.33260        3.05230
C         -0.92730       -2.58920        3.51920
C          0.00500       -3.61740        3.46960
S         -0.34480       -5.28160        3.95200
C         -1.90720       -5.14750        4.86900
C          1.28210       -3.35570        2.97810
C          1.61240       -2.10030        2.51870
C          2.21120        0.80000        2.13800
C          2.97190        0.63330        3.29300
C          4.12840        1.36330        3.46660
C          4.52730        2.27440        2.50020
S          5.94280        3.31730        2.77640
C          5.31290        4.21740        4.22730
C          3.80760        2.40290        1.32300
C          2.66030        1.66190        1.13800
C         -0.35790        2.24320        1.73690
S          0.48590        3.45960        2.61930
C         -0.74200       -0.88790       -0.13820
C         -1.56150       -1.95920       -0.44780
N         -2.93660       -2.03670       -0.25430
C         -3.77230       -1.06030       -0.81380
C         -5.04840       -0.85120       -0.28910
C         -5.89800        0.05870       -0.87520
C         -5.48840        0.80030       -1.98150
S         -6.66680        1.90350       -2.69090
C         -5.62790        3.06490       -3.62500
C         -4.21560        0.60880       -2.49680
C         -3.36840       -0.31760       -1.92050
C         -3.44570       -3.31470        0.03820
C         -2.77500       -4.10580        0.97150
C         -3.16010       -5.41160        1.19000
C         -4.22680       -5.94630        0.48220
S         -4.69630       -7.64790        0.68350
C         -3.10980       -8.45560        0.30100
C         -4.94090       -5.14480       -0.39760
C         -4.55350       -3.84020       -0.62440
C         -0.81270       -3.02790       -1.00510
S         -1.23520       -4.59980       -1.57580
C          0.42650       -4.89740       -2.07760
C          1.24810       -3.78890       -1.86420
N          2.55690       -3.61840       -2.26360
C          3.05740       -4.11580       -3.46640
C          2.22100       -4.35230       -4.55610
C          2.70040       -4.97470       -5.69130
C          4.03040       -5.36480       -5.76310
S          4.71390       -6.25260       -7.12880
C          3.25960       -7.05260       -7.86660
C          4.89050       -5.05060       -4.71350
C          4.41370       -4.43520       -3.57890
C          3.41140       -2.88860       -1.40480
C          3.59290       -3.31320       -0.09100
C          4.45080       -2.62820        0.74060
C          5.11900       -1.48970        0.28930
S          6.16420       -0.69000        1.45830
C          6.90920        0.67440        0.52930
C          4.93230       -1.06420       -1.02050
C          4.09270       -1.76700       -1.86290
C          0.53010       -2.76200       -1.19850
S          0.93480       -1.18190       -0.63450
C          0.68040       -6.17930       -2.62980
C          1.86620       -6.79500       -2.98140
C          1.67700       -8.03530       -3.59570
C          2.80780       -8.76950       -4.18200
O          2.73430       -9.72080       -4.92400
O          3.98910       -8.23470       -3.84180
C          0.33100       -8.43960       -3.65140
S         -0.68080       -7.21730       -2.94160
C         -0.11250       -9.65260       -4.21320
C         -1.35620      -10.22510       -4.24730
C         -1.49830      -11.46020       -4.91690
N         -1.60810      -12.45970       -5.46860
C         -2.57260       -9.70100       -3.61770
O         -2.64060       -8.65730       -2.99580
O         -3.60850      -10.52150       -3.77740
C         -4.85140      -10.12580       -3.19360
C         -5.55860       -9.07100       -4.03180
H         -1.89000        6.32510        2.78720
H          4.17120        6.95830        4.26840
H          0.71370       10.61330        4.84750
H          3.66310       11.49610        6.36100
H          3.44260       12.82830        4.06480
H          5.63660       13.61830        5.27640
H          7.47460       11.72380        4.97710
H          6.41330        9.76790        3.58050
H          5.18820       11.77970        2.37380
H          3.97320       10.54030        2.76100
H          5.46560        9.63950        6.06840
H         -4.84700        5.17170       -0.76440
H         -7.08570        4.14280       -0.79870
H         -8.29190        1.62310        3.10000
H         -7.76100        0.26780        2.05100
H         -9.48040        0.70450        2.15100
H         -6.00360        1.69920        2.53950
H         -3.82770        2.77210        2.62440
H         -0.95380        5.90740       -0.23140
H         -0.70750        8.33530       -0.57620
H         -3.48850       10.93410        2.14610
H         -4.51000       11.22500        0.69810
H         -3.25480       12.39380        1.16230
H         -4.55640        8.96340        1.18150
H         -4.78190        6.57380        1.55850
H         -1.33450       -0.54480        3.09120
H         -1.91700       -2.75210        3.91540
H         -2.72050       -4.87980        4.20000
H         -1.79840       -4.42220        5.66990
H         -2.08590       -6.13380        5.28620
H          2.00800       -4.15380        2.95210
H          2.59650       -1.90060        2.12720
H          2.63940       -0.04860        4.06110
H          4.71270        1.24060        4.36550
H          5.97020        5.06930        4.37210
H          4.29550        4.53670        4.01730
H          5.34000        3.57590        5.10330
H          4.13940        3.09840        0.56680
H          2.08920        1.75850        0.22610
H         -5.36710       -1.42130        0.57090
H         -6.89620        0.20410       -0.49460
H         -5.25920        2.60010       -4.53480
H         -4.81170        3.40070       -2.99250
H         -6.27230        3.90060       -3.87930
H         -3.87720        1.15630       -3.36150
H         -2.39150       -0.48280       -2.35040
H         -1.92900       -3.69350        1.50150
H         -2.61640       -6.01760        1.89870
H         -2.34470       -8.13240        0.99940
H         -3.28010       -9.52240        0.40880
H         -2.82780       -8.21650       -0.72080
H         -5.78120       -5.56230       -0.93000
H         -5.08410       -3.24000       -1.34780
H          1.18340       -4.05880       -4.51060
H          2.02420       -5.15810       -6.51100
H          2.68630       -7.55250       -7.09120
H          3.64980       -7.78460       -8.56680
H          2.65320       -6.32550       -8.39870
H          5.93150       -5.32390       -4.78740
H          5.08080       -4.23410       -2.75450
H          3.06690       -4.18790        0.26220
H          4.63090       -2.97210        1.74800
H          7.51060        0.28310       -0.28600
H          6.13250        1.34370        0.17290
H          7.53800        1.20210        1.23960
H          5.43700       -0.18970       -1.39670
H          3.95930       -1.44560       -2.88520
H          2.84420       -6.39210       -2.80790
H          4.70580       -8.71730       -4.28390
H          0.67910      -10.21670       -4.69680
H         -5.43490      -11.04650       -3.14290
H         -4.66800       -9.74330       -2.18410
H         -4.97050       -8.15660       -4.05620
H         -6.52760       -8.85320       -3.59220
H         -5.69990       -9.43090       -5.04810
