
  xtb     02082215033D
 energy: -274.509759108108 gnorm: 0.000807262446 xtb: 6.4.1 (unknown)
151166  0     0  0            999 V2000
   -6.8746   -0.2402   -2.3649 C   0  0  0  0  0  0  0  0  0  0  0  0
   -7.1302   -0.3956   -3.6919 C   0  0  0  0  0  0  0  0  0  0  0  0
   -6.1967   -0.9791   -4.6854 C   0  0  0  0  0  0  0  0  0  0  0  0
   -5.0740   -1.4008   -4.4932 O   0  0  0  0  0  0  0  0  0  0  0  0
   -6.9599   -1.0857   -5.9417 C   0  0  0  0  0  0  0  0  0  0  0  0
   -6.4913   -1.5552   -7.1679 C   0  0  0  0  0  0  0  0  0  0  0  0
   -7.4343   -1.5565   -8.1664 C   0  0  0  0  0  0  0  0  0  0  0  0
   -8.7529   -1.1278   -7.9622 C   0  0  0  0  0  0  0  0  0  0  0  0
   -9.2284   -0.6596   -6.7610 C   0  0  0  0  0  0  0  0  0  0  0  0
   -8.2823   -0.6458   -5.7304 C   0  0  0  0  0  0  0  0  0  0  0  0
   -8.4120   -0.2002   -4.3466 C   0  0  0  0  0  0  0  0  0  0  0  0
   -9.5229    0.3782   -3.7921 C   0  0  0  0  0  0  0  0  0  0  0  0
   -9.6034    0.9033   -2.4841 C   0  0  0  0  0  0  0  0  0  0  0  0
   -9.7526    1.3769   -1.4487 N   0  0  0  0  0  0  0  0  0  0  0  0
  -10.7502    0.5588   -4.4643 C   0  0  0  0  0  0  0  0  0  0  0  0
  -11.7786    0.7291   -4.9456 N   0  0  0  0  0  0  0  0  0  0  0  0
   -9.1501   -1.4091   -9.3899 C   0  0  0  0  0  0  0  0  0  0  0  0
   -9.9671   -2.6946   -9.6391 C   0  0  0  0  0  0  0  0  0  0  0  0
   -9.7924   -2.9523  -11.1184 C   0  0  0  0  0  0  0  0  0  0  0  0
   -8.5434   -3.3557  -11.3131 C   0  0  0  0  0  0  0  0  0  0  0  0
   -7.8528   -3.3775   -9.9685 C   0  0  0  0  0  0  0  0  0  0  0  0
   -9.0335   -3.7717   -9.0717 C   0  0  0  0  0  0  0  0  0  0  0  0
   -7.6791   -1.8842   -9.6182 C   0  0  0  0  0  0  0  0  0  0  0  0
   -5.5988   -0.2524   -1.7223 C   0  0  0  0  0  0  0  0  0  0  0  0
   -4.4117    0.2324   -2.2673 C   0  0  0  0  0  0  0  0  0  0  0  0
   -4.4199    0.8417   -3.4587 F   0  0  0  0  0  0  0  0  0  0  0  0
   -3.2021    0.2374   -1.5689 C   0  0  0  0  0  0  0  0  0  0  0  0
   -2.1465    0.8203   -2.1705 F   0  0  0  0  0  0  0  0  0  0  0  0
   -3.0624   -0.2307   -0.2643 C   0  0  0  0  0  0  0  0  0  0  0  0
   -4.2691   -0.6462    0.3562 C   0  0  0  0  0  0  0  0  0  0  0  0
   -5.5111   -0.6630   -0.3639 C   0  0  0  0  0  0  0  0  0  0  0  0
   -6.5139   -1.1082    0.3854 N   0  0  0  0  0  0  0  0  0  0  0  0
   -5.9547   -1.4558    1.8530 S   0  0  0  0  0  0  0  0  0  0  0  0
   -4.4075   -1.0784    1.6060 N   0  0  0  0  0  0  0  0  0  0  0  0
   -1.8222   -0.2410    0.4415 C   0  0  0  0  0  0  0  0  0  0  0  0
   -0.5429   -0.4598   -0.0695 C   0  0  0  0  0  0  0  0  0  0  0  0
   -0.2734   -0.9445   -1.3270 N   0  0  0  0  0  0  0  0  0  0  0  0
   -1.1455   -1.8703   -1.9244 C   0  0  0  0  0  0  0  0  0  0  0  0
   -1.7711   -2.8496   -1.1508 C   0  0  0  0  0  0  0  0  0  0  0  0
   -2.6461   -3.7362   -1.7327 C   0  0  0  0  0  0  0  0  0  0  0  0
   -2.9121   -3.6763   -3.1010 C   0  0  0  0  0  0  0  0  0  0  0  0
   -4.0378   -4.8746   -3.7279 S   0  0  0  0  0  0  0  0  0  0  0  0
   -4.3144   -4.3433   -5.4390 C   0  0  0  0  0  0  0  0  0  0  0  0
   -2.2736   -2.7184   -3.8772 C   0  0  0  0  0  0  0  0  0  0  0  0
   -1.4025   -1.8213   -3.2907 C   0  0  0  0  0  0  0  0  0  0  0  0
    0.9307   -0.5913   -1.9456 C   0  0  0  0  0  0  0  0  0  0  0  0
    1.4243    0.7084   -1.8156 C   0  0  0  0  0  0  0  0  0  0  0  0
    2.6338    1.0493   -2.3744 C   0  0  0  0  0  0  0  0  0  0  0  0
    3.3749    0.1058   -3.0844 C   0  0  0  0  0  0  0  0  0  0  0  0
    4.9202    0.6550   -3.7308 S   0  0  0  0  0  0  0  0  0  0  0  0
    5.5944   -0.8074   -4.5695 C   0  0  0  0  0  0  0  0  0  0  0  0
    2.8720   -1.1794   -3.2427 C   0  0  0  0  0  0  0  0  0  0  0  0
    1.6610   -1.5242   -2.6758 C   0  0  0  0  0  0  0  0  0  0  0  0
    0.4370   -0.2591    0.9348 C   0  0  0  0  0  0  0  0  0  0  0  0
    2.1646   -0.3076    0.9582 S   0  0  0  0  0  0  0  0  0  0  0  0
    2.1602    0.0308    2.6744 C   0  0  0  0  0  0  0  0  0  0  0  0
    0.8867    0.2412    3.1873 C   0  0  0  0  0  0  0  0  0  0  0  0
    0.5872    0.6842    4.4608 N   0  0  0  0  0  0  0  0  0  0  0  0
   -0.6340    0.2881    5.0272 C   0  0  0  0  0  0  0  0  0  0  0  0
   -1.0887   -1.0160    4.8524 C   0  0  0  0  0  0  0  0  0  0  0  0
   -2.3372   -1.3920    5.3046 C   0  0  0  0  0  0  0  0  0  0  0  0
   -3.1495   -0.4647    5.9424 C   0  0  0  0  0  0  0  0  0  0  0  0
   -4.7897   -0.8266    6.4830 S   0  0  0  0  0  0  0  0  0  0  0  0
   -5.2230   -2.2892    5.4955 C   0  0  0  0  0  0  0  0  0  0  0  0
   -2.6686    0.8212    6.1818 C   0  0  0  0  0  0  0  0  0  0  0  0
   -1.4235    1.1973    5.7295 C   0  0  0  0  0  0  0  0  0  0  0  0
    1.4630    1.5248    5.1576 C   0  0  0  0  0  0  0  0  0  0  0  0
    1.6651    1.3483    6.5235 C   0  0  0  0  0  0  0  0  0  0  0  0
    2.6311    2.0737    7.1938 C   0  0  0  0  0  0  0  0  0  0  0  0
    3.4160    2.9869    6.5042 C   0  0  0  0  0  0  0  0  0  0  0  0
    4.7653    3.8722    7.2217 S   0  0  0  0  0  0  0  0  0  0  0  0
    4.8905    3.1819    8.8985 C   0  0  0  0  0  0  0  0  0  0  0  0
    3.1616    3.2276    5.1547 C   0  0  0  0  0  0  0  0  0  0  0  0
    2.1896    2.5147    4.4909 C   0  0  0  0  0  0  0  0  0  0  0  0
   -0.0922    0.0446    2.1797 C   0  0  0  0  0  0  0  0  0  0  0  0
   -1.8217    0.0772    2.1654 S   0  0  0  0  0  0  0  0  0  0  0  0
    3.4118    0.1794    3.3716 C   0  0  0  0  0  0  0  0  0  0  0  0
    3.6230   -0.2782    4.6607 C   0  0  0  0  0  0  0  0  0  0  0  0
    2.7031   -1.0716    5.2405 F   0  0  0  0  0  0  0  0  0  0  0  0
    4.7580    0.0695    5.4084 C   0  0  0  0  0  0  0  0  0  0  0  0
    4.8257   -0.3621    6.6809 F   0  0  0  0  0  0  0  0  0  0  0  0
    5.7883    0.8427    4.9108 C   0  0  0  0  0  0  0  0  0  0  0  0
    5.6402    1.2724    3.5696 C   0  0  0  0  0  0  0  0  0  0  0  0
    4.4745    0.9257    2.8048 C   0  0  0  0  0  0  0  0  0  0  0  0
    4.4918    1.4667    1.5896 N   0  0  0  0  0  0  0  0  0  0  0  0
    5.8398    2.3210    1.4239 S   0  0  0  0  0  0  0  0  0  0  0  0
    6.4595    2.0688    2.8859 N   0  0  0  0  0  0  0  0  0  0  0  0
    6.8770    1.2985    5.7499 C   0  0  0  0  0  0  0  0  0  0  0  0
    8.1604    1.4380    5.3839 C   0  0  0  0  0  0  0  0  0  0  0  0
    8.6509    0.8787    4.1077 C   0  0  0  0  0  0  0  0  0  0  0  0
    8.1087   -0.0202    3.5089 O   0  0  0  0  0  0  0  0  0  0  0  0
    9.7980    1.4832    3.5901 N   0  0  0  0  0  0  0  0  0  0  0  0
   10.0703    1.3008    2.1679 C   0  0  0  0  0  0  0  0  0  0  0  0
   10.9029    0.0494    1.9220 C   0  0  0  0  0  0  0  0  0  0  0  0
   10.7464    2.1130    4.3495 C   0  0  0  0  0  0  0  0  0  0  0  0
   11.6755    2.7234    3.8848 O   0  0  0  0  0  0  0  0  0  0  0  0
   10.5590    1.9019    5.8522 C   0  0  0  0  0  0  0  0  0  0  0  0
   10.8867    0.5237    6.1309 C   0  0  0  0  0  0  0  0  0  0  0  0
   11.1324   -0.5718    6.3423 N   0  0  0  0  0  0  0  0  0  0  0  0
    9.1131    2.2080    6.2587 C   0  0  0  0  0  0  0  0  0  0  0  0
    8.8338    3.7092    6.1199 C   0  0  0  0  0  0  0  0  0  0  0  0
   -7.7039   -0.1235   -1.6785 H   0  0  0  0  0  0  0  0  0  0  0  0
   -5.4659   -1.8674   -7.2921 H   0  0  0  0  0  0  0  0  0  0  0  0
  -10.2440   -0.3297   -6.6211 H   0  0  0  0  0  0  0  0  0  0  0  0
   -9.5163   -0.5554   -9.9566 H   0  0  0  0  0  0  0  0  0  0  0  0
  -10.9863   -2.6658   -9.2641 H   0  0  0  0  0  0  0  0  0  0  0  0
  -10.5533   -2.7672  -11.8534 H   0  0  0  0  0  0  0  0  0  0  0  0
   -8.0524   -3.5747  -12.2431 H   0  0  0  0  0  0  0  0  0  0  0  0
   -6.9459   -3.9718   -9.8940 H   0  0  0  0  0  0  0  0  0  0  0  0
   -8.8353   -3.6706   -8.0062 H   0  0  0  0  0  0  0  0  0  0  0  0
   -9.3915   -4.7783   -9.2816 H   0  0  0  0  0  0  0  0  0  0  0  0
   -7.0639   -1.3465  -10.3372 H   0  0  0  0  0  0  0  0  0  0  0  0
   -1.5657   -2.9119   -0.0924 H   0  0  0  0  0  0  0  0  0  0  0  0
   -3.1302   -4.4951   -1.1370 H   0  0  0  0  0  0  0  0  0  0  0  0
   -5.1344   -4.9492   -5.8120 H   0  0  0  0  0  0  0  0  0  0  0  0
   -4.5923   -3.2937   -5.4282 H   0  0  0  0  0  0  0  0  0  0  0  0
   -3.4225   -4.5190   -6.0341 H   0  0  0  0  0  0  0  0  0  0  0  0
   -2.4575   -2.6449   -4.9351 H   0  0  0  0  0  0  0  0  0  0  0  0
   -0.9257   -1.0624   -3.8925 H   0  0  0  0  0  0  0  0  0  0  0  0
    0.8440    1.4471   -1.2848 H   0  0  0  0  0  0  0  0  0  0  0  0
    3.0202    2.0511   -2.2705 H   0  0  0  0  0  0  0  0  0  0  0  0
    4.9327   -1.1126   -5.3748 H   0  0  0  0  0  0  0  0  0  0  0  0
    6.5502   -0.4944   -4.9781 H   0  0  0  0  0  0  0  0  0  0  0  0
    5.7447   -1.6098   -3.8533 H   0  0  0  0  0  0  0  0  0  0  0  0
    3.4179   -1.9281   -3.7934 H   0  0  0  0  0  0  0  0  0  0  0  0
    1.2837   -2.5299   -2.7869 H   0  0  0  0  0  0  0  0  0  0  0  0
   -0.4554   -1.7373    4.3582 H   0  0  0  0  0  0  0  0  0  0  0  0
   -2.6639   -2.4075    5.1527 H   0  0  0  0  0  0  0  0  0  0  0  0
   -4.7430   -3.1747    5.9012 H   0  0  0  0  0  0  0  0  0  0  0  0
   -4.9339   -2.1200    4.4620 H   0  0  0  0  0  0  0  0  0  0  0  0
   -6.3008   -2.3907    5.5723 H   0  0  0  0  0  0  0  0  0  0  0  0
   -3.2956    1.5273    6.7037 H   0  0  0  0  0  0  0  0  0  0  0  0
   -1.0657    2.2032    5.8911 H   0  0  0  0  0  0  0  0  0  0  0  0
    1.0884    0.6056    7.0533 H   0  0  0  0  0  0  0  0  0  0  0  0
    2.7765    1.8917    8.2457 H   0  0  0  0  0  0  0  0  0  0  0  0
    5.0125    2.1032    8.8498 H   0  0  0  0  0  0  0  0  0  0  0  0
    4.0125    3.4518    9.4782 H   0  0  0  0  0  0  0  0  0  0  0  0
    5.7725    3.6368    9.3384 H   0  0  0  0  0  0  0  0  0  0  0  0
    3.7429    3.9744    4.6352 H   0  0  0  0  0  0  0  0  0  0  0  0
    2.0042    2.7028    3.4440 H   0  0  0  0  0  0  0  0  0  0  0  0
    6.5877    1.6075    6.7471 H   0  0  0  0  0  0  0  0  0  0  0  0
   10.6032    2.1906    1.8266 H   0  0  0  0  0  0  0  0  0  0  0  0
    9.1068    1.2248    1.6617 H   0  0  0  0  0  0  0  0  0  0  0  0
   11.0883   -0.0629    0.8574 H   0  0  0  0  0  0  0  0  0  0  0  0
   10.3723   -0.8281    2.2826 H   0  0  0  0  0  0  0  0  0  0  0  0
   11.8576    0.1232    2.4380 H   0  0  0  0  0  0  0  0  0  0  0  0
   11.2673    2.5470    6.3830 H   0  0  0  0  0  0  0  0  0  0  0  0
    8.9639    1.9150    7.3043 H   0  0  0  0  0  0  0  0  0  0  0  0
    7.8067    3.9268    6.4023 H   0  0  0  0  0  0  0  0  0  0  0  0
    8.9805    4.0308    5.0911 H   0  0  0  0  0  0  0  0  0  0  0  0
    9.5020    4.2805    6.7608 H   0  0  0  0  0  0  0  0  0  0  0  0
  1  2  2  0  0  0  0
  2  3  1  0  0  0  0
  3  4  2  0  0  0  0
  3  5  1  0  0  0  0
  5  6  2  0  0  0  0
  6  7  1  0  0  0  0
  7  8  2  0  0  0  0
  8  9  1  0  0  0  0
  9 10  2  0  0  0  0
 10 11  1  0  0  0  0
 11 12  2  0  0  0  0
 12 13  1  0  0  0  0
 13 14  3  0  0  0  0
 12 15  1  0  0  0  0
 15 16  3  0  0  0  0
  8 17  1  0  0  0  0
 17 18  1  0  0  0  0
 18 19  1  0  0  0  0
 19 20  2  0  0  0  0
 20 21  1  0  0  0  0
 21 22  1  0  0  0  0
 21 23  1  0  0  0  0
  1 24  1  0  0  0  0
 24 25  2  0  0  0  0
 25 26  1  0  0  0  0
 25 27  1  0  0  0  0
 27 28  1  0  0  0  0
 27 29  2  0  0  0  0
 29 30  1  0  0  0  0
 30 31  1  0  0  0  0
 31 32  2  0  0  0  0
 32 33  1  0  0  0  0
 33 34  1  0  0  0  0
 29 35  1  0  0  0  0
 35 36  2  0  0  0  0
 36 37  1  0  0  0  0
 37 38  1  0  0  0  0
 38 39  2  0  0  0  0
 39 40  1  0  0  0  0
 40 41  2  0  0  0  0
 41 42  1  0  0  0  0
 42 43  1  0  0  0  0
 41 44  1  0  0  0  0
 44 45  2  0  0  0  0
 37 46  1  0  0  0  0
 46 47  2  0  0  0  0
 47 48  1  0  0  0  0
 48 49  2  0  0  0  0
 49 50  1  0  0  0  0
 50 51  1  0  0  0  0
 49 52  1  0  0  0  0
 52 53  2  0  0  0  0
 36 54  1  0  0  0  0
 54 55  1  0  0  0  0
 55 56  1  0  0  0  0
 56 57  2  0  0  0  0
 57 58  1  0  0  0  0
 58 59  1  0  0  0  0
 59 60  2  0  0  0  0
 60 61  1  0  0  0  0
 61 62  2  0  0  0  0
 62 63  1  0  0  0  0
 63 64  1  0  0  0  0
 62 65  1  0  0  0  0
 65 66  2  0  0  0  0
 58 67  1  0  0  0  0
 67 68  2  0  0  0  0
 68 69  1  0  0  0  0
 69 70  2  0  0  0  0
 70 71  1  0  0  0  0
 71 72  1  0  0  0  0
 70 73  1  0  0  0  0
 73 74  2  0  0  0  0
 57 75  1  0  0  0  0
 75 76  1  0  0  0  0
 56 77  1  0  0  0  0
 77 78  2  0  0  0  0
 78 79  1  0  0  0  0
 78 80  1  0  0  0  0
 80 81  1  0  0  0  0
 80 82  2  0  0  0  0
 82 83  1  0  0  0  0
 83 84  1  0  0  0  0
 84 85  2  0  0  0  0
 85 86  1  0  0  0  0
 86 87  1  0  0  0  0
 82 88  1  0  0  0  0
 88 89  2  0  0  0  0
 89 90  1  0  0  0  0
 90 91  2  0  0  0  0
 90 92  1  0  0  0  0
 92 93  1  0  0  0  0
 93 94  1  0  0  0  0
 92 95  1  0  0  0  0
 95 96  2  0  0  0  0
 95 97  1  0  0  0  0
 97 98  1  0  0  0  0
 98 99  3  0  0  0  0
 97100  1  0  0  0  0
100101  1  0  0  0  0
 11  2  1  0  0  0  0
 23 17  1  0  0  0  0
 31 24  1  0  0  0  0
 76 35  1  0  0  0  0
 84 77  1  0  0  0  0
100 89  1  0  0  0  0
 10  5  1  0  0  0  0
 22 18  1  0  0  0  0
 34 30  2  0  0  0  0
 45 38  1  0  0  0  0
 53 46  1  0  0  0  0
 75 54  2  0  0  0  0
 87 83  2  0  0  0  0
 23  7  1  0  0  0  0
 66 59  1  0  0  0  0
 74 67  1  0  0  0  0
  1102  1  0  0  0  0
  6103  1  0  0  0  0
  9104  1  0  0  0  0
 17105  1  0  0  0  0
 18106  1  0  0  0  0
 19107  1  0  0  0  0
 20108  1  0  0  0  0
 21109  1  0  0  0  0
 22110  1  0  0  0  0
 22111  1  0  0  0  0
 23112  1  0  0  0  0
 39113  1  0  0  0  0
 40114  1  0  0  0  0
 43115  1  0  0  0  0
 43116  1  0  0  0  0
 43117  1  0  0  0  0
 44118  1  0  0  0  0
 45119  1  0  0  0  0
 47120  1  0  0  0  0
 48121  1  0  0  0  0
 51122  1  0  0  0  0
 51123  1  0  0  0  0
 51124  1  0  0  0  0
 52125  1  0  0  0  0
 53126  1  0  0  0  0
 60127  1  0  0  0  0
 61128  1  0  0  0  0
 64129  1  0  0  0  0
 64130  1  0  0  0  0
 64131  1  0  0  0  0
 65132  1  0  0  0  0
 66133  1  0  0  0  0
 68134  1  0  0  0  0
 69135  1  0  0  0  0
 72136  1  0  0  0  0
 72137  1  0  0  0  0
 72138  1  0  0  0  0
 73139  1  0  0  0  0
 74140  1  0  0  0  0
 88141  1  0  0  0  0
 93142  1  0  0  0  0
 93143  1  0  0  0  0
 94144  1  0  0  0  0
 94145  1  0  0  0  0
 94146  1  0  0  0  0
 97147  1  0  0  0  0
100148  1  0  0  0  0
101149  1  0  0  0  0
101150  1  0  0  0  0
101151  1  0  0  0  0
M  END
