182

C          1.00720       -2.64210        7.29670
C          1.25690       -1.30950        7.29120
C          0.90720       -0.41120        6.15070
O          0.43110       -0.71650        5.07840
C          1.16030        0.95510        6.62950
C          0.96120        2.12930        5.90610
C          1.28610        3.27070        6.59610
C          1.75920        3.24730        7.91630
C          1.95160        2.09660        8.64330
C          1.63640        0.91870        7.95560
C          1.71000       -0.47250        8.38970
C          2.17550       -0.91510        9.59930
C          2.63760       -0.07690       10.63530
N          3.02280        0.54450       11.52070
C          2.26270       -2.27080        9.97950
N          2.36160       -3.35020       10.35910
C          1.86290        4.75100        7.98830
C          0.74270        5.48510        8.75540
C          0.83650        6.90940        8.25670
C          0.39510        6.92900        7.00540
C         -0.00450        5.51910        6.63620
C         -0.50890        5.02350        7.99760
C          1.34210        4.77470        6.51530
C          0.67100       -3.35140        6.08470
C         -0.49760       -4.12220        5.97340
C         -1.41600       -4.46900        7.00570
C         -2.52310       -5.10390        6.56200
C         -3.65640       -5.66170        7.34970
C         -3.72430       -7.18410        7.22000
S         -2.51960       -5.27200        4.82060
C         -0.96040       -4.51710        4.69710
C         -0.28070       -4.22520        3.51690
C          1.01530       -3.68390        3.66940
C          1.44340       -3.23160        4.92930
S          3.03720       -2.54750        4.84990
C          3.14650       -2.90920        3.14560
C          4.40000       -2.60010        2.40350
C          5.54740       -3.51030        2.84470
C          2.01920       -3.48970        2.67680
C         -0.88520       -4.25820        2.20530
S         -0.55350       -2.86090        1.21050
C         -1.61770       -3.40120       -0.05820
C         -2.17510       -4.61430        0.26110
C         -3.09720       -5.46660       -0.41660
C         -3.44690       -6.58310        0.25360
C         -4.35370       -7.66890       -0.21950
C         -5.24570       -8.20280        0.89550
Se        -2.61250       -6.70280        1.96890
C         -1.78130       -5.07320        1.56150
C         -1.80190       -2.46460       -1.13570
C         -2.22250       -1.16700       -0.90570
N         -2.81120       -0.78370        0.29500
C         -3.70880       -1.70510        0.86670
C         -3.65070       -2.05980        2.21060
C         -4.49180       -3.03360        2.71750
C         -5.40310       -3.66870        1.88630
S         -6.51880       -4.93650        2.39770
C         -6.07140       -5.26530        4.12320
C         -5.48260       -3.29700        0.54590
C         -4.65070       -2.32450        0.04400
C         -2.36100        0.34050        0.98560
C         -3.20170        0.99820        1.88520
C         -2.75350        2.10190        2.57390
C         -1.46180        2.58350        2.37490
S         -0.99230        3.99680        3.33110
C          0.58460        4.51840        2.59590
C         -0.62460        1.94090        1.47630
C         -1.07200        0.82860        0.78980
C         -2.03600       -0.35870       -2.04710
S         -2.32580        1.30130       -2.39370
C         -1.59350        1.11240       -3.99550
C         -1.26840       -0.23170       -4.27320
N         -0.88690       -0.73640       -5.48230
C         -1.14710       -0.07360       -6.69010
C         -0.15370        0.00450       -7.66330
C         -0.35960        0.72460       -8.82480
C         -1.56930        1.37270       -9.03470
S         -1.91200        2.38870      -10.43080
C         -0.26800        2.71790      -11.12710
C         -2.59470        1.22880       -8.09690
C         -2.38660        0.51920       -6.93790
C         -0.18090       -1.95560       -5.54640
C          0.90630       -2.19290       -4.71290
C          1.57920       -3.39780       -4.76850
C          1.17090       -4.38080       -5.66050
S          1.93990       -5.96170       -5.80310
C          3.00310       -6.05500       -4.33380
C          0.10370       -4.12870       -6.52160
C         -0.56680       -2.92720       -6.46780
C         -1.49440       -1.03820       -3.13200
S         -1.26240       -2.72350       -2.77640
C         -1.42130        2.27900       -4.74940
C         -0.44280        2.48100       -5.69700
C          0.83640        1.75690       -5.70980
O          1.19200        0.86100       -4.96420
C          1.67420        2.43830       -6.71810
C          2.98720        2.13060       -7.06210
C          3.52390        2.95820       -8.01980
C          2.81100        4.02140       -8.58610
C          1.51280        4.33550       -8.25490
C          0.94650        3.49950       -7.28880
C         -0.39010        3.51430       -6.69520
C         -1.45210        4.27360       -7.12050
C         -1.38620        5.20910       -8.17000
N         -1.37920        5.98230       -9.01960
C         -2.75540        4.15680       -6.59820
N         -3.84160        4.09320       -6.23020
C          3.97560        4.45090       -9.44490
C          4.76720        5.68420       -8.96130
C          6.08730        5.57640       -9.69010
C          6.76210        4.56670       -9.15560
C          5.90930        3.97520       -8.05660
C          5.20450        5.24360       -7.55830
C          4.77000        3.26190       -8.81500
H          1.00610       -3.20100        8.22290
H          0.57920        2.09620        4.89840
H          2.31270        2.09710        9.65830
H          2.85390        5.14870        8.19920
H          0.75970        5.34190        9.83240
H          1.25190        7.71860        8.82840
H          0.36710        7.75910        6.32390
H         -0.66630        5.39900        5.78330
H         -0.68520        3.95050        8.03990
H         -1.40370        5.55230        8.32090
H          1.98910        5.18550        5.74240
H         -1.23260       -4.26200        8.04510
H         -4.59680       -5.23130        6.99450
H         -3.52660       -5.38320        8.39730
H         -3.85700       -7.46930        6.17860
H         -2.80550       -7.63550        7.58700
H         -4.55820       -7.57400        7.79760
H          4.68080       -1.55900        2.58210
H          4.21530       -2.72660        1.33470
H          6.45280       -3.26930        2.29350
H          5.74160       -3.38250        3.90700
H          5.29520       -4.55250        2.66250
H          1.91320       -3.80900        1.65550
H         -3.47390       -5.22220       -1.39550
H         -4.96420       -7.28200       -1.03860
H         -3.74540       -8.48890       -0.61690
H         -4.63040       -8.59970        1.70610
H         -5.88480       -9.00010        0.52490
H         -5.87100       -7.40630        1.29240
H         -2.92770       -1.58720        2.85970
H         -4.41080       -3.29730        3.75950
H         -6.73650       -6.05760        4.45260
H         -5.03950       -5.60050        4.17180
H         -6.23120       -4.37490        4.72440
H         -6.20590       -3.78210       -0.09150
H         -4.71390       -2.04410       -0.99690
H         -4.20830        0.63850        2.03600
H         -3.40210        2.60950        3.27170
H          1.36150        3.78920        2.80890
H          0.45950        4.66030        1.52660
H          0.83010        5.46460        3.06820
H          0.38410        2.28260        1.30740
H         -0.40290        0.32300        0.10940
H          0.79210       -0.48950       -7.49820
H          0.43600        0.78360       -9.54980
H          0.40170        3.05120      -10.33910
H          0.11680        1.83350      -11.62700
H         -0.41460        3.51560      -11.84850
H         -3.54780        1.69830       -8.28430
H         -3.18040        0.43340       -6.21180
H          1.23560       -1.41310       -4.04460
H          2.42400       -3.55260       -4.11730
H          2.41420       -5.84870       -3.44510
H          3.37370       -7.07500       -4.30480
H          3.83680       -5.36500       -4.42630
H         -0.19650       -4.89160       -7.22310
H         -1.39910       -2.73690       -7.12900
H         -2.08240        3.10120       -4.50220
H          3.50460        1.30670       -6.59560
H          0.97910        5.16570       -8.68810
H          3.80250        4.45130      -10.51970
H          4.23620        6.62830       -9.04750
H          6.36200        6.19000      -10.52790
H          7.71300        4.16820       -9.45750
H          6.41870        3.36210       -7.31790
H          5.89860        5.94840       -7.10340
H          4.37900        5.05340       -6.87490
H          5.12580        2.46850       -9.47010
