
  xtb     02052213073D
 energy: -387.460566707327 gnorm: 0.000401877720 xtb: 6.4.1 (unknown)
234257  0     0  0            999 V2000
   -4.3198    6.1784   -0.9233 C   0  0  0  0  0  0  0  0  0  0  0  0
   -5.0513    6.6646    0.1201 C   0  0  0  0  0  0  0  0  0  0  0  0
   -5.8234    7.9274   -0.0183 C   0  0  0  0  0  0  0  0  0  0  0  0
   -5.7519    8.7171   -0.9346 O   0  0  0  0  0  0  0  0  0  0  0  0
   -6.7020    7.9841    1.1676 C   0  0  0  0  0  0  0  0  0  0  0  0
   -7.7099    8.9051    1.4428 C   0  0  0  0  0  0  0  0  0  0  0  0
   -8.3784    8.6676    2.6209 C   0  0  0  0  0  0  0  0  0  0  0  0
   -8.0941    7.5756    3.4521 C   0  0  0  0  0  0  0  0  0  0  0  0
   -7.1002    6.6607    3.1981 C   0  0  0  0  0  0  0  0  0  0  0  0
   -6.3860    6.9106    2.0258 C   0  0  0  0  0  0  0  0  0  0  0  0
   -5.2482    6.1877    1.4669 C   0  0  0  0  0  0  0  0  0  0  0  0
   -4.3649    5.4570    2.2226 C   0  0  0  0  0  0  0  0  0  0  0  0
   -3.1686    4.8835    1.7574 C   0  0  0  0  0  0  0  0  0  0  0  0
   -2.1568    4.4150    1.4771 N   0  0  0  0  0  0  0  0  0  0  0  0
   -4.4479    5.3575    3.6239 C   0  0  0  0  0  0  0  0  0  0  0  0
   -4.3994    5.2955    4.7704 N   0  0  0  0  0  0  0  0  0  0  0  0
   -9.1665    7.9479    4.4440 C   0  0  0  0  0  0  0  0  0  0  0  0
   -8.7141    8.6072    5.7698 C   0  0  0  0  0  0  0  0  0  0  0  0
   -7.4006    9.2897    5.4783 C   0  0  0  0  0  0  0  0  0  0  0  0
   -7.6523   10.3338    4.6999 C   0  0  0  0  0  0  0  0  0  0  0  0
   -9.1398   10.3759    4.4514 C   0  0  0  0  0  0  0  0  0  0  0  0
   -9.6533    9.8235    5.7907 C   0  0  0  0  0  0  0  0  0  0  0  0
   -9.4707    9.1757    3.5286 C   0  0  0  0  0  0  0  0  0  0  0  0
   -3.8570    4.8535   -1.0657 C   0  0  0  0  0  0  0  0  0  0  0  0
   -2.6819    4.3878   -1.6653 C   0  0  0  0  0  0  0  0  0  0  0  0
   -1.7092    5.1465   -2.2633 N   0  0  0  0  0  0  0  0  0  0  0  0
   -2.0098    6.2574   -3.0567 C   0  0  0  0  0  0  0  0  0  0  0  0
   -1.1547    7.3559   -3.0734 C   0  0  0  0  0  0  0  0  0  0  0  0
   -1.4338    8.4533   -3.8633 C   0  0  0  0  0  0  0  0  0  0  0  0
   -2.5788    8.4734   -4.6508 C   0  0  0  0  0  0  0  0  0  0  0  0
   -3.0353    9.8098   -5.7035 S   0  0  0  0  0  0  0  0  0  0  0  0
   -1.8568   11.1232   -5.2782 C   0  0  0  0  0  0  0  0  0  0  0  0
   -3.4328    7.3711   -4.6432 C   0  0  0  0  0  0  0  0  0  0  0  0
   -3.1528    6.2751   -3.8593 C   0  0  0  0  0  0  0  0  0  0  0  0
   -0.3710    4.7166   -2.1299 C   0  0  0  0  0  0  0  0  0  0  0  0
    0.1025    4.3177   -0.8825 C   0  0  0  0  0  0  0  0  0  0  0  0
    1.3611    3.7648   -0.7571 C   0  0  0  0  0  0  0  0  0  0  0  0
    2.1661    3.6104   -1.8783 C   0  0  0  0  0  0  0  0  0  0  0  0
    3.7460    2.8235   -1.8330 S   0  0  0  0  0  0  0  0  0  0  0  0
    3.6696    1.8359   -0.3109 C   0  0  0  0  0  0  0  0  0  0  0  0
    1.7245    4.0865   -3.1117 C   0  0  0  0  0  0  0  0  0  0  0  0
    0.4663    4.6336   -3.2405 C   0  0  0  0  0  0  0  0  0  0  0  0
   -2.5379    2.9947   -1.4475 C   0  0  0  0  0  0  0  0  0  0  0  0
   -1.3007    1.8517   -1.8155 S   0  0  0  0  0  0  0  0  0  0  0  0
   -2.2025    0.5725   -1.0118 C   0  0  0  0  0  0  0  0  0  0  0  0
   -3.4292    1.0035   -0.5507 C   0  0  0  0  0  0  0  0  0  0  0  0
   -4.3743    0.2339    0.1217 N   0  0  0  0  0  0  0  0  0  0  0  0
   -5.0149   -0.8331   -0.5187 C   0  0  0  0  0  0  0  0  0  0  0  0
   -5.0519   -0.9340   -1.9049 C   0  0  0  0  0  0  0  0  0  0  0  0
   -5.7591   -1.9475   -2.5222 C   0  0  0  0  0  0  0  0  0  0  0  0
   -6.4524   -2.8730   -1.7582 C   0  0  0  0  0  0  0  0  0  0  0  0
   -7.4549   -4.1593   -2.4346 S   0  0  0  0  0  0  0  0  0  0  0  0
   -7.1730   -4.0444   -4.2244 C   0  0  0  0  0  0  0  0  0  0  0  0
   -6.3957   -2.7965   -0.3689 C   0  0  0  0  0  0  0  0  0  0  0  0
   -5.6784   -1.7953    0.2443 C   0  0  0  0  0  0  0  0  0  0  0  0
   -5.0177    0.8713    1.2045 C   0  0  0  0  0  0  0  0  0  0  0  0
   -4.2498    1.4361    2.2188 C   0  0  0  0  0  0  0  0  0  0  0  0
   -4.8531    2.0770    3.2841 C   0  0  0  0  0  0  0  0  0  0  0  0
   -6.2377    2.1664    3.3451 C   0  0  0  0  0  0  0  0  0  0  0  0
   -7.1102    2.9691    4.6543 S   0  0  0  0  0  0  0  0  0  0  0  0
   -5.9504    2.8787    6.0493 C   0  0  0  0  0  0  0  0  0  0  0  0
   -7.0074    1.6204    2.3207 C   0  0  0  0  0  0  0  0  0  0  0  0
   -6.4064    0.9789    1.2616 C   0  0  0  0  0  0  0  0  0  0  0  0
   -3.5956    2.3939   -0.7908 C   0  0  0  0  0  0  0  0  0  0  0  0
   -4.8113    3.5401   -0.3650 S   0  0  0  0  0  0  0  0  0  0  0  0
   -1.4274   -0.6019   -0.6894 C   0  0  0  0  0  0  0  0  0  0  0  0
   -1.4798   -1.9203   -1.0546 C   0  0  0  0  0  0  0  0  0  0  0  0
   -2.3951   -2.4988   -1.9600 N   0  0  0  0  0  0  0  0  0  0  0  0
   -3.1057   -3.6175   -1.5254 C   0  0  0  0  0  0  0  0  0  0  0  0
   -3.2491   -3.8752   -0.1608 C   0  0  0  0  0  0  0  0  0  0  0  0
   -4.0020   -4.9407    0.2773 C   0  0  0  0  0  0  0  0  0  0  0  0
   -4.6363   -5.7828   -0.6299 C   0  0  0  0  0  0  0  0  0  0  0  0
   -5.5645   -7.1271    0.0430 S   0  0  0  0  0  0  0  0  0  0  0  0
   -6.5745   -7.6909   -1.3563 C   0  0  0  0  0  0  0  0  0  0  0  0
   -4.5085   -5.5294   -1.9873 C   0  0  0  0  0  0  0  0  0  0  0  0
   -3.7659   -4.4510   -2.4261 C   0  0  0  0  0  0  0  0  0  0  0  0
   -1.9146   -2.4213   -3.2973 C   0  0  0  0  0  0  0  0  0  0  0  0
   -1.3079   -3.5098   -3.9144 C   0  0  0  0  0  0  0  0  0  0  0  0
   -0.8216   -3.4085   -5.2041 C   0  0  0  0  0  0  0  0  0  0  0  0
   -0.9111   -2.2038   -5.8880 C   0  0  0  0  0  0  0  0  0  0  0  0
   -0.3242   -1.9518   -7.5342 S   0  0  0  0  0  0  0  0  0  0  0  0
    0.4269   -3.5438   -7.9808 C   0  0  0  0  0  0  0  0  0  0  0  0
   -1.4911   -1.1030   -5.2611 C   0  0  0  0  0  0  0  0  0  0  0  0
   -1.9884   -1.2117   -3.9804 C   0  0  0  0  0  0  0  0  0  0  0  0
   -0.3880   -2.6518   -0.5121 C   0  0  0  0  0  0  0  0  0  0  0  0
    0.1782   -4.2716   -0.6932 S   0  0  0  0  0  0  0  0  0  0  0  0
    1.5635   -3.9174    0.2946 C   0  0  0  0  0  0  0  0  0  0  0  0
    1.5992   -2.6079    0.7350 C   0  0  0  0  0  0  0  0  0  0  0  0
    2.6356   -2.0395    1.5026 N   0  0  0  0  0  0  0  0  0  0  0  0
    2.4725   -2.0770    2.9062 C   0  0  0  0  0  0  0  0  0  0  0  0
    1.2571   -1.7005    3.4731 C   0  0  0  0  0  0  0  0  0  0  0  0
    1.0745   -1.7655    4.8375 C   0  0  0  0  0  0  0  0  0  0  0  0
    2.0999   -2.2086    5.6673 C   0  0  0  0  0  0  0  0  0  0  0  0
    1.7578   -2.2398    7.3997 S   0  0  0  0  0  0  0  0  0  0  0  0
    3.1795   -3.1213    8.1051 C   0  0  0  0  0  0  0  0  0  0  0  0
    3.3109   -2.5908    5.1062 C   0  0  0  0  0  0  0  0  0  0  0  0
    3.4913   -2.5331    3.7391 C   0  0  0  0  0  0  0  0  0  0  0  0
    3.8614   -1.7585    0.9187 C   0  0  0  0  0  0  0  0  0  0  0  0
    4.8232   -1.0149    1.6130 C   0  0  0  0  0  0  0  0  0  0  0  0
    6.0901   -0.8562    1.1034 C   0  0  0  0  0  0  0  0  0  0  0  0
    6.4322   -1.4213   -0.1205 C   0  0  0  0  0  0  0  0  0  0  0  0
    8.1256   -1.3375   -0.6361 S   0  0  0  0  0  0  0  0  0  0  0  0
    8.2950   -2.8639   -1.6076 C   0  0  0  0  0  0  0  0  0  0  0  0
    5.4429   -2.0134   -0.8883 C   0  0  0  0  0  0  0  0  0  0  0  0
    4.1666   -2.1632   -0.3827 C   0  0  0  0  0  0  0  0  0  0  0  0
    0.4807   -1.8936    0.2554 C   0  0  0  0  0  0  0  0  0  0  0  0
   -0.0234   -0.2459    0.3231 S   0  0  0  0  0  0  0  0  0  0  0  0
    2.6995   -4.8186    0.3686 C   0  0  0  0  0  0  0  0  0  0  0  0
    3.2998   -5.1734    1.5590 C   0  0  0  0  0  0  0  0  0  0  0  0
    2.6432   -4.9959    2.7145 F   0  0  0  0  0  0  0  0  0  0  0  0
    4.5988   -5.6984    1.5993 C   0  0  0  0  0  0  0  0  0  0  0  0
    5.1171   -6.0147    2.7908 F   0  0  0  0  0  0  0  0  0  0  0  0
    5.3279   -5.9144    0.4448 C   0  0  0  0  0  0  0  0  0  0  0  0
    4.6575   -5.7453   -0.7971 C   0  0  0  0  0  0  0  0  0  0  0  0
    5.2993   -6.0338   -1.9415 N   0  0  0  0  0  0  0  0  0  0  0  0
    4.6938   -5.8281   -3.0865 C   0  0  0  0  0  0  0  0  0  0  0  0
    5.4881   -6.1550   -4.3146 C   0  0  0  0  0  0  0  0  0  0  0  0
    6.3051   -4.9359   -4.7514 C   0  0  0  0  0  0  0  0  0  0  0  0
    3.3837   -5.2725   -3.1257 C   0  0  0  0  0  0  0  0  0  0  0  0
    2.7569   -4.9648   -2.0171 N   0  0  0  0  0  0  0  0  0  0  0  0
    3.3531   -5.1972   -0.8366 C   0  0  0  0  0  0  0  0  0  0  0  0
    2.6188   -5.0455   -4.3943 C   0  0  0  0  0  0  0  0  0  0  0  0
    1.8462   -6.3144   -4.7652 C   0  0  0  0  0  0  0  0  0  0  0  0
    6.7397   -6.2263    0.4285 C   0  0  0  0  0  0  0  0  0  0  0  0
    7.6608   -5.5313    1.1312 C   0  0  0  0  0  0  0  0  0  0  0  0
    7.3866   -4.2541    1.8572 C   0  0  0  0  0  0  0  0  0  0  0  0
    6.3083   -3.7557    2.0992 O   0  0  0  0  0  0  0  0  0  0  0  0
    8.7054   -3.6768    2.1496 C   0  0  0  0  0  0  0  0  0  0  0  0
    8.9562   -2.4502    2.7615 C   0  0  0  0  0  0  0  0  0  0  0  0
   10.2900   -2.1547    2.8986 C   0  0  0  0  0  0  0  0  0  0  0  0
   11.3062   -3.0191    2.4644 C   0  0  0  0  0  0  0  0  0  0  0  0
   11.0747   -4.2320    1.8624 C   0  0  0  0  0  0  0  0  0  0  0  0
    9.7214   -4.5513    1.7076 C   0  0  0  0  0  0  0  0  0  0  0  0
    9.1041   -5.7327    1.1220 C   0  0  0  0  0  0  0  0  0  0  0  0
    9.7500   -6.8584    0.6901 C   0  0  0  0  0  0  0  0  0  0  0  0
   11.1498   -7.0361    0.7149 C   0  0  0  0  0  0  0  0  0  0  0  0
   12.2787   -7.2431    0.6997 N   0  0  0  0  0  0  0  0  0  0  0  0
    9.1079   -8.0092    0.1826 C   0  0  0  0  0  0  0  0  0  0  0  0
    8.6618   -8.9823   -0.2318 N   0  0  0  0  0  0  0  0  0  0  0  0
   12.4016   -2.0895    2.9220 C   0  0  0  0  0  0  0  0  0  0  0  0
   13.1361   -1.2535    1.8452 C   0  0  0  0  0  0  0  0  0  0  0  0
   12.1671   -1.0851    0.7009 C   0  0  0  0  0  0  0  0  0  0  0  0
   11.2022   -0.2682    1.1015 C   0  0  0  0  0  0  0  0  0  0  0  0
   11.5030    0.1326    2.5251 C   0  0  0  0  0  0  0  0  0  0  0  0
   13.0396    0.1396    2.4872 C   0  0  0  0  0  0  0  0  0  0  0  0
   11.2702   -1.1250    3.3992 C   0  0  0  0  0  0  0  0  0  0  0  0
   -4.1335    6.8758   -1.7337 H   0  0  0  0  0  0  0  0  0  0  0  0
   -7.9171    9.7216    0.7688 H   0  0  0  0  0  0  0  0  0  0  0  0
   -6.9019    5.8092    3.8292 H   0  0  0  0  0  0  0  0  0  0  0  0
   -9.9554    7.2131    4.5906 H   0  0  0  0  0  0  0  0  0  0  0  0
   -8.7304    7.9453    6.6314 H   0  0  0  0  0  0  0  0  0  0  0  0
   -6.4476    8.9186    5.8072 H   0  0  0  0  0  0  0  0  0  0  0  0
   -6.9506   11.0114    4.2494 H   0  0  0  0  0  0  0  0  0  0  0  0
   -9.5432   11.3276    4.1149 H   0  0  0  0  0  0  0  0  0  0  0  0
  -10.7092    9.5567    5.7739 H   0  0  0  0  0  0  0  0  0  0  0  0
   -9.4562   10.4939    6.6260 H   0  0  0  0  0  0  0  0  0  0  0  0
  -10.4634    9.2537    3.0891 H   0  0  0  0  0  0  0  0  0  0  0  0
   -0.2674    7.3474   -2.4580 H   0  0  0  0  0  0  0  0  0  0  0  0
   -0.7519    9.2879   -3.8513 H   0  0  0  0  0  0  0  0  0  0  0  0
   -1.9132   11.3354   -4.2147 H   0  0  0  0  0  0  0  0  0  0  0  0
   -0.8514   10.8379   -5.5742 H   0  0  0  0  0  0  0  0  0  0  0  0
   -2.1729   11.9931   -5.8456 H   0  0  0  0  0  0  0  0  0  0  0  0
   -4.3162    7.3876   -5.2624 H   0  0  0  0  0  0  0  0  0  0  0  0
   -3.8130    5.4203   -3.8680 H   0  0  0  0  0  0  0  0  0  0  0  0
   -0.5294    4.4194   -0.0128 H   0  0  0  0  0  0  0  0  0  0  0  0
    1.6972    3.4507    0.2174 H   0  0  0  0  0  0  0  0  0  0  0  0
    2.7316    1.2895   -0.2799 H   0  0  0  0  0  0  0  0  0  0  0  0
    3.7818    2.4730    0.5615 H   0  0  0  0  0  0  0  0  0  0  0  0
    4.5016    1.1401   -0.3637 H   0  0  0  0  0  0  0  0  0  0  0  0
    2.3687    3.9922   -3.9721 H   0  0  0  0  0  0  0  0  0  0  0  0
    0.1133    4.9684   -4.2047 H   0  0  0  0  0  0  0  0  0  0  0  0
   -4.5519   -0.1949   -2.5121 H   0  0  0  0  0  0  0  0  0  0  0  0
   -5.7758   -1.9827   -3.5996 H   0  0  0  0  0  0  0  0  0  0  0  0
   -7.5573   -3.1018   -4.6030 H   0  0  0  0  0  0  0  0  0  0  0  0
   -7.7267   -4.8683   -4.6640 H   0  0  0  0  0  0  0  0  0  0  0  0
   -6.1134   -4.1524   -4.4360 H   0  0  0  0  0  0  0  0  0  0  0  0
   -6.9222   -3.5301    0.2217 H   0  0  0  0  0  0  0  0  0  0  0  0
   -5.6424   -1.7380    1.3214 H   0  0  0  0  0  0  0  0  0  0  0  0
   -3.1722    1.3791    2.1682 H   0  0  0  0  0  0  0  0  0  0  0  0
   -4.2363    2.5069    4.0574 H   0  0  0  0  0  0  0  0  0  0  0  0
   -5.5413    1.8749    6.1075 H   0  0  0  0  0  0  0  0  0  0  0  0
   -6.5386    3.0959    6.9354 H   0  0  0  0  0  0  0  0  0  0  0  0
   -5.1703    3.6261    5.9303 H   0  0  0  0  0  0  0  0  0  0  0  0
   -8.0817    1.7099    2.3663 H   0  0  0  0  0  0  0  0  0  0  0  0
   -7.0093    0.5598    0.4701 H   0  0  0  0  0  0  0  0  0  0  0  0
   -2.7840   -3.2244    0.5636 H   0  0  0  0  0  0  0  0  0  0  0  0
   -4.1094   -5.1299    1.3342 H   0  0  0  0  0  0  0  0  0  0  0  0
   -5.9508   -8.1838   -2.0968 H   0  0  0  0  0  0  0  0  0  0  0  0
   -7.1052   -6.8435   -1.7802 H   0  0  0  0  0  0  0  0  0  0  0  0
   -7.2803   -8.4029   -0.9403 H   0  0  0  0  0  0  0  0  0  0  0  0
   -4.9896   -6.1617   -2.7163 H   0  0  0  0  0  0  0  0  0  0  0  0
   -3.6986   -4.2541   -3.4860 H   0  0  0  0  0  0  0  0  0  0  0  0
   -1.2113   -4.4431   -3.3789 H   0  0  0  0  0  0  0  0  0  0  0  0
   -0.3698   -4.2754   -5.6573 H   0  0  0  0  0  0  0  0  0  0  0  0
    0.8181   -3.4088   -8.9844 H   0  0  0  0  0  0  0  0  0  0  0  0
    1.2381   -3.7754   -7.2967 H   0  0  0  0  0  0  0  0  0  0  0  0
   -0.3270   -4.3258   -7.9834 H   0  0  0  0  0  0  0  0  0  0  0  0
   -1.5473   -0.1650   -5.7918 H   0  0  0  0  0  0  0  0  0  0  0  0
   -2.4306   -0.3549   -3.4987 H   0  0  0  0  0  0  0  0  0  0  0  0
    0.4501   -1.3540    2.8472 H   0  0  0  0  0  0  0  0  0  0  0  0
    0.1323   -1.4730    5.2749 H   0  0  0  0  0  0  0  0  0  0  0  0
    4.0807   -2.5231    8.0046 H   0  0  0  0  0  0  0  0  0  0  0  0
    3.2894   -4.0863    7.6193 H   0  0  0  0  0  0  0  0  0  0  0  0
    2.9463   -3.2597    9.1563 H   0  0  0  0  0  0  0  0  0  0  0  0
    4.1213   -2.9529    5.7176 H   0  0  0  0  0  0  0  0  0  0  0  0
    4.4266   -2.8668    3.3158 H   0  0  0  0  0  0  0  0  0  0  0  0
    4.5738   -0.5795    2.5678 H   0  0  0  0  0  0  0  0  0  0  0  0
    6.8353   -0.3036    1.6546 H   0  0  0  0  0  0  0  0  0  0  0  0
    9.3509   -3.1170   -1.5979 H   0  0  0  0  0  0  0  0  0  0  0  0
    7.9667   -2.6955   -2.6298 H   0  0  0  0  0  0  0  0  0  0  0  0
    7.7133   -3.6533   -1.1391 H   0  0  0  0  0  0  0  0  0  0  0  0
    5.6576   -2.3752   -1.8827 H   0  0  0  0  0  0  0  0  0  0  0  0
    3.4091   -2.6038   -1.0106 H   0  0  0  0  0  0  0  0  0  0  0  0
    4.8348   -6.4757   -5.1252 H   0  0  0  0  0  0  0  0  0  0  0  0
    6.1718   -6.9681   -4.0684 H   0  0  0  0  0  0  0  0  0  0  0  0
    6.9991   -4.6559   -3.9623 H   0  0  0  0  0  0  0  0  0  0  0  0
    6.8746   -5.1687   -5.6475 H   0  0  0  0  0  0  0  0  0  0  0  0
    5.6585   -4.0859   -4.9616 H   0  0  0  0  0  0  0  0  0  0  0  0
    1.9106   -4.2333   -4.2205 H   0  0  0  0  0  0  0  0  0  0  0  0
    3.2919   -4.7651   -5.2050 H   0  0  0  0  0  0  0  0  0  0  0  0
    2.5192   -7.1617   -4.8787 H   0  0  0  0  0  0  0  0  0  0  0  0
    1.1272   -6.5502   -3.9846 H   0  0  0  0  0  0  0  0  0  0  0  0
    1.3128   -6.1745   -5.7027 H   0  0  0  0  0  0  0  0  0  0  0  0
    7.0409   -6.9747   -0.2921 H   0  0  0  0  0  0  0  0  0  0  0  0
    8.1432   -1.8217    3.0877 H   0  0  0  0  0  0  0  0  0  0  0  0
   11.8654   -4.8847    1.5314 H   0  0  0  0  0  0  0  0  0  0  0  0
   13.0799   -2.4903    3.6726 H   0  0  0  0  0  0  0  0  0  0  0  0
   14.1266   -1.6195    1.5884 H   0  0  0  0  0  0  0  0  0  0  0  0
   12.2498   -1.6051   -0.2353 H   0  0  0  0  0  0  0  0  0  0  0  0
   10.3167    0.0227    0.5687 H   0  0  0  0  0  0  0  0  0  0  0  0
   11.0071    1.0299    2.8855 H   0  0  0  0  0  0  0  0  0  0  0  0
   13.4405    0.9252    1.8487 H   0  0  0  0  0  0  0  0  0  0  0  0
   13.4989    0.1963    3.4733 H   0  0  0  0  0  0  0  0  0  0  0  0
   11.2147   -0.8885    4.4601 H   0  0  0  0  0  0  0  0  0  0  0  0
  1  2  2  0  0  0  0
  2  3  1  0  0  0  0
  3  4  2  0  0  0  0
  3  5  1  0  0  0  0
  5  6  2  0  0  0  0
  6  7  1  0  0  0  0
  7  8  2  0  0  0  0
  8  9  1  0  0  0  0
  9 10  2  0  0  0  0
 10 11  1  0  0  0  0
 11 12  2  0  0  0  0
 12 13  1  0  0  0  0
 13 14  3  0  0  0  0
 12 15  1  0  0  0  0
 15 16  3  0  0  0  0
  8 17  1  0  0  0  0
 17 18  1  0  0  0  0
 18 19  1  0  0  0  0
 19 20  2  0  0  0  0
 20 21  1  0  0  0  0
 21 22  1  0  0  0  0
 21 23  1  0  0  0  0
  1 24  1  0  0  0  0
 24 25  2  0  0  0  0
 25 26  1  0  0  0  0
 26 27  1  0  0  0  0
 27 28  2  0  0  0  0
 28 29  1  0  0  0  0
 29 30  2  0  0  0  0
 30 31  1  0  0  0  0
 31 32  1  0  0  0  0
 30 33  1  0  0  0  0
 33 34  2  0  0  0  0
 26 35  1  0  0  0  0
 35 36  2  0  0  0  0
 36 37  1  0  0  0  0
 37 38  2  0  0  0  0
 38 39  1  0  0  0  0
 39 40  1  0  0  0  0
 38 41  1  0  0  0  0
 41 42  2  0  0  0  0
 25 43  1  0  0  0  0
 43 44  1  0  0  0  0
 44 45  1  0  0  0  0
 45 46  2  0  0  0  0
 46 47  1  0  0  0  0
 47 48  1  0  0  0  0
 48 49  2  0  0  0  0
 49 50  1  0  0  0  0
 50 51  2  0  0  0  0
 51 52  1  0  0  0  0
 52 53  1  0  0  0  0
 51 54  1  0  0  0  0
 54 55  2  0  0  0  0
 47 56  1  0  0  0  0
 56 57  2  0  0  0  0
 57 58  1  0  0  0  0
 58 59  2  0  0  0  0
 59 60  1  0  0  0  0
 60 61  1  0  0  0  0
 59 62  1  0  0  0  0
 62 63  2  0  0  0  0
 46 64  1  0  0  0  0
 64 65  1  0  0  0  0
 45 66  1  0  0  0  0
 66 67  2  0  0  0  0
 67 68  1  0  0  0  0
 68 69  1  0  0  0  0
 69 70  2  0  0  0  0
 70 71  1  0  0  0  0
 71 72  2  0  0  0  0
 72 73  1  0  0  0  0
 73 74  1  0  0  0  0
 72 75  1  0  0  0  0
 75 76  2  0  0  0  0
 68 77  1  0  0  0  0
 77 78  2  0  0  0  0
 78 79  1  0  0  0  0
 79 80  2  0  0  0  0
 80 81  1  0  0  0  0
 81 82  1  0  0  0  0
 80 83  1  0  0  0  0
 83 84  2  0  0  0  0
 67 85  1  0  0  0  0
 85 86  1  0  0  0  0
 86 87  1  0  0  0  0
 87 88  2  0  0  0  0
 88 89  1  0  0  0  0
 89 90  1  0  0  0  0
 90 91  2  0  0  0  0
 91 92  1  0  0  0  0
 92 93  2  0  0  0  0
 93 94  1  0  0  0  0
 94 95  1  0  0  0  0
 93 96  1  0  0  0  0
 96 97  2  0  0  0  0
 89 98  1  0  0  0  0
 98 99  2  0  0  0  0
 99100  1  0  0  0  0
100101  2  0  0  0  0
101102  1  0  0  0  0
102103  1  0  0  0  0
101104  1  0  0  0  0
104105  2  0  0  0  0
 88106  1  0  0  0  0
106107  1  0  0  0  0
 87108  1  0  0  0  0
108109  2  0  0  0  0
109110  1  0  0  0  0
109111  1  0  0  0  0
111112  1  0  0  0  0
111113  2  0  0  0  0
113114  1  0  0  0  0
114115  2  0  0  0  0
115116  1  0  0  0  0
116117  1  0  0  0  0
117118  1  0  0  0  0
116119  2  0  0  0  0
119120  1  0  0  0  0
120121  2  0  0  0  0
119122  1  0  0  0  0
122123  1  0  0  0  0
113124  1  0  0  0  0
124125  2  0  0  0  0
125126  1  0  0  0  0
126127  2  0  0  0  0
126128  1  0  0  0  0
128129  2  0  0  0  0
129130  1  0  0  0  0
130131  2  0  0  0  0
131132  1  0  0  0  0
132133  2  0  0  0  0
133134  1  0  0  0  0
134135  2  0  0  0  0
135136  1  0  0  0  0
136137  3  0  0  0  0
135138  1  0  0  0  0
138139  3  0  0  0  0
131140  1  0  0  0  0
140141  1  0  0  0  0
141142  1  0  0  0  0
142143  2  0  0  0  0
143144  1  0  0  0  0
144145  1  0  0  0  0
144146  1  0  0  0  0
 11  2  1  0  0  0  0
 23 17  1  0  0  0  0
 65 24  1  0  0  0  0
107 66  1  0  0  0  0
121108  1  0  0  0  0
134125  1  0  0  0  0
146140  1  0  0  0  0
 10  5  1  0  0  0  0
 22 18  1  0  0  0  0
 34 27  1  0  0  0  0
 42 35  1  0  0  0  0
 64 43  2  0  0  0  0
 76 69  1  0  0  0  0
 84 77  1  0  0  0  0
106 85  2  0  0  0  0
121114  1  0  0  0  0
133128  1  0  0  0  0
145141  1  0  0  0  0
 23  7  1  0  0  0  0
 55 48  1  0  0  0  0
 63 56  1  0  0  0  0
 97 90  1  0  0  0  0
105 98  1  0  0  0  0
146130  1  0  0  0  0
  1147  1  0  0  0  0
  6148  1  0  0  0  0
  9149  1  0  0  0  0
 17150  1  0  0  0  0
 18151  1  0  0  0  0
 19152  1  0  0  0  0
 20153  1  0  0  0  0
 21154  1  0  0  0  0
 22155  1  0  0  0  0
 22156  1  0  0  0  0
 23157  1  0  0  0  0
 28158  1  0  0  0  0
 29159  1  0  0  0  0
 32160  1  0  0  0  0
 32161  1  0  0  0  0
 32162  1  0  0  0  0
 33163  1  0  0  0  0
 34164  1  0  0  0  0
 36165  1  0  0  0  0
 37166  1  0  0  0  0
 40167  1  0  0  0  0
 40168  1  0  0  0  0
 40169  1  0  0  0  0
 41170  1  0  0  0  0
 42171  1  0  0  0  0
 49172  1  0  0  0  0
 50173  1  0  0  0  0
 53174  1  0  0  0  0
 53175  1  0  0  0  0
 53176  1  0  0  0  0
 54177  1  0  0  0  0
 55178  1  0  0  0  0
 57179  1  0  0  0  0
 58180  1  0  0  0  0
 61181  1  0  0  0  0
 61182  1  0  0  0  0
 61183  1  0  0  0  0
 62184  1  0  0  0  0
 63185  1  0  0  0  0
 70186  1  0  0  0  0
 71187  1  0  0  0  0
 74188  1  0  0  0  0
 74189  1  0  0  0  0
 74190  1  0  0  0  0
 75191  1  0  0  0  0
 76192  1  0  0  0  0
 78193  1  0  0  0  0
 79194  1  0  0  0  0
 82195  1  0  0  0  0
 82196  1  0  0  0  0
 82197  1  0  0  0  0
 83198  1  0  0  0  0
 84199  1  0  0  0  0
 91200  1  0  0  0  0
 92201  1  0  0  0  0
 95202  1  0  0  0  0
 95203  1  0  0  0  0
 95204  1  0  0  0  0
 96205  1  0  0  0  0
 97206  1  0  0  0  0
 99207  1  0  0  0  0
100208  1  0  0  0  0
103209  1  0  0  0  0
103210  1  0  0  0  0
103211  1  0  0  0  0
104212  1  0  0  0  0
105213  1  0  0  0  0
117214  1  0  0  0  0
117215  1  0  0  0  0
118216  1  0  0  0  0
118217  1  0  0  0  0
118218  1  0  0  0  0
122219  1  0  0  0  0
122220  1  0  0  0  0
123221  1  0  0  0  0
123222  1  0  0  0  0
123223  1  0  0  0  0
124224  1  0  0  0  0
129225  1  0  0  0  0
132226  1  0  0  0  0
140227  1  0  0  0  0
141228  1  0  0  0  0
142229  1  0  0  0  0
143230  1  0  0  0  0
144231  1  0  0  0  0
145232  1  0  0  0  0
145233  1  0  0  0  0
146234  1  0  0  0  0
M  END
