
  xtb     02142221493D
 energy: -318.214259043677 gnorm: 0.000341224418 xtb: 6.4.1 (unknown)
194215  0     0  0            999 V2000
   -9.3742    2.2866    3.9141 C   0  0  0  0  0  0  0  0  0  0  0  0
  -10.4694    1.5005    3.6842 C   0  0  0  0  0  0  0  0  0  0  0  0
  -10.5682    0.4094    2.6994 C   0  0  0  0  0  0  0  0  0  0  0  0
   -9.7206    0.0365    1.9112 O   0  0  0  0  0  0  0  0  0  0  0  0
  -11.9254   -0.1464    2.8380 C   0  0  0  0  0  0  0  0  0  0  0  0
  -12.4679   -1.2098    2.1198 C   0  0  0  0  0  0  0  0  0  0  0  0
  -13.7573   -1.5235    2.4756 C   0  0  0  0  0  0  0  0  0  0  0  0
  -14.4573   -0.8269    3.4698 C   0  0  0  0  0  0  0  0  0  0  0  0
  -13.9364    0.2290    4.1792 C   0  0  0  0  0  0  0  0  0  0  0  0
  -12.6220    0.5634    3.8361 C   0  0  0  0  0  0  0  0  0  0  0  0
  -11.7430    1.6018    4.3714 C   0  0  0  0  0  0  0  0  0  0  0  0
  -12.0829    2.4909    5.3606 C   0  0  0  0  0  0  0  0  0  0  0  0
  -11.2468    3.4875    5.9043 C   0  0  0  0  0  0  0  0  0  0  0  0
  -10.6400    4.3227    6.4102 N   0  0  0  0  0  0  0  0  0  0  0  0
  -13.3418    2.5399    5.9948 C   0  0  0  0  0  0  0  0  0  0  0  0
  -14.3370    2.6449    6.5584 N   0  0  0  0  0  0  0  0  0  0  0  0
  -15.6884   -1.6853    3.3166 C   0  0  0  0  0  0  0  0  0  0  0  0
  -15.9121   -2.7665    4.3953 C   0  0  0  0  0  0  0  0  0  0  0  0
  -16.8776   -3.7311    3.7454 C   0  0  0  0  0  0  0  0  0  0  0  0
  -16.2165   -4.3897    2.8021 C   0  0  0  0  0  0  0  0  0  0  0  0
  -14.7928   -3.8815    2.7989 C   0  0  0  0  0  0  0  0  0  0  0  0
  -14.6164   -3.5818    4.2930 C   0  0  0  0  0  0  0  0  0  0  0  0
  -14.9084   -2.4607    2.2069 C   0  0  0  0  0  0  0  0  0  0  0  0
   -8.0747    2.2301    3.3727 C   0  0  0  0  0  0  0  0  0  0  0  0
   -7.0891    3.1104    3.7912 C   0  0  0  0  0  0  0  0  0  0  0  0
   -5.8263    2.8931    3.2170 C   0  0  0  0  0  0  0  0  0  0  0  0
   -4.5916    3.5687    3.3818 C   0  0  0  0  0  0  0  0  0  0  0  0
   -4.3113    4.6621    4.1368 O   0  0  0  0  0  0  0  0  0  0  0  0
   -4.9822    4.9273    5.3560 C   0  0  0  0  0  0  0  0  0  0  0  0
   -4.9429    3.7583    6.3314 C   0  0  0  0  0  0  0  0  0  0  0  0
   -3.5243    3.0893    2.6409 C   0  0  0  0  0  0  0  0  0  0  0  0
   -3.5783    1.9690    1.7791 C   0  0  0  0  0  0  0  0  0  0  0  0
   -4.8056    1.3137    1.5941 C   0  0  0  0  0  0  0  0  0  0  0  0
   -4.9524    0.2035    0.8021 O   0  0  0  0  0  0  0  0  0  0  0  0
   -4.8218    0.4119   -0.5975 C   0  0  0  0  0  0  0  0  0  0  0  0
   -5.9598    1.2500   -1.1672 C   0  0  0  0  0  0  0  0  0  0  0  0
   -5.8865    1.7889    2.3122 C   0  0  0  0  0  0  0  0  0  0  0  0
   -7.4697    1.0804    2.2017 S   0  0  0  0  0  0  0  0  0  0  0  0
   -2.3055    1.6514    1.2647 C   0  0  0  0  0  0  0  0  0  0  0  0
   -1.3055    2.4911    1.6850 C   0  0  0  0  0  0  0  0  0  0  0  0
   -1.9170    3.7592    2.7282 S   0  0  0  0  0  0  0  0  0  0  0  0
    0.0462    2.3814    1.2525 C   0  0  0  0  0  0  0  0  0  0  0  0
    1.2277    2.9887    1.6618 C   0  0  0  0  0  0  0  0  0  0  0  0
    1.3937    3.8352    2.7436 N   0  0  0  0  0  0  0  0  0  0  0  0
    2.3330    4.8716    2.6301 C   0  0  0  0  0  0  0  0  0  0  0  0
    2.4163    5.6128    1.4551 C   0  0  0  0  0  0  0  0  0  0  0  0
    3.3526    6.6193    1.3185 C   0  0  0  0  0  0  0  0  0  0  0  0
    4.2194    6.9062    2.3635 C   0  0  0  0  0  0  0  0  0  0  0  0
    5.4525    8.1677    2.3159 S   0  0  0  0  0  0  0  0  0  0  0  0
    5.3367    8.8321    0.6307 C   0  0  0  0  0  0  0  0  0  0  0  0
    4.1333    6.1717    3.5457 C   0  0  0  0  0  0  0  0  0  0  0  0
    3.2059    5.1644    3.6784 C   0  0  0  0  0  0  0  0  0  0  0  0
    0.7487    3.6041    3.9620 C   0  0  0  0  0  0  0  0  0  0  0  0
    0.3918    4.6769    4.7764 C   0  0  0  0  0  0  0  0  0  0  0  0
   -0.2851    4.4709    5.9611 C   0  0  0  0  0  0  0  0  0  0  0  0
   -0.6218    3.1831    6.3537 C   0  0  0  0  0  0  0  0  0  0  0  0
   -1.5247    2.7977    7.8228 S   0  0  0  0  0  0  0  0  0  0  0  0
   -1.7378    4.4044    8.6419 C   0  0  0  0  0  0  0  0  0  0  0  0
   -0.2482    2.1045    5.5548 C   0  0  0  0  0  0  0  0  0  0  0  0
    0.4352    2.3092    4.3778 C   0  0  0  0  0  0  0  0  0  0  0  0
    2.3114    2.5997    0.8284 C   0  0  0  0  0  0  0  0  0  0  0  0
    4.0113    2.9359    0.8080 S   0  0  0  0  0  0  0  0  0  0  0  0
    4.2359    1.8649   -0.5636 C   0  0  0  0  0  0  0  0  0  0  0  0
    3.0619    1.2435   -0.9476 C   0  0  0  0  0  0  0  0  0  0  0  0
    2.9181    0.2613   -1.9231 N   0  0  0  0  0  0  0  0  0  0  0  0
    3.8789   -0.7406   -2.1045 C   0  0  0  0  0  0  0  0  0  0  0  0
    4.6362   -1.2194   -1.0393 C   0  0  0  0  0  0  0  0  0  0  0  0
    5.6486   -2.1351   -1.2462 C   0  0  0  0  0  0  0  0  0  0  0  0
    5.9161   -2.6012   -2.5257 C   0  0  0  0  0  0  0  0  0  0  0  0
    7.2055   -3.7427   -2.9170 S   0  0  0  0  0  0  0  0  0  0  0  0
    8.1234   -3.8965   -1.3578 C   0  0  0  0  0  0  0  0  0  0  0  0
    5.1262   -2.1695   -3.5887 C   0  0  0  0  0  0  0  0  0  0  0  0
    4.1195   -1.2531   -3.3812 C   0  0  0  0  0  0  0  0  0  0  0  0
    1.6926    0.2045   -2.6023 C   0  0  0  0  0  0  0  0  0  0  0  0
    1.0361   -1.0075   -2.7982 C   0  0  0  0  0  0  0  0  0  0  0  0
   -0.2188   -1.0423   -3.3730 C   0  0  0  0  0  0  0  0  0  0  0  0
   -0.8435    0.1375   -3.7557 C   0  0  0  0  0  0  0  0  0  0  0  0
   -2.4771    0.2137   -4.4262 S   0  0  0  0  0  0  0  0  0  0  0  0
   -3.1810   -1.4075   -4.0086 C   0  0  0  0  0  0  0  0  0  0  0  0
   -0.1680    1.3467   -3.6147 C   0  0  0  0  0  0  0  0  0  0  0  0
    1.0873    1.3803   -3.0499 C   0  0  0  0  0  0  0  0  0  0  0  0
    1.9744    1.6932   -0.1592 C   0  0  0  0  0  0  0  0  0  0  0  0
    0.3021    1.2845   -0.1063 S   0  0  0  0  0  0  0  0  0  0  0  0
    5.5501    1.5745   -1.1048 C   0  0  0  0  0  0  0  0  0  0  0  0
    5.6840    1.4033   -2.4789 C   0  0  0  0  0  0  0  0  0  0  0  0
    6.8310    0.7928   -2.9542 C   0  0  0  0  0  0  0  0  0  0  0  0
    7.1151    0.3481   -4.2170 N   0  0  0  0  0  0  0  0  0  0  0  0
    6.3265    0.5512   -5.4028 C   0  0  0  0  0  0  0  0  0  0  0  0
    6.8718    1.7061   -6.2414 C   0  0  0  0  0  0  0  0  0  0  0  0
    8.2508   -0.4184   -4.1570 C   0  0  0  0  0  0  0  0  0  0  0  0
    8.7727   -0.3921   -2.8382 C   0  0  0  0  0  0  0  0  0  0  0  0
    7.8639    0.3922   -2.0654 C   0  0  0  0  0  0  0  0  0  0  0  0
    7.7762    0.7109   -0.7129 C   0  0  0  0  0  0  0  0  0  0  0  0
    6.6244    1.2973   -0.2431 C   0  0  0  0  0  0  0  0  0  0  0  0
    9.9186   -1.1269   -2.5368 C   0  0  0  0  0  0  0  0  0  0  0  0
   10.4478   -1.9492   -3.5014 C   0  0  0  0  0  0  0  0  0  0  0  0
    9.8543   -2.0634   -4.7778 C   0  0  0  0  0  0  0  0  0  0  0  0
    8.8028   -1.2211   -5.1361 C   0  0  0  0  0  0  0  0  0  0  0  0
   10.3081   -3.1239   -5.6343 C   0  0  0  0  0  0  0  0  0  0  0  0
    9.5420   -3.9024   -6.4430 C   0  0  0  0  0  0  0  0  0  0  0  0
    8.0550   -3.9655   -6.4947 C   0  0  0  0  0  0  0  0  0  0  0  0
    7.2362   -3.1267   -6.1847 O   0  0  0  0  0  0  0  0  0  0  0  0
    7.7414   -5.3075   -7.0194 C   0  0  0  0  0  0  0  0  0  0  0  0
    6.4762   -5.8822   -7.1163 C   0  0  0  0  0  0  0  0  0  0  0  0
    6.4777   -7.1502   -7.6437 C   0  0  0  0  0  0  0  0  0  0  0  0
    7.6515   -7.8032   -8.0461 C   0  0  0  0  0  0  0  0  0  0  0  0
    8.9045   -7.2450   -7.9642 C   0  0  0  0  0  0  0  0  0  0  0  0
    8.9244   -5.9530   -7.4292 C   0  0  0  0  0  0  0  0  0  0  0  0
   10.0456   -5.0581   -7.1749 C   0  0  0  0  0  0  0  0  0  0  0  0
   11.3318   -5.2313   -7.6077 C   0  0  0  0  0  0  0  0  0  0  0  0
   11.7809   -6.3502   -8.3397 C   0  0  0  0  0  0  0  0  0  0  0  0
   12.2084   -7.2356   -8.9323 N   0  0  0  0  0  0  0  0  0  0  0  0
   12.3692   -4.2909   -7.4253 C   0  0  0  0  0  0  0  0  0  0  0  0
   13.2552   -3.5663   -7.3360 N   0  0  0  0  0  0  0  0  0  0  0  0
    6.9108   -9.0527   -8.4522 C   0  0  0  0  0  0  0  0  0  0  0  0
    6.9655  -10.2672   -7.4920 C   0  0  0  0  0  0  0  0  0  0  0  0
    7.1914   -9.7113   -6.1079 C   0  0  0  0  0  0  0  0  0  0  0  0
    6.0804   -9.0912   -5.7335 C   0  0  0  0  0  0  0  0  0  0  0  0
    5.0824   -9.2174   -6.8581 C   0  0  0  0  0  0  0  0  0  0  0  0
    5.4671  -10.5999   -7.4084 C   0  0  0  0  0  0  0  0  0  0  0  0
    5.6034   -8.3229   -8.0101 C   0  0  0  0  0  0  0  0  0  0  0  0
   -9.4889    3.0749    4.6483 H   0  0  0  0  0  0  0  0  0  0  0  0
  -11.8913   -1.7160    1.3616 H   0  0  0  0  0  0  0  0  0  0  0  0
  -14.4926    0.7557    4.9361 H   0  0  0  0  0  0  0  0  0  0  0  0
  -16.6023   -1.1616    3.0431 H   0  0  0  0  0  0  0  0  0  0  0  0
  -16.1872   -2.3828    5.3739 H   0  0  0  0  0  0  0  0  0  0  0  0
  -17.9212   -3.7933    3.9926 H   0  0  0  0  0  0  0  0  0  0  0  0
  -16.5974   -5.1118    2.1038 H   0  0  0  0  0  0  0  0  0  0  0  0
  -14.0483   -4.5143    2.3231 H   0  0  0  0  0  0  0  0  0  0  0  0
  -14.6495   -4.4847    4.9005 H   0  0  0  0  0  0  0  0  0  0  0  0
  -13.7164   -3.0171    4.5293 H   0  0  0  0  0  0  0  0  0  0  0  0
  -15.3014   -2.4528    1.1919 H   0  0  0  0  0  0  0  0  0  0  0  0
   -7.3211    3.8822    4.5022 H   0  0  0  0  0  0  0  0  0  0  0  0
   -6.0114    5.2561    5.1709 H   0  0  0  0  0  0  0  0  0  0  0  0
   -4.4285    5.7785    5.7637 H   0  0  0  0  0  0  0  0  0  0  0  0
   -5.5269    2.9186    5.9626 H   0  0  0  0  0  0  0  0  0  0  0  0
   -3.9178    3.4237    6.4721 H   0  0  0  0  0  0  0  0  0  0  0  0
   -5.3501    4.0704    7.2890 H   0  0  0  0  0  0  0  0  0  0  0  0
   -4.8410   -0.5952   -1.0208 H   0  0  0  0  0  0  0  0  0  0  0  0
   -3.8591    0.8827   -0.8335 H   0  0  0  0  0  0  0  0  0  0  0  0
   -5.8668    1.3065   -2.2484 H   0  0  0  0  0  0  0  0  0  0  0  0
   -6.9168    0.8029   -0.9096 H   0  0  0  0  0  0  0  0  0  0  0  0
   -5.9262    2.2585   -0.7592 H   0  0  0  0  0  0  0  0  0  0  0  0
   -2.1167    0.7979    0.6378 H   0  0  0  0  0  0  0  0  0  0  0  0
    1.7367    5.4004    0.6426 H   0  0  0  0  0  0  0  0  0  0  0  0
    3.3882    7.1733    0.3946 H   0  0  0  0  0  0  0  0  0  0  0  0
    6.1141    9.5867    0.5610 H   0  0  0  0  0  0  0  0  0  0  0  0
    5.5227    8.0425   -0.0914 H   0  0  0  0  0  0  0  0  0  0  0  0
    4.3645    9.2911    0.4760 H   0  0  0  0  0  0  0  0  0  0  0  0
    4.8134    6.3973    4.3527 H   0  0  0  0  0  0  0  0  0  0  0  0
    3.1552    4.5899    4.5910 H   0  0  0  0  0  0  0  0  0  0  0  0
    0.6275    5.6830    4.4649 H   0  0  0  0  0  0  0  0  0  0  0  0
   -0.5568    5.3264    6.5575 H   0  0  0  0  0  0  0  0  0  0  0  0
   -2.3340    5.0662    8.0205 H   0  0  0  0  0  0  0  0  0  0  0  0
   -2.2672    4.1914    9.5654 H   0  0  0  0  0  0  0  0  0  0  0  0
   -0.7671    4.8374    8.8644 H   0  0  0  0  0  0  0  0  0  0  0  0
   -0.5013    1.1040    5.8707 H   0  0  0  0  0  0  0  0  0  0  0  0
    0.7211    1.4645    3.7691 H   0  0  0  0  0  0  0  0  0  0  0  0
    4.4375   -0.8653   -0.0391 H   0  0  0  0  0  0  0  0  0  0  0  0
    6.2187   -2.4753   -0.3973 H   0  0  0  0  0  0  0  0  0  0  0  0
    7.5159   -4.3997   -0.6111 H   0  0  0  0  0  0  0  0  0  0  0  0
    8.4337   -2.9119   -1.0223 H   0  0  0  0  0  0  0  0  0  0  0  0
    8.9955   -4.4999   -1.5895 H   0  0  0  0  0  0  0  0  0  0  0  0
    5.3376   -2.5444   -4.5781 H   0  0  0  0  0  0  0  0  0  0  0  0
    3.5172   -0.9135   -4.2113 H   0  0  0  0  0  0  0  0  0  0  0  0
    1.5064   -1.9249   -2.4766 H   0  0  0  0  0  0  0  0  0  0  0  0
   -0.7066   -1.9954   -3.4998 H   0  0  0  0  0  0  0  0  0  0  0  0
   -4.2421   -1.3318   -4.2247 H   0  0  0  0  0  0  0  0  0  0  0  0
   -3.0300   -1.6067   -2.9520 H   0  0  0  0  0  0  0  0  0  0  0  0
   -2.7364   -2.1836   -4.6250 H   0  0  0  0  0  0  0  0  0  0  0  0
   -0.6456    2.2575   -3.9413 H   0  0  0  0  0  0  0  0  0  0  0  0
    1.6003    2.3232   -2.9283 H   0  0  0  0  0  0  0  0  0  0  0  0
    4.8773    1.6847   -3.1378 H   0  0  0  0  0  0  0  0  0  0  0  0
    6.3325   -0.3759   -5.9820 H   0  0  0  0  0  0  0  0  0  0  0  0
    5.2976    0.7591   -5.1034 H   0  0  0  0  0  0  0  0  0  0  0  0
    6.2687    1.8360   -7.1359 H   0  0  0  0  0  0  0  0  0  0  0  0
    7.8987    1.5067   -6.5384 H   0  0  0  0  0  0  0  0  0  0  0  0
    6.8523    2.6310   -5.6689 H   0  0  0  0  0  0  0  0  0  0  0  0
    8.5785    0.4553   -0.0370 H   0  0  0  0  0  0  0  0  0  0  0  0
    6.5046    1.4969    0.8116 H   0  0  0  0  0  0  0  0  0  0  0  0
   10.3613   -1.0729   -1.5529 H   0  0  0  0  0  0  0  0  0  0  0  0
   11.3013   -2.5698   -3.2710 H   0  0  0  0  0  0  0  0  0  0  0  0
    8.4293   -1.2192   -6.1442 H   0  0  0  0  0  0  0  0  0  0  0  0
   11.3465   -3.4098   -5.5064 H   0  0  0  0  0  0  0  0  0  0  0  0
    5.5983   -5.3469   -6.7901 H   0  0  0  0  0  0  0  0  0  0  0  0
    9.8000   -7.7583   -8.2733 H   0  0  0  0  0  0  0  0  0  0  0  0
    7.0046   -9.3455   -9.4960 H   0  0  0  0  0  0  0  0  0  0  0  0
    7.6381  -11.0606   -7.8065 H   0  0  0  0  0  0  0  0  0  0  0  0
    8.1265   -9.7740   -5.5828 H   0  0  0  0  0  0  0  0  0  0  0  0
    5.9025   -8.5304   -4.8346 H   0  0  0  0  0  0  0  0  0  0  0  0
    4.0402   -9.0550   -6.5958 H   0  0  0  0  0  0  0  0  0  0  0  0
    5.2532  -11.4063   -6.7085 H   0  0  0  0  0  0  0  0  0  0  0  0
    5.0175  -10.8228   -8.3750 H   0  0  0  0  0  0  0  0  0  0  0  0
    4.8441   -8.1355   -8.7670 H   0  0  0  0  0  0  0  0  0  0  0  0
  1  2  2  0  0  0  0
  2  3  1  0  0  0  0
  3  4  2  0  0  0  0
  3  5  1  0  0  0  0
  5  6  2  0  0  0  0
  6  7  1  0  0  0  0
  7  8  2  0  0  0  0
  8  9  1  0  0  0  0
  9 10  2  0  0  0  0
 10 11  1  0  0  0  0
 11 12  2  0  0  0  0
 12 13  1  0  0  0  0
 13 14  3  0  0  0  0
 12 15  1  0  0  0  0
 15 16  3  0  0  0  0
  8 17  1  0  0  0  0
 17 18  1  0  0  0  0
 18 19  1  0  0  0  0
 19 20  2  0  0  0  0
 20 21  1  0  0  0  0
 21 22  1  0  0  0  0
 21 23  1  0  0  0  0
  1 24  1  0  0  0  0
 24 25  2  0  0  0  0
 25 26  1  0  0  0  0
 26 27  2  0  0  0  0
 27 28  1  0  0  0  0
 28 29  1  0  0  0  0
 29 30  1  0  0  0  0
 27 31  1  0  0  0  0
 31 32  2  0  0  0  0
 32 33  1  0  0  0  0
 33 34  1  0  0  0  0
 34 35  1  0  0  0  0
 35 36  1  0  0  0  0
 33 37  2  0  0  0  0
 37 38  1  0  0  0  0
 32 39  1  0  0  0  0
 39 40  2  0  0  0  0
 40 41  1  0  0  0  0
 40 42  1  0  0  0  0
 42 43  2  0  0  0  0
 43 44  1  0  0  0  0
 44 45  1  0  0  0  0
 45 46  2  0  0  0  0
 46 47  1  0  0  0  0
 47 48  2  0  0  0  0
 48 49  1  0  0  0  0
 49 50  1  0  0  0  0
 48 51  1  0  0  0  0
 51 52  2  0  0  0  0
 44 53  1  0  0  0  0
 53 54  2  0  0  0  0
 54 55  1  0  0  0  0
 55 56  2  0  0  0  0
 56 57  1  0  0  0  0
 57 58  1  0  0  0  0
 56 59  1  0  0  0  0
 59 60  2  0  0  0  0
 43 61  1  0  0  0  0
 61 62  1  0  0  0  0
 62 63  1  0  0  0  0
 63 64  2  0  0  0  0
 64 65  1  0  0  0  0
 65 66  1  0  0  0  0
 66 67  2  0  0  0  0
 67 68  1  0  0  0  0
 68 69  2  0  0  0  0
 69 70  1  0  0  0  0
 70 71  1  0  0  0  0
 69 72  1  0  0  0  0
 72 73  2  0  0  0  0
 65 74  1  0  0  0  0
 74 75  2  0  0  0  0
 75 76  1  0  0  0  0
 76 77  2  0  0  0  0
 77 78  1  0  0  0  0
 78 79  1  0  0  0  0
 77 80  1  0  0  0  0
 80 81  2  0  0  0  0
 64 82  1  0  0  0  0
 82 83  1  0  0  0  0
 63 84  1  0  0  0  0
 84 85  2  0  0  0  0
 85 86  1  0  0  0  0
 86 87  1  0  0  0  0
 87 88  1  0  0  0  0
 88 89  1  0  0  0  0
 87 90  1  0  0  0  0
 90 91  2  0  0  0  0
 91 92  1  0  0  0  0
 92 93  1  0  0  0  0
 93 94  2  0  0  0  0
 91 95  1  0  0  0  0
 95 96  2  0  0  0  0
 96 97  1  0  0  0  0
 97 98  2  0  0  0  0
 97 99  1  0  0  0  0
 99100  2  0  0  0  0
100101  1  0  0  0  0
101102  2  0  0  0  0
101103  1  0  0  0  0
103104  2  0  0  0  0
104105  1  0  0  0  0
105106  2  0  0  0  0
106107  1  0  0  0  0
107108  2  0  0  0  0
108109  1  0  0  0  0
109110  2  0  0  0  0
110111  1  0  0  0  0
111112  3  0  0  0  0
110113  1  0  0  0  0
113114  3  0  0  0  0
106115  1  0  0  0  0
115116  1  0  0  0  0
116117  1  0  0  0  0
117118  2  0  0  0  0
118119  1  0  0  0  0
119120  1  0  0  0  0
119121  1  0  0  0  0
 11  2  1  0  0  0  0
 23 17  1  0  0  0  0
 38 24  1  0  0  0  0
 83 42  1  0  0  0  0
 94 84  1  0  0  0  0
109100  1  0  0  0  0
121115  1  0  0  0  0
 10  5  1  0  0  0  0
 22 18  1  0  0  0  0
 37 26  1  0  0  0  0
 52 45  1  0  0  0  0
 60 53  1  0  0  0  0
 82 61  2  0  0  0  0
 92 86  2  0  0  0  0
108103  1  0  0  0  0
120116  1  0  0  0  0
 23  7  1  0  0  0  0
 41 31  1  0  0  0  0
 73 66  1  0  0  0  0
 81 74  1  0  0  0  0
 98 90  1  0  0  0  0
121105  1  0  0  0  0
  1122  1  0  0  0  0
  6123  1  0  0  0  0
  9124  1  0  0  0  0
 17125  1  0  0  0  0
 18126  1  0  0  0  0
 19127  1  0  0  0  0
 20128  1  0  0  0  0
 21129  1  0  0  0  0
 22130  1  0  0  0  0
 22131  1  0  0  0  0
 23132  1  0  0  0  0
 25133  1  0  0  0  0
 29134  1  0  0  0  0
 29135  1  0  0  0  0
 30136  1  0  0  0  0
 30137  1  0  0  0  0
 30138  1  0  0  0  0
 35139  1  0  0  0  0
 35140  1  0  0  0  0
 36141  1  0  0  0  0
 36142  1  0  0  0  0
 36143  1  0  0  0  0
 39144  1  0  0  0  0
 46145  1  0  0  0  0
 47146  1  0  0  0  0
 50147  1  0  0  0  0
 50148  1  0  0  0  0
 50149  1  0  0  0  0
 51150  1  0  0  0  0
 52151  1  0  0  0  0
 54152  1  0  0  0  0
 55153  1  0  0  0  0
 58154  1  0  0  0  0
 58155  1  0  0  0  0
 58156  1  0  0  0  0
 59157  1  0  0  0  0
 60158  1  0  0  0  0
 67159  1  0  0  0  0
 68160  1  0  0  0  0
 71161  1  0  0  0  0
 71162  1  0  0  0  0
 71163  1  0  0  0  0
 72164  1  0  0  0  0
 73165  1  0  0  0  0
 75166  1  0  0  0  0
 76167  1  0  0  0  0
 79168  1  0  0  0  0
 79169  1  0  0  0  0
 79170  1  0  0  0  0
 80171  1  0  0  0  0
 81172  1  0  0  0  0
 85173  1  0  0  0  0
 88174  1  0  0  0  0
 88175  1  0  0  0  0
 89176  1  0  0  0  0
 89177  1  0  0  0  0
 89178  1  0  0  0  0
 93179  1  0  0  0  0
 94180  1  0  0  0  0
 95181  1  0  0  0  0
 96182  1  0  0  0  0
 98183  1  0  0  0  0
 99184  1  0  0  0  0
104185  1  0  0  0  0
107186  1  0  0  0  0
115187  1  0  0  0  0
116188  1  0  0  0  0
117189  1  0  0  0  0
118190  1  0  0  0  0
119191  1  0  0  0  0
120192  1  0  0  0  0
120193  1  0  0  0  0
121194  1  0  0  0  0
M  END
