222

C          0.45920        4.03480       -2.94650
C          0.36030        5.39730       -2.99530
C         -0.83070        6.27690       -3.05430
O         -1.95350        6.01040       -3.43750
C         -0.37290        7.60900       -2.61350
C         -1.16360        8.72980       -2.37250
C         -0.45990        9.82610       -1.93520
C          0.92920        9.81090       -1.74920
C          1.72250        8.71600       -1.99530
C          1.02520        7.59250       -2.44740
C          1.51230        6.27190       -2.83000
C          2.82570        5.95890       -3.06160
C          3.91010        6.82990       -2.83470
N          4.85340        7.46020       -2.65240
C          3.29510        4.75930       -3.63290
N          3.79280        3.85470       -4.13770
C          0.96380       11.24650       -1.28920
C          1.46130       12.31370       -2.29480
C          1.17980       11.76730       -3.67260
C         -0.13410       11.78300       -3.85340
C         -0.76470       12.33970       -2.60090
C          0.32210       13.33810       -2.17120
C         -0.58310       11.26500       -1.50040
C         -0.51170        2.99880       -2.83260
C         -1.89240        3.17280       -2.72830
C         -2.76690        2.11930       -2.51670
C         -2.32670        0.80540       -2.48540
C         -0.91900        0.58080       -2.57400
N         -0.45760       -0.67120       -2.50220
C          0.83310       -0.90330       -2.52870
C          1.17630       -2.32780       -2.61650
C          2.15820       -2.80450       -3.48350
C          2.38210       -4.16490       -3.59090
C          1.62450       -5.06090       -2.85160
C          0.62920       -4.59120       -2.01160
C          0.40600       -3.23450       -1.89310
C          1.75250        0.18870       -2.50840
N          1.30400        1.42160       -2.62820
C         -0.01280        1.65940       -2.70390
C          3.19640        0.03200       -2.30010
C          3.73580       -1.04970       -1.60320
C          5.10100       -1.14820       -1.41380
C          5.95030       -0.17080       -1.90610
C          5.42280        0.91180       -2.58930
C          4.05940        1.01350       -2.78510
C         -3.16900       -0.32750       -2.22110
C         -3.00650       -1.64070       -2.68050
N         -2.51090       -1.99650       -3.90100
C         -2.11310       -0.97980       -4.80490
C         -3.01520        0.03650       -5.10910
C         -2.61500        1.16070       -5.80290
C         -1.29370        1.28440       -6.21300
S         -0.63870        2.73530       -6.96970
C         -1.82860        4.02540       -6.50160
C         -0.42280        0.21550       -6.02280
C         -0.82690       -0.90720       -5.33070
C         -2.53170       -3.36590       -4.26860
C         -1.37260       -4.07760       -4.54070
C         -1.42630       -5.42870       -4.82720
C         -2.64500       -6.09110       -4.84590
S         -2.81660       -7.81850       -5.14940
C         -1.12040       -8.45020       -4.99870
C         -3.81670       -5.37190       -4.61640
C         -3.76000       -4.02580       -4.33190
C         -3.43070       -2.55900       -1.68500
S         -3.01470       -4.21130       -1.34820
C         -3.39660       -3.99250        0.35710
C         -4.00500       -2.76670        0.59000
N         -4.48900       -2.32550        1.83650
C         -5.84220       -2.65370        2.07350
C         -6.81070       -1.67020        2.24240
C         -8.13320       -2.01190        2.45270
C         -8.51080       -3.34740        2.47720
S        -10.16530       -3.90870        2.73470
C        -11.11220       -2.38260        2.99840
C         -7.54750       -4.33440        2.27860
C         -6.22830       -3.99280        2.07900
C         -3.82660       -1.30810        2.52120
C         -2.60360       -0.81040        2.05990
C         -1.95860        0.20030        2.73440
C         -2.49510        0.73030        3.90460
S         -1.61830        2.07740        4.63660
C         -2.64530        2.53550        6.06140
C         -3.65720        0.17650        4.42120
C         -4.30800       -0.83430        3.74100
C         -3.99260       -1.95990       -0.56340
S         -4.15100       -0.24880       -0.75140
C         -2.64290       -4.72260        1.32840
C         -2.29220       -4.22490        2.55430
C         -1.00510       -4.62820        2.97630
C         -0.23180       -3.90320        3.90950
C         -0.88730       -3.07060        4.91550
C         -2.08240       -3.51900        5.49100
C         -2.72470       -2.78850        6.46500
C         -2.19600       -1.58840        6.93100
S         -3.10740       -0.68910        8.15530
C         -1.82420       -0.23140        9.38100
C         -1.11720       -1.45100        9.93590
C         -1.00650       -1.15050        6.36040
F         -0.43630       -0.00080        6.77190
C         -0.36280       -1.86360        5.37120
C          1.13930       -3.98490        3.68530
C          1.71830       -4.99310        2.87680
C          0.91910       -5.92590        2.17770
C          1.54300       -7.06740        1.51130
C          2.56350       -7.76370        2.16790
C          3.15220       -8.86790        1.59390
C          2.77280       -9.32180        0.33040
S          3.63350      -10.72100       -0.31970
C          2.34180      -11.67350       -1.20210
C          1.18800      -12.04620       -0.29320
C          1.78030       -8.60170       -0.32600
C          1.15640       -7.51690        0.25310
F          1.38990       -8.93570       -1.57930
C         -0.42580       -5.58580        2.10800
S         -1.55760       -6.01530        0.84270
C          3.09040       -4.73900        2.60300
C          3.50820       -3.52170        3.04450
S          2.31920       -2.76040        4.08220
C          4.68870       -2.80770        2.64410
C          4.75340       -1.57540        2.09110
C          6.09700       -0.94710        1.89670
O          7.16330       -1.47860        2.11020
C          5.84150        0.41160        1.40140
C          6.79290        1.36310        1.03570
C          6.26470        2.50770        0.49040
C          4.88450        2.69740        0.32530
C          3.93550        1.77970        0.69980
C          4.45100        0.60150        1.25080
C          3.75610       -0.63330        1.59830
C          2.44870       -0.87800        1.27140
C          1.52280        0.08600        0.81360
N          0.66560        0.77110        0.47280
C          1.80730       -2.12900        1.17030
N          1.19420       -3.06810        0.91910
C          5.06610        4.04270       -0.32910
C          4.77330        5.30700        0.51390
C          4.99770        4.91650        1.95400
C          6.30110        4.74110        2.12630
C          6.98120        5.01040        0.80680
C          6.05910        6.10430        0.24460
C          6.60120        3.83920       -0.13310
H          1.46570        3.63290       -2.89130
H         -2.23170        8.69830       -2.52120
H          2.78950        8.71660       -1.84430
H          1.34250       11.41540       -0.28300
H          2.47370       12.66550       -2.11570
H          1.93740       11.38350       -4.33040
H         -0.69400       11.41480       -4.69310
H         -1.77930       12.71650       -2.70070
H          0.42710       14.17080       -2.86490
H          0.18730       13.71710       -1.15890
H         -1.21390       11.44930       -0.63280
H         -2.30500        4.16530       -2.80790
H         -3.82300        2.32060       -2.40950
H          2.73570       -2.10930       -4.07650
H          3.14700       -4.52740       -4.26210
H          1.80630       -6.12210       -2.93990
H          0.00640       -5.27460       -1.45780
H         -0.36490       -2.85690       -1.24080
H          3.09090       -1.81700       -1.20110
H          5.50470       -1.99500       -0.87640
H          7.01590       -0.25720       -1.75480
H          6.07370        1.67910       -2.98000
H          3.64920        1.84940       -3.32950
H         -4.03750       -0.03920       -4.76890
H         -3.33250        1.94020       -6.00170
H         -2.75110        3.91350       -7.06390
H         -1.35590        4.96700       -6.76340
H         -2.00770        3.98920       -5.43140
H          0.58970        0.29290       -6.38900
H         -0.11770       -1.69920       -5.15940
H         -0.41210       -3.59490       -4.50100
H         -0.50330       -5.95100       -5.01860
H         -0.69790       -8.14220       -4.04710
H         -0.51400       -8.10760       -5.83210
H         -1.20860       -9.53170       -5.03140
H         -4.76540       -5.88470       -4.65390
H         -4.67100       -3.47650       -4.14310
H         -6.52710       -0.62910        2.19950
H         -8.85780       -1.22410        2.58160
H        -12.13230       -2.70210        3.18720
H        -11.07980       -1.76410        2.10620
H        -10.72610       -1.85130        3.86340
H         -7.84880       -5.37070        2.28760
H         -5.48640       -4.76200        1.92620
H         -2.14650       -1.21480        1.16990
H         -1.03470        0.59930        2.34420
H         -3.63490        2.82960        5.72410
H         -2.70070        1.71140        6.76610
H         -2.14360        3.38050        6.52250
H         -4.07370        0.51600        5.35570
H         -5.20140       -1.26110        4.17060
H         -2.82670       -3.43450        3.04270
H         -2.49490       -4.46920        5.18850
H         -3.64800       -3.14460        6.89480
H         -1.12840        0.46750        8.92170
H         -2.38940        0.28540       10.15660
H         -0.56430       -1.96710        9.15270
H         -0.41470       -1.14620       10.70900
H         -1.83430       -2.14560       10.36870
H          0.52950       -1.43190        4.95040
H          2.87070       -7.45080        3.15440
H          3.92480       -9.40900        2.11770
H          2.01190      -11.10600       -2.06940
H          2.87760      -12.56020       -1.54100
H          1.54840      -12.58640        0.57970
H          0.48800      -12.68070       -0.83300
H          0.65590      -11.15890        0.04440
H          0.39570       -7.01010       -0.31440
H          3.67810       -5.35040        1.94160
H          5.64400       -3.30940        2.77620
H          7.84620        1.16580        1.16090
H          2.88040        1.94640        0.56310
H          4.69540        4.11660       -1.34910
H          3.82660        5.79250        0.28940
H          4.20540        4.75640        2.66200
H          6.81510        4.40540        3.00810
H          8.04540        5.22640        0.85040
H          6.10620        7.02850        0.81850
H          6.22080        6.32050       -0.80990
H          7.22650        3.80380       -1.02250
