172

C          2.54320        2.83720       -0.85950
C          2.37530        3.99840       -1.55040
C          3.47880        4.98510       -1.65940
O          4.65480        4.77740       -1.44380
C          2.84000        6.24510       -2.08830
C          3.41680        7.51040       -2.18380
C          2.54210        8.49560       -2.57710
C          1.18640        8.25240       -2.83850
C          0.60260        7.01020       -2.75990
C          1.48400        5.99380       -2.38670
C          1.24130        4.56120       -2.25120
C          0.28940        3.87300       -2.95840
C          0.23860        2.47020       -3.02600
N          0.21200        1.32880       -3.15980
C         -0.61820        4.48970       -3.84400
N         -1.34980        4.92880       -4.61170
C          0.90740        9.69720       -3.16750
C          0.76880       10.04200       -4.66540
C          0.98590       11.53700       -4.71450
C          2.27110       11.76610       -4.47650
C          2.94440       10.42960       -4.26250
C          2.11650        9.56170       -5.21920
C          2.42030        9.96770       -2.88580
C          1.53100        1.96800       -0.39550
C          1.63440        0.61270       -0.06150
N          2.76050       -0.16170       -0.20010
C          3.01860       -1.18350        0.73420
C          3.58270       -2.38940        0.31890
C          3.92910       -3.34950        1.24210
C          3.73250       -3.12200        2.60370
S          4.29660       -4.38230        3.70000
C          4.25360       -3.58020        5.33240
C          3.13870       -1.93760        3.01870
C          2.78350       -0.97850        2.09020
C          3.76640        0.16840       -1.12730
C          3.42440        0.59650       -2.41010
C          4.40000        1.04020       -3.27630
C          5.73210        1.04730       -2.88090
S          6.99580        1.72420       -3.92520
C          6.26250        3.35500       -4.26810
C          6.08520        0.53160       -1.64190
C          5.11000        0.09660       -0.76720
C          0.39240        0.11090        0.39900
S         -0.16860       -1.43970        0.93070
C         -1.78580       -0.80400        1.12040
C         -1.86290        0.56350        0.90320
N         -2.95250        1.35820        1.19980
C         -3.82880        0.98770        2.22990
C         -3.33940        0.40900        3.39970
C         -4.20000       -0.13480        4.33130
C         -5.57110       -0.09510        4.11450
S         -6.74720       -0.86800        5.18040
C         -5.74750       -2.05480        6.12510
C         -6.06730        0.58080        3.00190
C         -5.20780        1.11940        2.06910
C         -3.15220        2.53780        0.46830
C         -3.50800        3.71520        1.11780
C         -3.59970        4.90240        0.41770
C         -3.34780        4.92480       -0.94790
S         -3.32920        6.39110       -1.92910
C         -3.95950        7.67590       -0.80880
C         -3.05950        3.73410       -1.61200
C         -2.95650        2.55240       -0.91310
C         -0.61770        1.06100        0.44980
S         -0.08690        2.60560       -0.09540
C         -2.86430       -1.66640        1.54270
C         -4.13170       -1.60040        0.99530
F         -4.37110       -0.76980       -0.02960
C         -5.18240       -2.41150        1.44840
F         -6.37460       -2.29930        0.84450
C         -5.01180       -3.34600        2.44670
C         -3.73280       -3.39050        3.07020
N         -3.54750       -4.17520        4.14530
C         -2.36090       -4.26180        4.69040
C         -2.26080       -5.09770        5.93070
C         -2.39100       -4.22430        7.18130
C         -1.26030       -3.54680        4.13830
N         -1.44070       -2.72490        3.13570
C         -2.66150       -2.60410        2.58940
C          0.14710       -3.71630        4.61830
C          0.77970       -4.90370        3.88990
C         -6.06070       -4.27830        2.85000
C         -5.84440       -5.59180        3.03500
C         -4.59460       -6.23770        2.71050
C         -3.87670       -5.86430        1.62670
C         -2.51800       -6.19430        1.38850
C         -1.74960       -5.49920        0.49910
C         -2.24940       -4.39370       -0.35960
O         -3.37480       -3.93650       -0.42210
C         -1.09380       -3.91470       -1.12480
C         -1.10580       -2.91100       -2.09020
C          0.12080       -2.66940       -2.65720
C          1.28130       -3.35610       -2.26870
C          1.30430       -4.34540       -1.31400
C          0.05900       -4.62920       -0.74200
C         -0.32130       -5.62750        0.25320
C          0.53330       -6.52060        0.84710
C          0.16080       -7.50720        1.78270
N         -0.06360       -8.33160        2.55080
C          1.92540       -6.56270        0.62140
N          3.06410       -6.64500        0.49930
C          2.14200       -2.61040       -3.25970
C          2.55750       -3.35300       -4.55320
C          1.49150       -4.38690       -4.81860
C          0.39010       -3.74650       -5.18780
C          0.69070       -2.26870       -5.17760
C          2.17050       -2.28950       -5.59300
C          0.84660       -1.85520       -3.69290
H          3.56370        2.60920       -0.57190
H          4.46030        7.66520       -1.95790
H         -0.44410        6.82910       -2.94590
H          0.16470       10.19270       -2.54520
H         -0.13170        9.65960       -5.13740
H          0.19870       12.25370       -4.85810
H          2.77160       12.71200       -4.38140
H          4.02550       10.40390       -4.37030
H          2.28500        8.49220       -5.10900
H          2.25850        9.84710       -6.26010
H          2.68810       10.64780       -2.07900
H          3.76920       -2.55840       -0.72970
H          4.36580       -4.28380        0.92490
H          3.22890       -3.39810        5.64320
H          4.72290       -4.28350        6.01320
H          4.82620       -2.65830        5.30240
H          2.97040       -1.73610        4.06430
H          2.34930       -0.04760        2.42440
H          2.38820        0.61350       -2.70920
H          4.12250        1.38520       -4.26040
H          5.92330        3.79330       -3.33350
H          5.44320        3.26310       -4.97500
H          7.05530        3.95740       -4.69940
H          7.12460        0.50880       -1.35480
H          5.38470       -0.26040        0.21400
H         -2.27340        0.35410        3.56550
H         -3.78940       -0.59570        5.21570
H         -5.16470       -2.67060        5.44520
H         -6.46080       -2.67180        6.66330
H         -5.11170       -1.53140        6.83450
H         -7.13470        0.64300        2.85790
H         -5.59620        1.59740        1.18290
H         -3.69080        3.70210        2.18250
H         -3.85160        5.80320        0.95360
H         -3.25980        7.84230        0.00520
H         -4.93930        7.39200       -0.43680
H         -4.04090        8.57430       -1.41270
H         -2.91660        3.75110       -2.68130
H         -2.73000        1.63230       -1.43030
H         -3.07940       -5.81780        5.91620
H         -1.31520       -5.63930        5.95050
H         -2.29920       -4.83650        8.07470
H         -3.36250       -3.73570        7.19460
H         -1.61970       -3.45720        7.20620
H          0.70120       -2.80990        4.37220
H          0.17370       -3.87780        5.69580
H          0.16480       -5.79570        3.99050
H          0.88220       -4.66580        2.83360
H          1.76560       -5.12440        4.28810
H         -7.03890       -3.85250        3.02700
H         -6.62640       -6.20550        3.46150
H         -4.23540       -7.01150        3.37750
H         -4.32530       -5.16440        0.93900
H         -2.07150       -6.96120        2.00820
H         -2.02020       -2.39840       -2.34550
H          2.20220       -4.87070       -1.03590
H          2.95810       -2.01870       -2.84940
H          3.58450       -3.70910       -4.55930
H          1.62730       -5.44120       -4.66140
H         -0.57870       -4.16010       -5.39950
H          0.01860       -1.63660       -5.75110
H          2.31690       -2.62890       -6.61730
H          2.67610       -1.33650       -5.44370
H          0.79770       -0.77800       -3.56480
