234

C          0.12620       -6.84520        4.01700
C         -0.99860       -7.64270        4.03680
C         -1.89190       -7.83290        2.88520
O         -1.79680       -7.32400        1.78200
C         -2.84970       -8.88430        3.29330
C         -3.90490       -9.39620        2.54440
C         -4.64650      -10.35130        3.19950
C         -4.35190      -10.77710        4.50040
C         -3.30800      -10.28460        5.24910
C         -2.54870       -9.30650        4.60260
C         -1.40850       -8.53100        5.08720
C         -0.92370       -8.52380        6.37360
C          0.04820       -7.61730        6.83440
N          0.80940       -6.88190        7.28380
C         -1.37270       -9.37470        7.40100
N         -1.68560      -10.05480        8.27220
C         -5.49620      -11.76180        4.52450
C         -5.13200      -13.24690        4.31850
C         -6.44040      -13.88690        3.91350
C         -6.72430      -13.48060        2.68270
C         -5.61210      -12.55980        2.23500
C         -4.42470      -13.20880        2.95770
C         -5.82790      -11.28300        3.07420
C          0.31860       -5.72250        3.21070
C         -0.59150       -4.84690        2.58850
N         -1.95270       -4.82580        2.70470
C         -2.68530       -4.19980        1.67190
C         -3.60460       -3.19620        1.96970
C         -4.23770       -2.52330        0.94850
C         -3.96830       -2.84230       -0.38220
S         -4.77030       -1.86170       -1.60680
C         -4.03370       -2.41510       -3.16850
C         -3.10290       -3.88800       -0.67650
C         -2.46650       -4.56210        0.34690
C         -2.65770       -5.33470        3.79800
C         -2.16000       -5.24030        5.09910
C         -2.84740       -5.80850        6.14580
C         -4.04400       -6.49270        5.92420
S         -4.77120       -7.27530        7.32210
C         -6.15020       -8.22380        6.61930
C         -4.57850       -6.52630        4.64260
C         -3.89140       -5.95090        3.59220
C          0.10670       -3.84790        1.86780
S         -0.42600       -2.50620        0.92630
C          1.23130       -1.95790        0.73830
C          2.15590       -2.83880        1.27980
N          3.51740       -2.73440        1.08150
C          4.44020       -3.43140        1.87770
C          5.52620       -4.07930        1.28590
C          6.42630       -4.77300        2.06140
C          6.26710       -4.84340        3.44530
S          7.47330       -5.77520        4.33300
C          6.82260       -5.82350        6.02720
C          5.20080       -4.18510        4.03890
C          4.29880       -3.48580        3.25890
C          4.00380       -2.06920       -0.06100
C          5.09890       -1.21590        0.05420
C          5.57440       -0.54380       -1.05170
C          4.96110       -0.70120       -2.29270
S          5.60340        0.25340       -3.63380
C          4.99890       -0.62550       -5.10380
C          3.88450       -1.56890       -2.41600
C          3.42160       -2.25610       -1.31130
C          1.49070       -3.89260        1.96120
S          1.99750       -5.21560        2.94840
C          1.42530       -0.70720        0.06310
C          2.00710        0.46280        0.53030
N          2.51920        0.65080        1.79810
C          3.36780        1.74610        2.05780
C          3.10920        2.58250        3.14470
C          3.90050        3.68330        3.37440
C          4.97350        3.98000        2.53200
S          5.86440        5.45480        2.90230
C          7.13950        5.55890        1.61990
C          5.25680        3.12730        1.47410
C          4.45690        2.02310        1.23810
C          1.99410       -0.06070        2.88960
C          2.84140       -0.49160        3.90480
C          2.35970       -1.28030        4.93340
C          1.02700       -1.67140        4.94660
S          0.36100       -2.80050        6.13200
C          1.80470       -3.79740        6.60280
C          0.15690       -1.15760        3.98910
C          0.63120       -0.34570        2.98280
C          1.91270        1.48680       -0.44460
S          2.44290        3.12760       -0.51240
C          1.67690        3.34090       -2.08040
C          1.11100        2.14690       -2.54610
N          0.54520        2.00880       -3.80670
C         -0.78490        1.59970       -3.93880
C         -1.71170        1.91060       -2.94720
C         -3.05170        1.62480       -3.11320
C         -3.48990        1.02270       -4.28350
S         -5.19100        0.72510       -4.67260
C         -6.09120        1.32410       -3.21780
C         -2.55840        0.64300       -5.24730
C         -1.22060        0.91740       -5.07440
C          1.32760        2.37400       -4.91060
C          2.71190        2.20110       -4.85370
C          3.50490        2.56710       -5.91650
C          2.93710        3.10900       -7.06840
S          4.05360        3.51190       -8.37410
C          2.99740        4.27280       -9.63850
C          1.56190        3.29180       -7.12650
C          0.76540        2.93620       -6.05530
C          1.23210        1.11870       -1.59760
S          0.68050       -0.51290       -1.52340
C          1.40060        4.61100       -2.62250
S          0.03940        4.74430       -3.70700
C         -0.05020        6.48660       -3.53940
C          1.03760        6.90890       -2.77240
S          1.55110        8.48030       -2.27300
C          2.93020        7.78820       -1.42080
C          3.84330        8.64680       -0.74490
C          3.75160       10.02100       -0.63120
C          4.79180       10.58030        0.11080
C          5.68580        9.63900        0.56360
C          6.89730        9.80070        1.35650
O          7.64240        8.88890        1.63960
O          7.09250       11.07540        1.71900
C          8.24060       11.34010        2.52520
C          7.97450       11.03140        3.99170
S          5.24590        8.04340        0.07730
C          2.94910        6.41790       -1.51950
C          1.86260        5.88410       -2.25980
Cl         4.22000        5.47230       -0.88290
C         -1.08590        7.30880       -3.98480
C         -2.28150        6.94020       -4.56250
C         -2.67030        5.57480       -4.90850
O         -1.95160        4.58650       -4.98100
C         -4.11150        5.60450       -5.18750
C         -4.93670        4.51030       -5.43590
C         -6.25850        4.84220       -5.61120
C         -6.71900        6.16440       -5.56070
C         -5.91070        7.25280       -5.32310
C         -4.56320        6.93780       -5.12760
C         -3.42010        7.79870       -4.81080
C         -3.44350        9.17010       -4.78320
C         -2.33370        9.99640       -4.51110
N         -1.47770       10.73520       -4.30730
C         -4.58360        9.95100       -5.06140
N         -5.47120       10.64710       -5.27740
C         -8.14810        5.75960       -5.82840
C         -8.67330        5.98250       -7.26250
C         -9.88280        5.07930       -7.34790
C         -9.44870        3.82600       -7.38600
C         -7.93860        3.86040       -7.32790
C         -7.67490        5.16440       -8.09190
C         -7.63420        4.28470       -5.87640
H          0.96030       -7.11200        4.65490
H         -4.10040       -9.04070        1.54470
H         -3.09160      -10.61910        6.25010
H         -6.24000      -11.61320        5.30600
H         -4.59940      -13.70370        5.14810
H         -7.03270      -14.50440        4.56300
H         -7.60120      -13.69070        2.09860
H         -5.51680      -12.39140        1.16550
H         -3.51660      -12.60890        2.94610
H         -4.20730      -14.20600        2.57880
H         -6.79180      -10.81090        2.89010
H         -3.79640       -2.93510        3.00000
H         -4.93310       -1.72750        1.16740
H         -4.28460       -3.45590       -3.35030
H         -2.95890       -2.25940       -3.13930
H         -4.47650       -1.79220       -3.93980
H         -2.90840       -4.18220       -1.69480
H         -1.79650       -5.38070        0.13370
H         -1.23650       -4.71660        5.28820
H         -2.45630       -5.74220        7.14950
H         -6.54540       -8.81130        7.44200
H         -6.91700       -7.55150        6.24540
H         -5.78010       -8.88080        5.83730
H         -5.51860       -7.01410        4.44350
H         -4.29920       -6.00050        2.59370
H          5.65310       -4.04200        0.21420
H          7.26090       -5.28150        1.60400
H          7.49120       -6.47770        6.57800
H          5.81880       -6.23780        6.02500
H          6.84090       -4.82940        6.46460
H          5.05910       -4.20250        5.10740
H          3.48530       -2.95520        3.72470
H          5.57190       -1.08650        1.01630
H          6.42430        0.11650       -0.96710
H          5.21960       -1.68420       -5.00650
H          3.93560       -0.45060       -5.24240
H          5.54720       -0.20770       -5.94230
H          3.39620       -1.71770       -3.36570
H          2.59460       -2.94200       -1.42030
H          2.27300        2.37000        3.79440
H          3.69030        4.34230        4.20260
H          7.59220        6.53930        1.74220
H          6.68180        5.49250        0.63820
H          7.87950        4.77760        1.76800
H          6.09270        3.31180        0.81870
H          4.67770        1.37020        0.40760
H          3.88690       -0.22250        3.87500
H          3.03370       -1.60150        5.71240
H          1.40960       -4.69330        7.07500
H          2.35740       -4.06820        5.70790
H          2.42760       -3.25160        7.30540
H         -0.89160       -1.40930        4.03870
H         -0.05200        0.06050        2.25210
H         -1.38410        2.41970       -2.05280
H         -3.74400        1.90140       -2.33490
H         -5.91360        2.38800       -3.08600
H         -5.79480        0.75360       -2.34230
H         -7.14060        1.14710       -3.43260
H         -2.90080        0.14320       -6.14100
H         -0.50900        0.62210       -5.83030
H          3.16670        1.78150       -3.96870
H          4.57470        2.43530       -5.86560
H          3.66780        4.56610      -10.44040
H          2.27610        3.54940      -10.00780
H          2.50480        5.15010       -9.22990
H          1.09350        3.72480       -7.99540
H         -0.29690        3.11620       -6.09540
H          2.95050       10.58640       -1.07370
H          4.89920       11.62990        0.31390
H          8.45030       12.40110        2.37580
H          9.07820       10.73760        2.15800
H          7.77410        9.97000        4.11700
H          8.84560       11.29770        4.58330
H          7.11610       11.59730        4.34570
H         -0.93930        8.35650       -3.74910
H         -4.53570        3.50930       -5.47100
H         -6.28520        8.26170       -5.27700
H         -8.87150        6.03640       -5.06350
H         -8.81910        7.02360       -7.53680
H        -10.89730        5.43120       -7.31640
H        -10.02830        2.92150       -7.39280
H         -7.41440        2.96790       -7.65830
H         -6.64760        5.51790       -8.02480
H         -7.96890        5.09570       -9.13790
H         -8.01050        3.57750       -5.13930
