
  xtb     02082210233D
 energy: -385.094165352160 gnorm: 0.000369408991 xtb: 6.4.1 (unknown)
233256  0     0  0            999 V2000
    1.8780   -0.1989   -6.1403 C   0  0  0  0  0  0  0  0  0  0  0  0
    1.7880    0.4396   -7.3363 C   0  0  0  0  0  0  0  0  0  0  0  0
    0.8870   -0.1794   -8.3493 C   0  0  0  0  0  0  0  0  0  0  0  0
    0.6315   -1.3581   -8.4723 O   0  0  0  0  0  0  0  0  0  0  0  0
    0.2826    0.9566   -9.0643 C   0  0  0  0  0  0  0  0  0  0  0  0
   -0.7670    0.9174   -9.9799 C   0  0  0  0  0  0  0  0  0  0  0  0
   -1.2172    2.1547  -10.3715 C   0  0  0  0  0  0  0  0  0  0  0  0
   -0.6619    3.3496   -9.8955 C   0  0  0  0  0  0  0  0  0  0  0  0
    0.4008    3.4057   -9.0243 C   0  0  0  0  0  0  0  0  0  0  0  0
    0.8737    2.1579   -8.6162 C   0  0  0  0  0  0  0  0  0  0  0  0
    1.9936    1.8156   -7.7375 C   0  0  0  0  0  0  0  0  0  0  0  0
    3.1124    2.5872   -7.5775 C   0  0  0  0  0  0  0  0  0  0  0  0
    3.1922    3.9148   -8.0511 C   0  0  0  0  0  0  0  0  0  0  0  0
    3.2815    5.0017   -8.4078 N   0  0  0  0  0  0  0  0  0  0  0  0
    4.3589    2.1138   -7.1226 C   0  0  0  0  0  0  0  0  0  0  0  0
    5.4296    1.7776   -6.8774 N   0  0  0  0  0  0  0  0  0  0  0  0
   -1.6358    4.2033  -10.6667 C   0  0  0  0  0  0  0  0  0  0  0  0
   -2.8181    4.8289   -9.8852 C   0  0  0  0  0  0  0  0  0  0  0  0
   -3.0866    3.9245   -8.7073 C   0  0  0  0  0  0  0  0  0  0  0  0
   -3.6096    2.7972   -9.1708 C   0  0  0  0  0  0  0  0  0  0  0  0
   -3.7006    2.9183  -10.6717 C   0  0  0  0  0  0  0  0  0  0  0  0
   -3.9800    4.4239  -10.8061 C   0  0  0  0  0  0  0  0  0  0  0  0
   -2.2480    2.8723  -11.2069 C   0  0  0  0  0  0  0  0  0  0  0  0
    2.1735    0.2771   -4.8389 C   0  0  0  0  0  0  0  0  0  0  0  0
    1.4946   -0.1449   -3.6897 C   0  0  0  0  0  0  0  0  0  0  0  0
    0.4037   -0.9870   -3.6894 N   0  0  0  0  0  0  0  0  0  0  0  0
   -0.5094   -0.9539   -4.7659 C   0  0  0  0  0  0  0  0  0  0  0  0
   -0.9231    0.2593   -5.3122 C   0  0  0  0  0  0  0  0  0  0  0  0
   -1.7536    0.2762   -6.4124 C   0  0  0  0  0  0  0  0  0  0  0  0
   -2.1922   -0.9190   -6.9721 C   0  0  0  0  0  0  0  0  0  0  0  0
   -3.2111   -0.8505   -8.4128 S   0  0  0  0  0  0  0  0  0  0  0  0
   -2.6580   -2.3348   -9.3082 C   0  0  0  0  0  0  0  0  0  0  0  0
   -1.8328   -2.1277   -6.3912 C   0  0  0  0  0  0  0  0  0  0  0  0
   -0.9937   -2.1448   -5.2971 C   0  0  0  0  0  0  0  0  0  0  0  0
    0.0658   -1.7215   -2.5457 C   0  0  0  0  0  0  0  0  0  0  0  0
    1.0534   -2.2991   -1.7491 C   0  0  0  0  0  0  0  0  0  0  0  0
    0.7200   -2.9753   -0.5902 C   0  0  0  0  0  0  0  0  0  0  0  0
   -0.6104   -3.1019   -0.2163 C   0  0  0  0  0  0  0  0  0  0  0  0
   -1.1349   -3.8992    1.2773 S   0  0  0  0  0  0  0  0  0  0  0  0
    0.2917   -3.6723    2.3829 C   0  0  0  0  0  0  0  0  0  0  0  0
   -1.6043   -2.5837   -1.0441 C   0  0  0  0  0  0  0  0  0  0  0  0
   -1.2733   -1.8959   -2.1896 C   0  0  0  0  0  0  0  0  0  0  0  0
    2.0028    0.5047   -2.5437 C   0  0  0  0  0  0  0  0  0  0  0  0
    1.6098    0.4535   -0.8705 S   0  0  0  0  0  0  0  0  0  0  0  0
    2.8592    1.6393   -0.5121 C   0  0  0  0  0  0  0  0  0  0  0  0
    3.5637    2.0266   -1.6269 C   0  0  0  0  0  0  0  0  0  0  0  0
    4.6512    2.8812   -1.6520 N   0  0  0  0  0  0  0  0  0  0  0  0
    5.0104    3.5231   -2.8541 C   0  0  0  0  0  0  0  0  0  0  0  0
    6.3177    3.4226   -3.3201 C   0  0  0  0  0  0  0  0  0  0  0  0
    6.6873    4.0282   -4.5014 C   0  0  0  0  0  0  0  0  0  0  0  0
    5.7519    4.7450   -5.2381 C   0  0  0  0  0  0  0  0  0  0  0  0
    6.1554    5.5496   -6.7545 S   0  0  0  0  0  0  0  0  0  0  0  0
    7.4888    4.4993   -7.4048 C   0  0  0  0  0  0  0  0  0  0  0  0
    4.4498    4.8678   -4.7633 C   0  0  0  0  0  0  0  0  0  0  0  0
    4.0788    4.2620   -3.5804 C   0  0  0  0  0  0  0  0  0  0  0  0
    5.5075    3.0024   -0.5461 C   0  0  0  0  0  0  0  0  0  0  0  0
    6.0471    4.2480   -0.2211 C   0  0  0  0  0  0  0  0  0  0  0  0
    6.8183    4.3928    0.9103 C   0  0  0  0  0  0  0  0  0  0  0  0
    7.0698    3.3018    1.7414 C   0  0  0  0  0  0  0  0  0  0  0  0
    7.9860    3.6222    3.2170 S   0  0  0  0  0  0  0  0  0  0  0  0
    8.1888    1.9850    3.9698 C   0  0  0  0  0  0  0  0  0  0  0  0
    6.5906    2.0503    1.3820 C   0  0  0  0  0  0  0  0  0  0  0  0
    5.8276    1.9031    0.2402 C   0  0  0  0  0  0  0  0  0  0  0  0
    3.0338    1.3971   -2.7919 C   0  0  0  0  0  0  0  0  0  0  0  0
    3.3699    1.5164   -4.4794 S   0  0  0  0  0  0  0  0  0  0  0  0
    2.8920    1.8810    0.9348 C   0  0  0  0  0  0  0  0  0  0  0  0
    2.1054    2.8636    1.5290 C   0  0  0  0  0  0  0  0  0  0  0  0
    1.6249    3.9157    0.7780 O   0  0  0  0  0  0  0  0  0  0  0  0
    2.5859    4.8478    0.2968 C   0  0  0  0  0  0  0  0  0  0  0  0
    3.3685    5.5188    1.4180 C   0  0  0  0  0  0  0  0  0  0  0  0
    1.6051    2.7066    2.8456 C   0  0  0  0  0  0  0  0  0  0  0  0
    0.7155    3.5339    3.4545 O   0  0  0  0  0  0  0  0  0  0  0  0
   -0.1271    4.4353    2.7500 C   0  0  0  0  0  0  0  0  0  0  0  0
   -1.1613    4.9523    3.7381 C   0  0  0  0  0  0  0  0  0  0  0  0
    1.8861    1.5587    3.6055 C   0  0  0  0  0  0  0  0  0  0  0  0
    2.8746    0.6778    3.1093 C   0  0  0  0  0  0  0  0  0  0  0  0
    3.3346    0.8214    1.7540 C   0  0  0  0  0  0  0  0  0  0  0  0
    4.0910   -0.2077    1.3740 N   0  0  0  0  0  0  0  0  0  0  0  0
    4.2384   -1.2334    2.6051 S   0  0  0  0  0  0  0  0  0  0  0  0
    3.3216   -0.4419    3.6680 N   0  0  0  0  0  0  0  0  0  0  0  0
    0.9240    1.0908    4.5587 C   0  0  0  0  0  0  0  0  0  0  0  0
    1.0064    0.0089    5.4354 C   0  0  0  0  0  0  0  0  0  0  0  0
    2.1381   -0.3922    6.0962 N   0  0  0  0  0  0  0  0  0  0  0  0
    3.2315    0.4503    6.3112 C   0  0  0  0  0  0  0  0  0  0  0  0
    4.5123   -0.0968    6.4185 C   0  0  0  0  0  0  0  0  0  0  0  0
    5.6035    0.7125    6.6423 C   0  0  0  0  0  0  0  0  0  0  0  0
    5.4496    2.0914    6.7614 C   0  0  0  0  0  0  0  0  0  0  0  0
    6.9067    3.0450    7.0653 S   0  0  0  0  0  0  0  0  0  0  0  0
    6.4383    4.7098    6.5125 C   0  0  0  0  0  0  0  0  0  0  0  0
    4.1773    2.6402    6.6719 C   0  0  0  0  0  0  0  0  0  0  0  0
    3.0824    1.8287    6.4524 C   0  0  0  0  0  0  0  0  0  0  0  0
    2.2199   -1.7387    6.5146 C   0  0  0  0  0  0  0  0  0  0  0  0
    2.0082   -2.7633    5.6001 C   0  0  0  0  0  0  0  0  0  0  0  0
    2.0195   -4.0817    6.0080 C   0  0  0  0  0  0  0  0  0  0  0  0
    2.2268   -4.3856    7.3464 C   0  0  0  0  0  0  0  0  0  0  0  0
    2.1766   -6.0347    7.9694 S   0  0  0  0  0  0  0  0  0  0  0  0
    1.1563   -6.8809    6.7265 C   0  0  0  0  0  0  0  0  0  0  0  0
    2.4919   -3.3636    8.2558 C   0  0  0  0  0  0  0  0  0  0  0  0
    2.4918   -2.0488    7.8447 C   0  0  0  0  0  0  0  0  0  0  0  0
   -0.2675   -0.6140    5.5757 C   0  0  0  0  0  0  0  0  0  0  0  0
   -0.8333   -2.1259    6.1891 S   0  0  0  0  0  0  0  0  0  0  0  0
   -2.4312   -1.8677    5.4921 C   0  0  0  0  0  0  0  0  0  0  0  0
   -2.5056   -0.6258    4.8290 C   0  0  0  0  0  0  0  0  0  0  0  0
   -3.5170   -0.1889    3.9922 N   0  0  0  0  0  0  0  0  0  0  0  0
   -3.1303    0.2659    2.7206 C   0  0  0  0  0  0  0  0  0  0  0  0
   -3.7396    1.3661    2.1210 C   0  0  0  0  0  0  0  0  0  0  0  0
   -3.3142    1.8073    0.8826 C   0  0  0  0  0  0  0  0  0  0  0  0
   -2.2572    1.1768    0.2408 C   0  0  0  0  0  0  0  0  0  0  0  0
   -1.7134    1.6715   -1.3801 S   0  0  0  0  0  0  0  0  0  0  0  0
   -1.2226    3.3988   -1.0716 C   0  0  0  0  0  0  0  0  0  0  0  0
   -1.6450    0.0819    0.8336 C   0  0  0  0  0  0  0  0  0  0  0  0
   -2.0896   -0.3806    2.0521 C   0  0  0  0  0  0  0  0  0  0  0  0
   -4.8590   -0.2212    4.3783 C   0  0  0  0  0  0  0  0  0  0  0  0
   -5.8631   -0.5041    3.4509 C   0  0  0  0  0  0  0  0  0  0  0  0
   -7.1781   -0.5556    3.8545 C   0  0  0  0  0  0  0  0  0  0  0  0
   -7.5207   -0.3282    5.1868 C   0  0  0  0  0  0  0  0  0  0  0  0
   -9.2266   -0.4405    5.6044 S   0  0  0  0  0  0  0  0  0  0  0  0
   -9.1916   -0.6703    7.4047 C   0  0  0  0  0  0  0  0  0  0  0  0
   -6.5251   -0.0188    6.1068 C   0  0  0  0  0  0  0  0  0  0  0  0
   -5.2070    0.0307    5.7041 C   0  0  0  0  0  0  0  0  0  0  0  0
   -1.2794    0.0495    4.8923 C   0  0  0  0  0  0  0  0  0  0  0  0
   -0.7403    1.5312    4.1849 S   0  0  0  0  0  0  0  0  0  0  0  0
   -3.4614   -2.8173    5.5509 C   0  0  0  0  0  0  0  0  0  0  0  0
   -3.3740   -4.1857    5.6411 C   0  0  0  0  0  0  0  0  0  0  0  0
   -2.1820   -5.0078    5.3884 C   0  0  0  0  0  0  0  0  0  0  0  0
   -1.0114   -4.6641    5.3566 O   0  0  0  0  0  0  0  0  0  0  0  0
   -2.6804   -6.3681    5.1111 C   0  0  0  0  0  0  0  0  0  0  0  0
   -1.9311   -7.4720    4.7123 C   0  0  0  0  0  0  0  0  0  0  0  0
   -2.6749   -8.6087    4.5051 C   0  0  0  0  0  0  0  0  0  0  0  0
   -4.0640   -8.6480    4.6789 C   0  0  0  0  0  0  0  0  0  0  0  0
   -4.8163   -7.5664    5.0740 C   0  0  0  0  0  0  0  0  0  0  0  0
   -4.0782   -6.4005    5.2868 C   0  0  0  0  0  0  0  0  0  0  0  0
   -4.5169   -5.0688    5.6927 C   0  0  0  0  0  0  0  0  0  0  0  0
   -5.7720   -4.7360    6.1371 C   0  0  0  0  0  0  0  0  0  0  0  0
   -6.8708   -5.6183    6.1622 C   0  0  0  0  0  0  0  0  0  0  0  0
   -7.8096   -6.2787    6.2002 N   0  0  0  0  0  0  0  0  0  0  0  0
   -6.1130   -3.5008    6.7170 C   0  0  0  0  0  0  0  0  0  0  0  0
   -6.4634   -2.5522    7.2645 N   0  0  0  0  0  0  0  0  0  0  0  0
   -4.1549  -10.0951    4.2644 C   0  0  0  0  0  0  0  0  0  0  0  0
   -4.6676  -10.4018    2.8351 C   0  0  0  0  0  0  0  0  0  0  0  0
   -4.3405   -9.1937    1.9931 C   0  0  0  0  0  0  0  0  0  0  0  0
   -3.0247   -9.1563    1.8312 C   0  0  0  0  0  0  0  0  0  0  0  0
   -2.4382  -10.3399    2.5607 C   0  0  0  0  0  0  0  0  0  0  0  0
   -3.5661  -11.3653    2.3650 C   0  0  0  0  0  0  0  0  0  0  0  0
   -2.6059  -10.0519    4.0734 C   0  0  0  0  0  0  0  0  0  0  0  0
    1.4897   -1.2136   -6.1647 H   0  0  0  0  0  0  0  0  0  0  0  0
   -1.1729   -0.0188  -10.3250 H   0  0  0  0  0  0  0  0  0  0  0  0
    0.8226    4.3305   -8.6662 H   0  0  0  0  0  0  0  0  0  0  0  0
   -1.2008    4.8958  -11.3844 H   0  0  0  0  0  0  0  0  0  0  0  0
   -2.7008    5.8862   -9.6618 H   0  0  0  0  0  0  0  0  0  0  0  0
   -2.8265    4.1703   -7.6939 H   0  0  0  0  0  0  0  0  0  0  0  0
   -3.8757    1.9074   -8.6310 H   0  0  0  0  0  0  0  0  0  0  0  0
   -4.3859    2.2341  -11.1642 H   0  0  0  0  0  0  0  0  0  0  0  0
   -4.9525    4.7082  -10.4071 H   0  0  0  0  0  0  0  0  0  0  0  0
   -3.8767    4.7964  -11.8243 H   0  0  0  0  0  0  0  0  0  0  0  0
   -2.2047    2.6916  -12.2791 H   0  0  0  0  0  0  0  0  0  0  0  0
   -0.5784    1.1851   -4.8764 H   0  0  0  0  0  0  0  0  0  0  0  0
   -2.0602    1.2132   -6.8526 H   0  0  0  0  0  0  0  0  0  0  0  0
   -2.9436   -2.1889  -10.3456 H   0  0  0  0  0  0  0  0  0  0  0  0
   -3.1512   -3.2204   -8.9180 H   0  0  0  0  0  0  0  0  0  0  0  0
   -1.5781   -2.4106   -9.2146 H   0  0  0  0  0  0  0  0  0  0  0  0
   -2.1916   -3.0603   -6.7957 H   0  0  0  0  0  0  0  0  0  0  0  0
   -0.6967   -3.0848   -4.8559 H   0  0  0  0  0  0  0  0  0  0  0  0
    2.0907   -2.2218   -2.0392 H   0  0  0  0  0  0  0  0  0  0  0  0
    1.5074   -3.4016    0.0115 H   0  0  0  0  0  0  0  0  0  0  0  0
    1.0901   -4.3602    2.1191 H   0  0  0  0  0  0  0  0  0  0  0  0
    0.6306   -2.6415    2.3197 H   0  0  0  0  0  0  0  0  0  0  0  0
   -0.0679   -3.8946    3.3850 H   0  0  0  0  0  0  0  0  0  0  0  0
   -2.6385   -2.6981   -0.7587 H   0  0  0  0  0  0  0  0  0  0  0  0
   -2.0494   -1.4590   -2.7985 H   0  0  0  0  0  0  0  0  0  0  0  0
    7.0414    2.8599   -2.7492 H   0  0  0  0  0  0  0  0  0  0  0  0
    7.7036    3.9335   -4.8466 H   0  0  0  0  0  0  0  0  0  0  0  0
    7.5661    4.7411   -8.4601 H   0  0  0  0  0  0  0  0  0  0  0  0
    8.4287    4.7221   -6.9080 H   0  0  0  0  0  0  0  0  0  0  0  0
    7.2068    3.4580   -7.2780 H   0  0  0  0  0  0  0  0  0  0  0  0
    3.7348    5.4389   -5.3357 H   0  0  0  0  0  0  0  0  0  0  0  0
    3.0654    4.3532   -3.2159 H   0  0  0  0  0  0  0  0  0  0  0  0
    5.8487    5.0983   -0.8570 H   0  0  0  0  0  0  0  0  0  0  0  0
    7.2233    5.3576    1.1750 H   0  0  0  0  0  0  0  0  0  0  0  0
    7.2175    1.5615    4.2109 H   0  0  0  0  0  0  0  0  0  0  0  0
    8.7480    2.1531    4.8850 H   0  0  0  0  0  0  0  0  0  0  0  0
    8.7507    1.3386    3.3018 H   0  0  0  0  0  0  0  0  0  0  0  0
    6.8040    1.1766    1.9765 H   0  0  0  0  0  0  0  0  0  0  0  0
    5.4689    0.9242   -0.0350 H   0  0  0  0  0  0  0  0  0  0  0  0
    3.2758    4.3608   -0.3959 H   0  0  0  0  0  0  0  0  0  0  0  0
    1.9880    5.5801   -0.2519 H   0  0  0  0  0  0  0  0  0  0  0  0
    3.9671    4.7827    1.9522 H   0  0  0  0  0  0  0  0  0  0  0  0
    4.0339    6.2665    0.9972 H   0  0  0  0  0  0  0  0  0  0  0  0
    2.6967    6.0035    2.1231 H   0  0  0  0  0  0  0  0  0  0  0  0
    0.4555    5.2713    2.3516 H   0  0  0  0  0  0  0  0  0  0  0  0
   -0.6159    3.9152    1.9199 H   0  0  0  0  0  0  0  0  0  0  0  0
   -0.6644    5.4171    4.5852 H   0  0  0  0  0  0  0  0  0  0  0  0
   -1.7772    4.1351    4.1010 H   0  0  0  0  0  0  0  0  0  0  0  0
   -1.7940    5.6874    3.2492 H   0  0  0  0  0  0  0  0  0  0  0  0
    4.6467   -1.1619    6.3106 H   0  0  0  0  0  0  0  0  0  0  0  0
    6.5914    0.2847    6.7242 H   0  0  0  0  0  0  0  0  0  0  0  0
    5.9777    4.6466    5.5316 H   0  0  0  0  0  0  0  0  0  0  0  0
    5.7752    5.1774    7.2346 H   0  0  0  0  0  0  0  0  0  0  0  0
    7.3656    5.2699    6.4468 H   0  0  0  0  0  0  0  0  0  0  0  0
    4.0244    3.7017    6.7857 H   0  0  0  0  0  0  0  0  0  0  0  0
    2.1016    2.2762    6.4058 H   0  0  0  0  0  0  0  0  0  0  0  0
    1.8443   -2.5161    4.5631 H   0  0  0  0  0  0  0  0  0  0  0  0
    1.8566   -4.8574    5.2793 H   0  0  0  0  0  0  0  0  0  0  0  0
    1.7699   -7.1859    5.8827 H   0  0  0  0  0  0  0  0  0  0  0  0
    0.3612   -6.2096    6.4161 H   0  0  0  0  0  0  0  0  0  0  0  0
    0.7435   -7.7573    7.2166 H   0  0  0  0  0  0  0  0  0  0  0  0
    2.6762   -3.6143    9.2890 H   0  0  0  0  0  0  0  0  0  0  0  0
    2.6809   -1.2542    8.5509 H   0  0  0  0  0  0  0  0  0  0  0  0
   -4.5490    1.8704    2.6276 H   0  0  0  0  0  0  0  0  0  0  0  0
   -3.8069    2.6481    0.4174 H   0  0  0  0  0  0  0  0  0  0  0  0
   -0.3304    3.4164   -0.4515 H   0  0  0  0  0  0  0  0  0  0  0  0
   -1.0087    3.8322   -2.0433 H   0  0  0  0  0  0  0  0  0  0  0  0
   -2.0365    3.9373   -0.5970 H   0  0  0  0  0  0  0  0  0  0  0  0
   -0.8279   -0.4046    0.3262 H   0  0  0  0  0  0  0  0  0  0  0  0
   -1.6315   -1.2502    2.4978 H   0  0  0  0  0  0  0  0  0  0  0  0
   -5.5999   -0.7027    2.4227 H   0  0  0  0  0  0  0  0  0  0  0  0
   -7.9570   -0.7892    3.1451 H   0  0  0  0  0  0  0  0  0  0  0  0
   -8.4358   -1.4114    7.6477 H   0  0  0  0  0  0  0  0  0  0  0  0
  -10.1778   -1.0329    7.6769 H   0  0  0  0  0  0  0  0  0  0  0  0
   -8.9974    0.2762    7.9013 H   0  0  0  0  0  0  0  0  0  0  0  0
   -6.7655    0.1888    7.1353 H   0  0  0  0  0  0  0  0  0  0  0  0
   -4.4327    0.2638    6.4202 H   0  0  0  0  0  0  0  0  0  0  0  0
   -4.4587   -2.4090    5.4182 H   0  0  0  0  0  0  0  0  0  0  0  0
   -0.8627   -7.4057    4.5792 H   0  0  0  0  0  0  0  0  0  0  0  0
   -5.8860   -7.6061    5.1961 H   0  0  0  0  0  0  0  0  0  0  0  0
   -4.5591  -10.7808    5.0063 H   0  0  0  0  0  0  0  0  0  0  0  0
   -5.6944  -10.7546    2.7906 H   0  0  0  0  0  0  0  0  0  0  0  0
   -5.0706   -8.4792    1.6608 H   0  0  0  0  0  0  0  0  0  0  0  0
   -2.4382   -8.4031    1.3383 H   0  0  0  0  0  0  0  0  0  0  0  0
   -1.4351  -10.6374    2.2660 H   0  0  0  0  0  0  0  0  0  0  0  0
   -3.6857  -11.6666    1.3254 H   0  0  0  0  0  0  0  0  0  0  0  0
   -3.4641  -12.2482    2.9946 H   0  0  0  0  0  0  0  0  0  0  0  0
   -1.9980  -10.7095    4.6921 H   0  0  0  0  0  0  0  0  0  0  0  0
  1  2  2  0  0  0  0
  2  3  1  0  0  0  0
  3  4  2  0  0  0  0
  3  5  1  0  0  0  0
  5  6  2  0  0  0  0
  6  7  1  0  0  0  0
  7  8  2  0  0  0  0
  8  9  1  0  0  0  0
  9 10  2  0  0  0  0
 10 11  1  0  0  0  0
 11 12  2  0  0  0  0
 12 13  1  0  0  0  0
 13 14  3  0  0  0  0
 12 15  1  0  0  0  0
 15 16  3  0  0  0  0
  8 17  1  0  0  0  0
 17 18  1  0  0  0  0
 18 19  1  0  0  0  0
 19 20  2  0  0  0  0
 20 21  1  0  0  0  0
 21 22  1  0  0  0  0
 21 23  1  0  0  0  0
  1 24  1  0  0  0  0
 24 25  2  0  0  0  0
 25 26  1  0  0  0  0
 26 27  1  0  0  0  0
 27 28  2  0  0  0  0
 28 29  1  0  0  0  0
 29 30  2  0  0  0  0
 30 31  1  0  0  0  0
 31 32  1  0  0  0  0
 30 33  1  0  0  0  0
 33 34  2  0  0  0  0
 26 35  1  0  0  0  0
 35 36  2  0  0  0  0
 36 37  1  0  0  0  0
 37 38  2  0  0  0  0
 38 39  1  0  0  0  0
 39 40  1  0  0  0  0
 38 41  1  0  0  0  0
 41 42  2  0  0  0  0
 25 43  1  0  0  0  0
 43 44  1  0  0  0  0
 44 45  1  0  0  0  0
 45 46  2  0  0  0  0
 46 47  1  0  0  0  0
 47 48  1  0  0  0  0
 48 49  2  0  0  0  0
 49 50  1  0  0  0  0
 50 51  2  0  0  0  0
 51 52  1  0  0  0  0
 52 53  1  0  0  0  0
 51 54  1  0  0  0  0
 54 55  2  0  0  0  0
 47 56  1  0  0  0  0
 56 57  2  0  0  0  0
 57 58  1  0  0  0  0
 58 59  2  0  0  0  0
 59 60  1  0  0  0  0
 60 61  1  0  0  0  0
 59 62  1  0  0  0  0
 62 63  2  0  0  0  0
 46 64  1  0  0  0  0
 64 65  1  0  0  0  0
 45 66  1  0  0  0  0
 66 67  2  0  0  0  0
 67 68  1  0  0  0  0
 68 69  1  0  0  0  0
 69 70  1  0  0  0  0
 67 71  1  0  0  0  0
 71 72  1  0  0  0  0
 72 73  1  0  0  0  0
 73 74  1  0  0  0  0
 71 75  2  0  0  0  0
 75 76  1  0  0  0  0
 76 77  1  0  0  0  0
 77 78  2  0  0  0  0
 78 79  1  0  0  0  0
 79 80  1  0  0  0  0
 75 81  1  0  0  0  0
 81 82  2  0  0  0  0
 82 83  1  0  0  0  0
 83 84  1  0  0  0  0
 84 85  2  0  0  0  0
 85 86  1  0  0  0  0
 86 87  2  0  0  0  0
 87 88  1  0  0  0  0
 88 89  1  0  0  0  0
 87 90  1  0  0  0  0
 90 91  2  0  0  0  0
 83 92  1  0  0  0  0
 92 93  2  0  0  0  0
 93 94  1  0  0  0  0
 94 95  2  0  0  0  0
 95 96  1  0  0  0  0
 96 97  1  0  0  0  0
 95 98  1  0  0  0  0
 98 99  2  0  0  0  0
 82100  1  0  0  0  0
100101  1  0  0  0  0
101102  1  0  0  0  0
102103  2  0  0  0  0
103104  1  0  0  0  0
104105  1  0  0  0  0
105106  2  0  0  0  0
106107  1  0  0  0  0
107108  2  0  0  0  0
108109  1  0  0  0  0
109110  1  0  0  0  0
108111  1  0  0  0  0
111112  2  0  0  0  0
104113  1  0  0  0  0
113114  2  0  0  0  0
114115  1  0  0  0  0
115116  2  0  0  0  0
116117  1  0  0  0  0
117118  1  0  0  0  0
116119  1  0  0  0  0
119120  2  0  0  0  0
103121  1  0  0  0  0
121122  1  0  0  0  0
102123  1  0  0  0  0
123124  2  0  0  0  0
124125  1  0  0  0  0
125126  2  0  0  0  0
125127  1  0  0  0  0
127128  2  0  0  0  0
128129  1  0  0  0  0
129130  2  0  0  0  0
130131  1  0  0  0  0
131132  2  0  0  0  0
132133  1  0  0  0  0
133134  2  0  0  0  0
134135  1  0  0  0  0
135136  3  0  0  0  0
134137  1  0  0  0  0
137138  3  0  0  0  0
130139  1  0  0  0  0
139140  1  0  0  0  0
140141  1  0  0  0  0
141142  2  0  0  0  0
142143  1  0  0  0  0
143144  1  0  0  0  0
143145  1  0  0  0  0
 11  2  1  0  0  0  0
 23 17  1  0  0  0  0
 65 24  1  0  0  0  0
 77 66  1  0  0  0  0
122 81  1  0  0  0  0
133124  1  0  0  0  0
145139  1  0  0  0  0
 10  5  1  0  0  0  0
 22 18  1  0  0  0  0
 34 27  1  0  0  0  0
 42 35  1  0  0  0  0
 64 43  2  0  0  0  0
 80 76  2  0  0  0  0
 91 84  1  0  0  0  0
 99 92  1  0  0  0  0
121100  2  0  0  0  0
132127  1  0  0  0  0
144140  1  0  0  0  0
 23  7  1  0  0  0  0
 55 48  1  0  0  0  0
 63 56  1  0  0  0  0
112105  1  0  0  0  0
120113  1  0  0  0  0
145129  1  0  0  0  0
  1146  1  0  0  0  0
  6147  1  0  0  0  0
  9148  1  0  0  0  0
 17149  1  0  0  0  0
 18150  1  0  0  0  0
 19151  1  0  0  0  0
 20152  1  0  0  0  0
 21153  1  0  0  0  0
 22154  1  0  0  0  0
 22155  1  0  0  0  0
 23156  1  0  0  0  0
 28157  1  0  0  0  0
 29158  1  0  0  0  0
 32159  1  0  0  0  0
 32160  1  0  0  0  0
 32161  1  0  0  0  0
 33162  1  0  0  0  0
 34163  1  0  0  0  0
 36164  1  0  0  0  0
 37165  1  0  0  0  0
 40166  1  0  0  0  0
 40167  1  0  0  0  0
 40168  1  0  0  0  0
 41169  1  0  0  0  0
 42170  1  0  0  0  0
 49171  1  0  0  0  0
 50172  1  0  0  0  0
 53173  1  0  0  0  0
 53174  1  0  0  0  0
 53175  1  0  0  0  0
 54176  1  0  0  0  0
 55177  1  0  0  0  0
 57178  1  0  0  0  0
 58179  1  0  0  0  0
 61180  1  0  0  0  0
 61181  1  0  0  0  0
 61182  1  0  0  0  0
 62183  1  0  0  0  0
 63184  1  0  0  0  0
 69185  1  0  0  0  0
 69186  1  0  0  0  0
 70187  1  0  0  0  0
 70188  1  0  0  0  0
 70189  1  0  0  0  0
 73190  1  0  0  0  0
 73191  1  0  0  0  0
 74192  1  0  0  0  0
 74193  1  0  0  0  0
 74194  1  0  0  0  0
 85195  1  0  0  0  0
 86196  1  0  0  0  0
 89197  1  0  0  0  0
 89198  1  0  0  0  0
 89199  1  0  0  0  0
 90200  1  0  0  0  0
 91201  1  0  0  0  0
 93202  1  0  0  0  0
 94203  1  0  0  0  0
 97204  1  0  0  0  0
 97205  1  0  0  0  0
 97206  1  0  0  0  0
 98207  1  0  0  0  0
 99208  1  0  0  0  0
106209  1  0  0  0  0
107210  1  0  0  0  0
110211  1  0  0  0  0
110212  1  0  0  0  0
110213  1  0  0  0  0
111214  1  0  0  0  0
112215  1  0  0  0  0
114216  1  0  0  0  0
115217  1  0  0  0  0
118218  1  0  0  0  0
118219  1  0  0  0  0
118220  1  0  0  0  0
119221  1  0  0  0  0
120222  1  0  0  0  0
123223  1  0  0  0  0
128224  1  0  0  0  0
131225  1  0  0  0  0
139226  1  0  0  0  0
140227  1  0  0  0  0
141228  1  0  0  0  0
142229  1  0  0  0  0
143230  1  0  0  0  0
144231  1  0  0  0  0
144232  1  0  0  0  0
145233  1  0  0  0  0
M  END
