
  xtb     02072210233D
 energy: -439.024814638393 gnorm: 0.000300801661 xtb: 6.4.1 (unknown)
261285  0     0  0            999 V2000
   -7.1395    2.3236   -3.6358 C   0  0  0  0  0  0  0  0  0  0  0  0
   -7.9343    3.4501   -3.6113 C   0  0  0  0  0  0  0  0  0  0  0  0
   -7.6764    4.6734   -2.8549 C   0  0  0  0  0  0  0  0  0  0  0  0
   -6.7066    4.9328   -2.1570 O   0  0  0  0  0  0  0  0  0  0  0  0
   -8.8512    5.5410   -3.0492 C   0  0  0  0  0  0  0  0  0  0  0  0
   -9.0388    6.8287   -2.5528 C   0  0  0  0  0  0  0  0  0  0  0  0
  -10.2350    7.3986   -2.9199 C   0  0  0  0  0  0  0  0  0  0  0  0
  -11.1750    6.7353   -3.7181 C   0  0  0  0  0  0  0  0  0  0  0  0
  -11.0011    5.4638   -4.2136 C   0  0  0  0  0  0  0  0  0  0  0  0
   -9.7907    4.8666   -3.8538 C   0  0  0  0  0  0  0  0  0  0  0  0
   -9.2394    3.5596   -4.2143 C   0  0  0  0  0  0  0  0  0  0  0  0
   -9.8819    2.6200   -4.9857 C   0  0  0  0  0  0  0  0  0  0  0  0
   -9.3294    1.4145   -5.4543 C   0  0  0  0  0  0  0  0  0  0  0  0
   -8.9711    0.4233   -5.9163 N   0  0  0  0  0  0  0  0  0  0  0  0
  -11.2126    2.7251   -5.4362 C   0  0  0  0  0  0  0  0  0  0  0  0
  -12.2950    2.7100   -5.8219 N   0  0  0  0  0  0  0  0  0  0  0  0
  -12.1283    7.9045   -3.7088 C   0  0  0  0  0  0  0  0  0  0  0  0
  -12.1669    8.7700   -4.9859 C   0  0  0  0  0  0  0  0  0  0  0  0
  -12.7901   10.0678   -4.5251 C   0  0  0  0  0  0  0  0  0  0  0  0
  -11.8991   10.6973   -3.7699 C   0  0  0  0  0  0  0  0  0  0  0  0
  -10.6586    9.8357   -3.7076 C   0  0  0  0  0  0  0  0  0  0  0  0
  -10.7021    9.2097   -5.1076 C   0  0  0  0  0  0  0  0  0  0  0  0
  -11.0790    8.6454   -2.8193 C   0  0  0  0  0  0  0  0  0  0  0  0
   -5.8845    2.0952   -3.0792 C   0  0  0  0  0  0  0  0  0  0  0  0
   -5.2463    0.8262   -3.0754 C   0  0  0  0  0  0  0  0  0  0  0  0
   -5.8580   -0.3671   -3.3400 N   0  0  0  0  0  0  0  0  0  0  0  0
   -7.2225   -0.6055   -3.0938 C   0  0  0  0  0  0  0  0  0  0  0  0
   -7.8724   -0.0392   -1.9956 C   0  0  0  0  0  0  0  0  0  0  0  0
   -9.2271   -0.2144   -1.8323 C   0  0  0  0  0  0  0  0  0  0  0  0
   -9.9557   -0.9772   -2.7447 C   0  0  0  0  0  0  0  0  0  0  0  0
  -11.7020   -1.0674   -2.5089 S   0  0  0  0  0  0  0  0  0  0  0  0
  -12.3092   -1.4907   -4.1673 C   0  0  0  0  0  0  0  0  0  0  0  0
   -9.2934   -1.6207   -3.7803 C   0  0  0  0  0  0  0  0  0  0  0  0
   -7.9371   -1.4288   -3.9578 C   0  0  0  0  0  0  0  0  0  0  0  0
   -5.0593   -1.4703   -3.7114 C   0  0  0  0  0  0  0  0  0  0  0  0
   -4.2297   -1.3946   -4.8279 C   0  0  0  0  0  0  0  0  0  0  0  0
   -3.4404   -2.4688   -5.1701 C   0  0  0  0  0  0  0  0  0  0  0  0
   -3.4349   -3.6224   -4.3856 C   0  0  0  0  0  0  0  0  0  0  0  0
   -2.3011   -4.8883   -4.8598 S   0  0  0  0  0  0  0  0  0  0  0  0
   -2.4653   -6.1394   -3.5589 C   0  0  0  0  0  0  0  0  0  0  0  0
   -4.2859   -3.7092   -3.2913 C   0  0  0  0  0  0  0  0  0  0  0  0
   -5.1015   -2.6433   -2.9666 C   0  0  0  0  0  0  0  0  0  0  0  0
   -3.9079    0.9411   -2.6692 C   0  0  0  0  0  0  0  0  0  0  0  0
   -2.6025   -0.1872   -2.4797 S   0  0  0  0  0  0  0  0  0  0  0  0
   -1.6018    1.0711   -1.7483 C   0  0  0  0  0  0  0  0  0  0  0  0
   -2.2312    2.3129   -1.7514 C   0  0  0  0  0  0  0  0  0  0  0  0
   -1.6665    3.4932   -1.2938 N   0  0  0  0  0  0  0  0  0  0  0  0
   -0.3829    3.8904   -1.6814 C   0  0  0  0  0  0  0  0  0  0  0  0
    0.1953    3.4309   -2.8642 C   0  0  0  0  0  0  0  0  0  0  0  0
    1.4329    3.8940   -3.2528 C   0  0  0  0  0  0  0  0  0  0  0  0
    2.1179    4.8276   -2.4820 C   0  0  0  0  0  0  0  0  0  0  0  0
    3.6963    5.3572   -3.0804 S   0  0  0  0  0  0  0  0  0  0  0  0
    3.9197    6.9756   -2.2919 C   0  0  0  0  0  0  0  0  0  0  0  0
    1.5549    5.2755   -1.2949 C   0  0  0  0  0  0  0  0  0  0  0  0
    0.3222    4.8021   -0.8962 C   0  0  0  0  0  0  0  0  0  0  0  0
   -2.5490    4.4427   -0.7429 C   0  0  0  0  0  0  0  0  0  0  0  0
   -2.5499    5.7681   -1.1732 C   0  0  0  0  0  0  0  0  0  0  0  0
   -3.4926    6.6504   -0.6934 C   0  0  0  0  0  0  0  0  0  0  0  0
   -4.4554    6.2242    0.2143 C   0  0  0  0  0  0  0  0  0  0  0  0
   -5.6830    7.3839    0.7347 S   0  0  0  0  0  0  0  0  0  0  0  0
   -7.1431    6.3081    0.8726 C   0  0  0  0  0  0  0  0  0  0  0  0
   -4.4275    4.9192    0.6849 C   0  0  0  0  0  0  0  0  0  0  0  0
   -3.4796    4.0364    0.2096 C   0  0  0  0  0  0  0  0  0  0  0  0
   -3.5429    2.2234   -2.2738 C   0  0  0  0  0  0  0  0  0  0  0  0
   -4.8439    3.3526   -2.4045 S   0  0  0  0  0  0  0  0  0  0  0  0
   -0.4360    0.6573   -1.0623 C   0  0  0  0  0  0  0  0  0  0  0  0
    0.1613   -0.5940   -1.1890 C   0  0  0  0  0  0  0  0  0  0  0  0
    0.0298   -1.4260   -2.2911 N   0  0  0  0  0  0  0  0  0  0  0  0
    0.1397   -2.8078   -2.0804 C   0  0  0  0  0  0  0  0  0  0  0  0
   -0.5908   -3.4040   -1.0557 C   0  0  0  0  0  0  0  0  0  0  0  0
   -0.4692   -4.7559   -0.7993 C   0  0  0  0  0  0  0  0  0  0  0  0
    0.3919   -5.5323   -1.5628 C   0  0  0  0  0  0  0  0  0  0  0  0
    0.5907   -7.2727   -1.3343 S   0  0  0  0  0  0  0  0  0  0  0  0
    0.1134   -7.5110    0.4034 C   0  0  0  0  0  0  0  0  0  0  0  0
    1.1139   -4.9441   -2.5973 C   0  0  0  0  0  0  0  0  0  0  0  0
    0.9897   -3.5984   -2.8553 C   0  0  0  0  0  0  0  0  0  0  0  0
    0.2317   -0.9066   -3.5811 C   0  0  0  0  0  0  0  0  0  0  0  0
   -0.3209   -1.5681   -4.6778 C   0  0  0  0  0  0  0  0  0  0  0  0
   -0.1241   -1.0896   -5.9523 C   0  0  0  0  0  0  0  0  0  0  0  0
    0.6314    0.0620   -6.1676 C   0  0  0  0  0  0  0  0  0  0  0  0
    0.8145    0.5870   -7.8428 S   0  0  0  0  0  0  0  0  0  0  0  0
    1.8186    2.0949   -7.7231 C   0  0  0  0  0  0  0  0  0  0  0  0
    1.1929    0.7145   -5.0800 C   0  0  0  0  0  0  0  0  0  0  0  0
    0.9924    0.2368   -3.7986 C   0  0  0  0  0  0  0  0  0  0  0  0
    1.0070   -0.8649   -0.0976 C   0  0  0  0  0  0  0  0  0  0  0  0
    1.8782   -2.2598    0.3911 S   0  0  0  0  0  0  0  0  0  0  0  0
    2.5962   -1.3691    1.7353 C   0  0  0  0  0  0  0  0  0  0  0  0
    2.0767   -0.0854    1.8434 C   0  0  0  0  0  0  0  0  0  0  0  0
    2.4244    0.8464    2.8081 N   0  0  0  0  0  0  0  0  0  0  0  0
    2.6348    2.1812    2.4454 C   0  0  0  0  0  0  0  0  0  0  0  0
    2.2885    3.2101    3.3192 C   0  0  0  0  0  0  0  0  0  0  0  0
    2.5773    4.5233    3.0126 C   0  0  0  0  0  0  0  0  0  0  0  0
    3.2179    4.8332    1.8217 C   0  0  0  0  0  0  0  0  0  0  0  0
    3.6881    6.4844    1.3899 S   0  0  0  0  0  0  0  0  0  0  0  0
    3.6558    7.3714    2.9709 C   0  0  0  0  0  0  0  0  0  0  0  0
    3.5098    3.8178    0.9154 C   0  0  0  0  0  0  0  0  0  0  0  0
    3.2174    2.5063    1.2202 C   0  0  0  0  0  0  0  0  0  0  0  0
    2.4454    0.4984    4.1657 C   0  0  0  0  0  0  0  0  0  0  0  0
    1.4673   -0.3311    4.7067 C   0  0  0  0  0  0  0  0  0  0  0  0
    1.4428   -0.5952    6.0634 C   0  0  0  0  0  0  0  0  0  0  0  0
    2.3930   -0.0262    6.8983 C   0  0  0  0  0  0  0  0  0  0  0  0
    2.3965   -0.2136    8.6517 S   0  0  0  0  0  0  0  0  0  0  0  0
    0.6802   -0.6875    9.0116 C   0  0  0  0  0  0  0  0  0  0  0  0
    3.4068    0.7592    6.3522 C   0  0  0  0  0  0  0  0  0  0  0  0
    3.4341    1.0193    5.0028 C   0  0  0  0  0  0  0  0  0  0  0  0
    1.1667    0.1872    0.7895 C   0  0  0  0  0  0  0  0  0  0  0  0
    0.2094    1.5568    0.3146 S   0  0  0  0  0  0  0  0  0  0  0  0
    3.6347   -2.0775    2.4166 C   0  0  0  0  0  0  0  0  0  0  0  0
    4.5637   -2.8652    1.7406 C   0  0  0  0  0  0  0  0  0  0  0  0
    4.6879   -2.9599    0.3581 N   0  0  0  0  0  0  0  0  0  0  0  0
    4.7131   -1.8087   -0.4340 C   0  0  0  0  0  0  0  0  0  0  0  0
    5.2885   -0.6364    0.0496 C   0  0  0  0  0  0  0  0  0  0  0  0
    5.2754    0.5134   -0.7161 C   0  0  0  0  0  0  0  0  0  0  0  0
    4.6814    0.5362   -1.9728 C   0  0  0  0  0  0  0  0  0  0  0  0
    4.6187    1.8020   -2.7696 C   0  0  0  0  0  0  0  0  0  0  0  0
    4.1215   -0.6417   -2.4540 C   0  0  0  0  0  0  0  0  0  0  0  0
    4.1344   -1.7990   -1.7032 C   0  0  0  0  0  0  0  0  0  0  0  0
    4.6611   -4.2437   -0.2082 C   0  0  0  0  0  0  0  0  0  0  0  0
    5.4081   -4.5420   -1.3427 C   0  0  0  0  0  0  0  0  0  0  0  0
    5.3418   -5.8021   -1.9044 C   0  0  0  0  0  0  0  0  0  0  0  0
    4.5543   -6.7993   -1.3444 C   0  0  0  0  0  0  0  0  0  0  0  0
    4.4666   -8.1650   -1.9522 C   0  0  0  0  0  0  0  0  0  0  0  0
    3.8371   -6.5016   -0.1917 C   0  0  0  0  0  0  0  0  0  0  0  0
    3.8770   -5.2414    0.3667 C   0  0  0  0  0  0  0  0  0  0  0  0
    5.3852   -3.5868    2.6270 C   0  0  0  0  0  0  0  0  0  0  0  0
    6.7529   -4.6084    2.3902 S   0  0  0  0  0  0  0  0  0  0  0  0
    6.8993   -4.8158    4.1383 C   0  0  0  0  0  0  0  0  0  0  0  0
    5.9404   -4.0397    4.8522 C   0  0  0  0  0  0  0  0  0  0  0  0
    5.8303   -3.9669    6.2188 N   0  0  0  0  0  0  0  0  0  0  0  0
    4.5501   -4.0075    6.7987 C   0  0  0  0  0  0  0  0  0  0  0  0
    3.5527   -4.7956    6.2265 C   0  0  0  0  0  0  0  0  0  0  0  0
    2.3249   -4.9153    6.8416 C   0  0  0  0  0  0  0  0  0  0  0  0
    2.0625   -4.2797    8.0506 C   0  0  0  0  0  0  0  0  0  0  0  0
    0.7496   -4.4950    8.7420 C   0  0  0  0  0  0  0  0  0  0  0  0
    3.0528   -3.4769    8.6008 C   0  0  0  0  0  0  0  0  0  0  0  0
    4.2767   -3.3232    7.9784 C   0  0  0  0  0  0  0  0  0  0  0  0
    6.9715   -3.9484    7.0429 C   0  0  0  0  0  0  0  0  0  0  0  0
    8.1178   -3.2740    6.6238 C   0  0  0  0  0  0  0  0  0  0  0  0
    9.2678   -3.3231    7.3841 C   0  0  0  0  0  0  0  0  0  0  0  0
    9.3049   -4.0167    8.5902 C   0  0  0  0  0  0  0  0  0  0  0  0
   10.5682   -4.1264    9.3825 C   0  0  0  0  0  0  0  0  0  0  0  0
    8.1386   -4.6325    9.0282 C   0  0  0  0  0  0  0  0  0  0  0  0
    6.9856   -4.6112    8.2682 C   0  0  0  0  0  0  0  0  0  0  0  0
    5.0921   -3.3610    3.9678 C   0  0  0  0  0  0  0  0  0  0  0  0
    3.8069   -2.2051    4.1621 S   0  0  0  0  0  0  0  0  0  0  0  0
    7.7774   -5.6916    4.7616 C   0  0  0  0  0  0  0  0  0  0  0  0
    8.8528   -6.4047    4.2640 C   0  0  0  0  0  0  0  0  0  0  0  0
    9.4002   -6.2807    2.9187 C   0  0  0  0  0  0  0  0  0  0  0  0
    8.9151   -5.7093    1.9603 O   0  0  0  0  0  0  0  0  0  0  0  0
   10.6993   -6.9928    2.9458 C   0  0  0  0  0  0  0  0  0  0  0  0
   11.5860   -7.1995    1.9062 C   0  0  0  0  0  0  0  0  0  0  0  0
   11.3269   -6.5150    0.3644 Cl  0  0  0  0  0  0  0  0  0  0  0  0
   12.7115   -8.0015    2.1444 C   0  0  0  0  0  0  0  0  0  0  0  0
   13.8565   -8.2577    0.9005 Cl  0  0  0  0  0  0  0  0  0  0  0  0
   12.8756   -8.6187    3.3815 C   0  0  0  0  0  0  0  0  0  0  0  0
   14.2146   -9.6569    3.6243 Cl  0  0  0  0  0  0  0  0  0  0  0  0
   11.9595   -8.4189    4.4277 C   0  0  0  0  0  0  0  0  0  0  0  0
   12.1655   -9.3390    5.8610 Cl  0  0  0  0  0  0  0  0  0  0  0  0
   10.8963   -7.5458    4.2287 C   0  0  0  0  0  0  0  0  0  0  0  0
    9.7777   -7.1481    5.0799 C   0  0  0  0  0  0  0  0  0  0  0  0
    9.6486   -7.3596    6.4396 C   0  0  0  0  0  0  0  0  0  0  0  0
   10.7018   -7.4913    7.3610 C   0  0  0  0  0  0  0  0  0  0  0  0
   11.4759   -7.4261    8.2088 N   0  0  0  0  0  0  0  0  0  0  0  0
    8.4174   -7.3331    7.1192 C   0  0  0  0  0  0  0  0  0  0  0  0
    7.4457   -7.4248    7.7282 N   0  0  0  0  0  0  0  0  0  0  0  0
   -7.5463    1.4748   -4.1701 H   0  0  0  0  0  0  0  0  0  0  0  0
   -8.2849    7.3077   -1.9476 H   0  0  0  0  0  0  0  0  0  0  0  0
  -11.7334    4.9696   -4.8299 H   0  0  0  0  0  0  0  0  0  0  0  0
  -13.1164    7.7093   -3.2964 H   0  0  0  0  0  0  0  0  0  0  0  0
  -12.6194    8.2885   -5.8485 H   0  0  0  0  0  0  0  0  0  0  0  0
  -13.8011   10.3585   -4.7431 H   0  0  0  0  0  0  0  0  0  0  0  0
  -12.0172   11.6191   -3.2308 H   0  0  0  0  0  0  0  0  0  0  0  0
   -9.7367   10.3259   -3.4061 H   0  0  0  0  0  0  0  0  0  0  0  0
  -10.0021    8.3882   -5.2484 H   0  0  0  0  0  0  0  0  0  0  0  0
  -10.5584    9.9492   -5.8937 H   0  0  0  0  0  0  0  0  0  0  0  0
  -11.3682    8.9463   -1.8139 H   0  0  0  0  0  0  0  0  0  0  0  0
   -7.3157    0.5618   -1.2921 H   0  0  0  0  0  0  0  0  0  0  0  0
   -9.7416    0.2436   -1.0015 H   0  0  0  0  0  0  0  0  0  0  0  0
  -11.8107   -0.8659   -4.9024 H   0  0  0  0  0  0  0  0  0  0  0  0
  -12.1493   -2.5454   -4.3720 H   0  0  0  0  0  0  0  0  0  0  0  0
  -13.3730   -1.2753   -4.1569 H   0  0  0  0  0  0  0  0  0  0  0  0
   -9.8259   -2.2488   -4.4747 H   0  0  0  0  0  0  0  0  0  0  0  0
   -7.4331   -1.8963   -4.7892 H   0  0  0  0  0  0  0  0  0  0  0  0
   -4.2159   -0.4945   -5.4237 H   0  0  0  0  0  0  0  0  0  0  0  0
   -2.8153   -2.4251   -6.0473 H   0  0  0  0  0  0  0  0  0  0  0  0
   -3.4499   -6.5961   -3.6010 H   0  0  0  0  0  0  0  0  0  0  0  0
   -2.2732   -5.6843   -2.5919 H   0  0  0  0  0  0  0  0  0  0  0  0
   -1.7024   -6.8828   -3.7696 H   0  0  0  0  0  0  0  0  0  0  0  0
   -4.3214   -4.5977   -2.6824 H   0  0  0  0  0  0  0  0  0  0  0  0
   -5.7656   -2.7099   -2.1174 H   0  0  0  0  0  0  0  0  0  0  0  0
   -0.3387    2.7324   -3.4912 H   0  0  0  0  0  0  0  0  0  0  0  0
    1.8766    3.5616   -4.1781 H   0  0  0  0  0  0  0  0  0  0  0  0
    3.0160    7.5632   -2.4200 H   0  0  0  0  0  0  0  0  0  0  0  0
    4.7482    7.4454   -2.8127 H   0  0  0  0  0  0  0  0  0  0  0  0
    4.1632    6.8566   -1.2405 H   0  0  0  0  0  0  0  0  0  0  0  0
    2.0702    5.9907   -0.6756 H   0  0  0  0  0  0  0  0  0  0  0  0
   -0.1092    5.1479    0.0309 H   0  0  0  0  0  0  0  0  0  0  0  0
   -1.8311    6.0923   -1.9108 H   0  0  0  0  0  0  0  0  0  0  0  0
   -3.5131    7.6707   -1.0438 H   0  0  0  0  0  0  0  0  0  0  0  0
   -8.0092    6.9622    0.8497 H   0  0  0  0  0  0  0  0  0  0  0  0
   -7.1269    5.7584    1.8093 H   0  0  0  0  0  0  0  0  0  0  0  0
   -7.1479    5.6372    0.0186 H   0  0  0  0  0  0  0  0  0  0  0  0
   -5.1459    4.5822    1.4153 H   0  0  0  0  0  0  0  0  0  0  0  0
   -3.4633    3.0158    0.5642 H   0  0  0  0  0  0  0  0  0  0  0  0
   -1.2636   -2.7994   -0.4651 H   0  0  0  0  0  0  0  0  0  0  0  0
   -1.0538   -5.1935   -0.0047 H   0  0  0  0  0  0  0  0  0  0  0  0
   -0.9666   -7.4679    0.5123 H   0  0  0  0  0  0  0  0  0  0  0  0
    0.4661   -8.5004    0.6777 H   0  0  0  0  0  0  0  0  0  0  0  0
    0.6010   -6.7561    1.0125 H   0  0  0  0  0  0  0  0  0  0  0  0
    1.7836   -5.5534   -3.1840 H   0  0  0  0  0  0  0  0  0  0  0  0
    1.5635   -3.1475   -3.6503 H   0  0  0  0  0  0  0  0  0  0  0  0
   -0.8949   -2.4654   -4.5174 H   0  0  0  0  0  0  0  0  0  0  0  0
   -0.5470   -1.6046   -6.8010 H   0  0  0  0  0  0  0  0  0  0  0  0
    2.7917    1.8639   -7.2997 H   0  0  0  0  0  0  0  0  0  0  0  0
    1.2971    2.8444   -7.1347 H   0  0  0  0  0  0  0  0  0  0  0  0
    1.9374    2.4463   -8.7434 H   0  0  0  0  0  0  0  0  0  0  0  0
    1.8060    1.5898   -5.2141 H   0  0  0  0  0  0  0  0  0  0  0  0
    1.4488    0.7531   -2.9673 H   0  0  0  0  0  0  0  0  0  0  0  0
    1.7948    2.9793    4.2511 H   0  0  0  0  0  0  0  0  0  0  0  0
    2.2959    5.2946    3.7116 H   0  0  0  0  0  0  0  0  0  0  0  0
    4.2092    6.8058    3.7145 H   0  0  0  0  0  0  0  0  0  0  0  0
    2.6307    7.5437    3.2864 H   0  0  0  0  0  0  0  0  0  0  0  0
    4.1460    8.3221    2.7848 H   0  0  0  0  0  0  0  0  0  0  0  0
    3.9902    4.0595   -0.0198 H   0  0  0  0  0  0  0  0  0  0  0  0
    3.4710    1.7225    0.5228 H   0  0  0  0  0  0  0  0  0  0  0  0
    0.7124   -0.7562    4.0616 H   0  0  0  0  0  0  0  0  0  0  0  0
    0.6713   -1.2367    6.4575 H   0  0  0  0  0  0  0  0  0  0  0  0
    0.0048    0.0191    8.5389 H   0  0  0  0  0  0  0  0  0  0  0  0
    0.4917   -1.7004    8.6719 H   0  0  0  0  0  0  0  0  0  0  0  0
    0.5773   -0.6338   10.0909 H   0  0  0  0  0  0  0  0  0  0  0  0
    4.1616    1.1700    7.0050 H   0  0  0  0  0  0  0  0  0  0  0  0
    4.2114    1.6396    4.5828 H   0  0  0  0  0  0  0  0  0  0  0  0
    5.7498   -0.6318    1.0267 H   0  0  0  0  0  0  0  0  0  0  0  0
    5.7434    1.4093   -0.3326 H   0  0  0  0  0  0  0  0  0  0  0  0
    3.7388    2.3818   -2.4856 H   0  0  0  0  0  0  0  0  0  0  0  0
    5.4934    2.4225   -2.5912 H   0  0  0  0  0  0  0  0  0  0  0  0
    4.5509    1.5884   -3.8334 H   0  0  0  0  0  0  0  0  0  0  0  0
    3.6584   -0.6524   -3.4307 H   0  0  0  0  0  0  0  0  0  0  0  0
    3.6775   -2.6998   -2.0853 H   0  0  0  0  0  0  0  0  0  0  0  0
    6.0376   -3.7823   -1.7809 H   0  0  0  0  0  0  0  0  0  0  0  0
    5.9215   -6.0148   -2.7910 H   0  0  0  0  0  0  0  0  0  0  0  0
    4.8924   -8.9076   -1.2780 H   0  0  0  0  0  0  0  0  0  0  0  0
    5.0046   -8.2077   -2.8956 H   0  0  0  0  0  0  0  0  0  0  0  0
    3.4251   -8.4322   -2.1282 H   0  0  0  0  0  0  0  0  0  0  0  0
    3.2307   -7.2702    0.2647 H   0  0  0  0  0  0  0  0  0  0  0  0
    3.2911   -5.0162    1.2471 H   0  0  0  0  0  0  0  0  0  0  0  0
    3.7563   -5.3387    5.3153 H   0  0  0  0  0  0  0  0  0  0  0  0
    1.5657   -5.5406    6.3940 H   0  0  0  0  0  0  0  0  0  0  0  0
    0.6090   -5.5547    8.9524 H   0  0  0  0  0  0  0  0  0  0  0  0
   -0.0795   -4.1760    8.1098 H   0  0  0  0  0  0  0  0  0  0  0  0
    0.7076   -3.9520    9.6831 H   0  0  0  0  0  0  0  0  0  0  0  0
    2.8736   -2.9651    9.5345 H   0  0  0  0  0  0  0  0  0  0  0  0
    5.0294   -2.6862    8.4170 H   0  0  0  0  0  0  0  0  0  0  0  0
    8.1056   -2.7312    5.6898 H   0  0  0  0  0  0  0  0  0  0  0  0
   10.1536   -2.8117    7.0359 H   0  0  0  0  0  0  0  0  0  0  0  0
   10.3641   -4.0591   10.4487 H   0  0  0  0  0  0  0  0  0  0  0  0
   11.2745   -3.3481    9.1047 H   0  0  0  0  0  0  0  0  0  0  0  0
   11.0362   -5.0948    9.1945 H   0  0  0  0  0  0  0  0  0  0  0  0
    8.1398   -5.1677    9.9655 H   0  0  0  0  0  0  0  0  0  0  0  0
    6.1059   -5.1343    8.6080 H   0  0  0  0  0  0  0  0  0  0  0  0
    7.6073   -5.7976    5.8249 H   0  0  0  0  0  0  0  0  0  0  0  0
  1  2  2  0  0  0  0
  2  3  1  0  0  0  0
  3  4  2  0  0  0  0
  3  5  1  0  0  0  0
  5  6  2  0  0  0  0
  6  7  1  0  0  0  0
  7  8  2  0  0  0  0
  8  9  1  0  0  0  0
  9 10  2  0  0  0  0
 10 11  1  0  0  0  0
 11 12  2  0  0  0  0
 12 13  1  0  0  0  0
 13 14  3  0  0  0  0
 12 15  1  0  0  0  0
 15 16  3  0  0  0  0
  8 17  1  0  0  0  0
 17 18  1  0  0  0  0
 18 19  1  0  0  0  0
 19 20  2  0  0  0  0
 20 21  1  0  0  0  0
 21 22  1  0  0  0  0
 21 23  1  0  0  0  0
  1 24  1  0  0  0  0
 24 25  2  0  0  0  0
 25 26  1  0  0  0  0
 26 27  1  0  0  0  0
 27 28  2  0  0  0  0
 28 29  1  0  0  0  0
 29 30  2  0  0  0  0
 30 31  1  0  0  0  0
 31 32  1  0  0  0  0
 30 33  1  0  0  0  0
 33 34  2  0  0  0  0
 26 35  1  0  0  0  0
 35 36  2  0  0  0  0
 36 37  1  0  0  0  0
 37 38  2  0  0  0  0
 38 39  1  0  0  0  0
 39 40  1  0  0  0  0
 38 41  1  0  0  0  0
 41 42  2  0  0  0  0
 25 43  1  0  0  0  0
 43 44  1  0  0  0  0
 44 45  1  0  0  0  0
 45 46  2  0  0  0  0
 46 47  1  0  0  0  0
 47 48  1  0  0  0  0
 48 49  2  0  0  0  0
 49 50  1  0  0  0  0
 50 51  2  0  0  0  0
 51 52  1  0  0  0  0
 52 53  1  0  0  0  0
 51 54  1  0  0  0  0
 54 55  2  0  0  0  0
 47 56  1  0  0  0  0
 56 57  2  0  0  0  0
 57 58  1  0  0  0  0
 58 59  2  0  0  0  0
 59 60  1  0  0  0  0
 60 61  1  0  0  0  0
 59 62  1  0  0  0  0
 62 63  2  0  0  0  0
 46 64  1  0  0  0  0
 64 65  1  0  0  0  0
 45 66  1  0  0  0  0
 66 67  2  0  0  0  0
 67 68  1  0  0  0  0
 68 69  1  0  0  0  0
 69 70  2  0  0  0  0
 70 71  1  0  0  0  0
 71 72  2  0  0  0  0
 72 73  1  0  0  0  0
 73 74  1  0  0  0  0
 72 75  1  0  0  0  0
 75 76  2  0  0  0  0
 68 77  1  0  0  0  0
 77 78  2  0  0  0  0
 78 79  1  0  0  0  0
 79 80  2  0  0  0  0
 80 81  1  0  0  0  0
 81 82  1  0  0  0  0
 80 83  1  0  0  0  0
 83 84  2  0  0  0  0
 67 85  1  0  0  0  0
 85 86  1  0  0  0  0
 86 87  1  0  0  0  0
 87 88  2  0  0  0  0
 88 89  1  0  0  0  0
 89 90  1  0  0  0  0
 90 91  2  0  0  0  0
 91 92  1  0  0  0  0
 92 93  2  0  0  0  0
 93 94  1  0  0  0  0
 94 95  1  0  0  0  0
 93 96  1  0  0  0  0
 96 97  2  0  0  0  0
 89 98  1  0  0  0  0
 98 99  2  0  0  0  0
 99100  1  0  0  0  0
100101  2  0  0  0  0
101102  1  0  0  0  0
102103  1  0  0  0  0
101104  1  0  0  0  0
104105  2  0  0  0  0
 88106  1  0  0  0  0
106107  1  0  0  0  0
 87108  1  0  0  0  0
108109  2  0  0  0  0
109110  1  0  0  0  0
110111  1  0  0  0  0
111112  2  0  0  0  0
112113  1  0  0  0  0
113114  2  0  0  0  0
114115  1  0  0  0  0
114116  1  0  0  0  0
116117  2  0  0  0  0
110118  1  0  0  0  0
118119  2  0  0  0  0
119120  1  0  0  0  0
120121  2  0  0  0  0
121122  1  0  0  0  0
121123  1  0  0  0  0
123124  2  0  0  0  0
109125  1  0  0  0  0
125126  1  0  0  0  0
126127  1  0  0  0  0
127128  2  0  0  0  0
128129  1  0  0  0  0
129130  1  0  0  0  0
130131  2  0  0  0  0
131132  1  0  0  0  0
132133  2  0  0  0  0
133134  1  0  0  0  0
133135  1  0  0  0  0
135136  2  0  0  0  0
129137  1  0  0  0  0
137138  2  0  0  0  0
138139  1  0  0  0  0
139140  2  0  0  0  0
140141  1  0  0  0  0
140142  1  0  0  0  0
142143  2  0  0  0  0
128144  1  0  0  0  0
144145  1  0  0  0  0
127146  1  0  0  0  0
146147  2  0  0  0  0
147148  1  0  0  0  0
148149  2  0  0  0  0
148150  1  0  0  0  0
150151  2  0  0  0  0
151152  1  0  0  0  0
151153  1  0  0  0  0
153154  1  0  0  0  0
153155  2  0  0  0  0
155156  1  0  0  0  0
155157  1  0  0  0  0
157158  1  0  0  0  0
157159  2  0  0  0  0
159160  1  0  0  0  0
160161  2  0  0  0  0
161162  1  0  0  0  0
162163  3  0  0  0  0
161164  1  0  0  0  0
164165  3  0  0  0  0
 11  2  1  0  0  0  0
 23 17  1  0  0  0  0
 65 24  1  0  0  0  0
107 66  1  0  0  0  0
145108  1  0  0  0  0
160147  1  0  0  0  0
 10  5  1  0  0  0  0
 22 18  1  0  0  0  0
 34 27  1  0  0  0  0
 42 35  1  0  0  0  0
 64 43  2  0  0  0  0
 76 69  1  0  0  0  0
 84 77  1  0  0  0  0
106 85  2  0  0  0  0
117111  1  0  0  0  0
124118  1  0  0  0  0
144125  2  0  0  0  0
159150  1  0  0  0  0
 23  7  1  0  0  0  0
 55 48  1  0  0  0  0
 63 56  1  0  0  0  0
 97 90  1  0  0  0  0
105 98  1  0  0  0  0
136130  1  0  0  0  0
143137  1  0  0  0  0
  1166  1  0  0  0  0
  6167  1  0  0  0  0
  9168  1  0  0  0  0
 17169  1  0  0  0  0
 18170  1  0  0  0  0
 19171  1  0  0  0  0
 20172  1  0  0  0  0
 21173  1  0  0  0  0
 22174  1  0  0  0  0
 22175  1  0  0  0  0
 23176  1  0  0  0  0
 28177  1  0  0  0  0
 29178  1  0  0  0  0
 32179  1  0  0  0  0
 32180  1  0  0  0  0
 32181  1  0  0  0  0
 33182  1  0  0  0  0
 34183  1  0  0  0  0
 36184  1  0  0  0  0
 37185  1  0  0  0  0
 40186  1  0  0  0  0
 40187  1  0  0  0  0
 40188  1  0  0  0  0
 41189  1  0  0  0  0
 42190  1  0  0  0  0
 49191  1  0  0  0  0
 50192  1  0  0  0  0
 53193  1  0  0  0  0
 53194  1  0  0  0  0
 53195  1  0  0  0  0
 54196  1  0  0  0  0
 55197  1  0  0  0  0
 57198  1  0  0  0  0
 58199  1  0  0  0  0
 61200  1  0  0  0  0
 61201  1  0  0  0  0
 61202  1  0  0  0  0
 62203  1  0  0  0  0
 63204  1  0  0  0  0
 70205  1  0  0  0  0
 71206  1  0  0  0  0
 74207  1  0  0  0  0
 74208  1  0  0  0  0
 74209  1  0  0  0  0
 75210  1  0  0  0  0
 76211  1  0  0  0  0
 78212  1  0  0  0  0
 79213  1  0  0  0  0
 82214  1  0  0  0  0
 82215  1  0  0  0  0
 82216  1  0  0  0  0
 83217  1  0  0  0  0
 84218  1  0  0  0  0
 91219  1  0  0  0  0
 92220  1  0  0  0  0
 95221  1  0  0  0  0
 95222  1  0  0  0  0
 95223  1  0  0  0  0
 96224  1  0  0  0  0
 97225  1  0  0  0  0
 99226  1  0  0  0  0
100227  1  0  0  0  0
103228  1  0  0  0  0
103229  1  0  0  0  0
103230  1  0  0  0  0
104231  1  0  0  0  0
105232  1  0  0  0  0
112233  1  0  0  0  0
113234  1  0  0  0  0
115235  1  0  0  0  0
115236  1  0  0  0  0
115237  1  0  0  0  0
116238  1  0  0  0  0
117239  1  0  0  0  0
119240  1  0  0  0  0
120241  1  0  0  0  0
122242  1  0  0  0  0
122243  1  0  0  0  0
122244  1  0  0  0  0
123245  1  0  0  0  0
124246  1  0  0  0  0
131247  1  0  0  0  0
132248  1  0  0  0  0
134249  1  0  0  0  0
134250  1  0  0  0  0
134251  1  0  0  0  0
135252  1  0  0  0  0
136253  1  0  0  0  0
138254  1  0  0  0  0
139255  1  0  0  0  0
141256  1  0  0  0  0
141257  1  0  0  0  0
141258  1  0  0  0  0
142259  1  0  0  0  0
143260  1  0  0  0  0
146261  1  0  0  0  0
M  END
