
  xtb     02132203583D
 energy: -400.081506531190 gnorm: 0.000389695151 xtb: 6.4.1 (unknown)
237260  0     0  0            999 V2000
    7.1376   -3.0760   -3.4311 C   0  0  0  0  0  0  0  0  0  0  0  0
    8.2465   -2.5515   -2.7952 C   0  0  0  0  0  0  0  0  0  0  0  0
    8.1549   -1.6066   -1.6748 C   0  0  0  0  0  0  0  0  0  0  0  0
    7.1543   -1.2629   -1.0654 O   0  0  0  0  0  0  0  0  0  0  0  0
    9.5075   -1.0457   -1.5071 C   0  0  0  0  0  0  0  0  0  0  0  0
    9.8994   -0.0652   -0.6009 C   0  0  0  0  0  0  0  0  0  0  0  0
   11.2309    0.2680   -0.6850 C   0  0  0  0  0  0  0  0  0  0  0  0
   12.1043   -0.3240   -1.6053 C   0  0  0  0  0  0  0  0  0  0  0  0
   11.7276   -1.2953   -2.5048 C   0  0  0  0  0  0  0  0  0  0  0  0
   10.3795   -1.6479   -2.4351 C   0  0  0  0  0  0  0  0  0  0  0  0
    9.6145   -2.6128   -3.2225 C   0  0  0  0  0  0  0  0  0  0  0  0
   10.1291   -3.5078   -4.1287 C   0  0  0  0  0  0  0  0  0  0  0  0
   11.4857   -3.5945   -4.4923 C   0  0  0  0  0  0  0  0  0  0  0  0
   12.5731   -3.7276   -4.8385 N   0  0  0  0  0  0  0  0  0  0  0  0
    9.3645   -4.5073   -4.7576 C   0  0  0  0  0  0  0  0  0  0  0  0
    8.8234   -5.3797   -5.2757 N   0  0  0  0  0  0  0  0  0  0  0  0
   13.2754    0.5116   -1.1522 C   0  0  0  0  0  0  0  0  0  0  0  0
   13.6891    1.7131   -2.0381 C   0  0  0  0  0  0  0  0  0  0  0  0
   12.4497    2.1506   -2.7784 C   0  0  0  0  0  0  0  0  0  0  0  0
   11.6275    2.7062   -1.8984 C   0  0  0  0  0  0  0  0  0  0  0  0
   12.2955    2.6533   -0.5470 C   0  0  0  0  0  0  0  0  0  0  0  0
   13.7657    2.8121   -0.9659 C   0  0  0  0  0  0  0  0  0  0  0  0
   12.3037    1.1649   -0.1194 C   0  0  0  0  0  0  0  0  0  0  0  0
    5.8774   -3.1618   -2.8420 C   0  0  0  0  0  0  0  0  0  0  0  0
    5.5259   -3.2341   -1.4723 C   0  0  0  0  0  0  0  0  0  0  0  0
    6.3146   -3.7400   -0.4957 N   0  0  0  0  0  0  0  0  0  0  0  0
    7.5331   -4.3946   -0.7708 C   0  0  0  0  0  0  0  0  0  0  0  0
    8.6864   -4.0016   -0.0944 C   0  0  0  0  0  0  0  0  0  0  0  0
    9.8987   -4.5765   -0.4080 C   0  0  0  0  0  0  0  0  0  0  0  0
    9.9794   -5.5688   -1.3842 C   0  0  0  0  0  0  0  0  0  0  0  0
   11.5883   -6.1708   -1.7621 S   0  0  0  0  0  0  0  0  0  0  0  0
   11.3277   -7.2959   -3.1612 C   0  0  0  0  0  0  0  0  0  0  0  0
    8.8148   -6.0177   -1.9997 C   0  0  0  0  0  0  0  0  0  0  0  0
    7.6044   -5.4278   -1.6989 C   0  0  0  0  0  0  0  0  0  0  0  0
    5.9380   -3.6857    0.8674 C   0  0  0  0  0  0  0  0  0  0  0  0
    5.7319   -2.4761    1.5164 C   0  0  0  0  0  0  0  0  0  0  0  0
    5.3500   -2.4642    2.8451 C   0  0  0  0  0  0  0  0  0  0  0  0
    5.1494   -3.6567    3.5259 C   0  0  0  0  0  0  0  0  0  0  0  0
    4.5948   -3.7358    5.2002 S   0  0  0  0  0  0  0  0  0  0  0  0
    3.7537   -2.1422    5.4338 C   0  0  0  0  0  0  0  0  0  0  0  0
    5.4086   -4.8679    2.8870 C   0  0  0  0  0  0  0  0  0  0  0  0
    5.8098   -4.8822    1.5699 C   0  0  0  0  0  0  0  0  0  0  0  0
    4.1707   -2.8661   -1.2998 C   0  0  0  0  0  0  0  0  0  0  0  0
    3.1888   -2.4454    0.0633 S   0  0  0  0  0  0  0  0  0  0  0  0
    1.8583   -2.0019   -0.9918 C   0  0  0  0  0  0  0  0  0  0  0  0
    2.1561   -2.2171   -2.3329 C   0  0  0  0  0  0  0  0  0  0  0  0
    1.2955   -2.0153   -3.4173 N   0  0  0  0  0  0  0  0  0  0  0  0
    0.6981   -0.7763   -3.6354 C   0  0  0  0  0  0  0  0  0  0  0  0
   -0.5710   -0.6775   -4.2059 C   0  0  0  0  0  0  0  0  0  0  0  0
   -1.2045    0.5434   -4.3110 C   0  0  0  0  0  0  0  0  0  0  0  0
   -0.5852    1.6951   -3.8459 C   0  0  0  0  0  0  0  0  0  0  0  0
   -1.3524    3.2877   -3.8472 S   0  0  0  0  0  0  0  0  0  0  0  0
   -2.7884    3.0786   -4.9385 C   0  0  0  0  0  0  0  0  0  0  0  0
    0.7018    1.6106   -3.3200 C   0  0  0  0  0  0  0  0  0  0  0  0
    1.3401    0.3929   -3.2265 C   0  0  0  0  0  0  0  0  0  0  0  0
    1.0302   -3.1278   -4.2264 C   0  0  0  0  0  0  0  0  0  0  0  0
    0.8680   -2.9964   -5.6055 C   0  0  0  0  0  0  0  0  0  0  0  0
    0.6062   -4.1045   -6.3797 C   0  0  0  0  0  0  0  0  0  0  0  0
    0.5143   -5.3701   -5.8016 C   0  0  0  0  0  0  0  0  0  0  0  0
    0.1688   -6.7150   -6.8941 S   0  0  0  0  0  0  0  0  0  0  0  0
   -0.0412   -8.1337   -5.7819 C   0  0  0  0  0  0  0  0  0  0  0  0
    0.6926   -5.5076   -4.4329 C   0  0  0  0  0  0  0  0  0  0  0  0
    0.9429   -4.3944   -3.6555 C   0  0  0  0  0  0  0  0  0  0  0  0
    3.4763   -2.6807   -2.4889 C   0  0  0  0  0  0  0  0  0  0  0  0
    4.4519   -2.9642   -3.8815 S   0  0  0  0  0  0  0  0  0  0  0  0
    0.6311   -1.5241   -0.4581 C   0  0  0  0  0  0  0  0  0  0  0  0
    0.3817   -0.8232    0.7164 C   0  0  0  0  0  0  0  0  0  0  0  0
    1.3080   -0.3539    1.6377 N   0  0  0  0  0  0  0  0  0  0  0  0
    0.9267   -0.4207    2.9900 C   0  0  0  0  0  0  0  0  0  0  0  0
    1.0743    0.6707    3.8401 C   0  0  0  0  0  0  0  0  0  0  0  0
    0.7093    0.5819    5.1692 C   0  0  0  0  0  0  0  0  0  0  0  0
    0.1790   -0.6009    5.6679 C   0  0  0  0  0  0  0  0  0  0  0  0
   -0.2998   -0.8454    7.3476 S   0  0  0  0  0  0  0  0  0  0  0  0
    0.0546    0.7467    8.1436 C   0  0  0  0  0  0  0  0  0  0  0  0
    0.0092   -1.6895    4.8137 C   0  0  0  0  0  0  0  0  0  0  0  0
    0.3801   -1.6027    3.4911 C   0  0  0  0  0  0  0  0  0  0  0  0
    2.5003    0.2668    1.2625 C   0  0  0  0  0  0  0  0  0  0  0  0
    2.6566    0.8263   -0.0036 C   0  0  0  0  0  0  0  0  0  0  0  0
    3.8694    1.3524   -0.4019 C   0  0  0  0  0  0  0  0  0  0  0  0
    4.9505    1.3574    0.4695 C   0  0  0  0  0  0  0  0  0  0  0  0
    6.5459    1.9858    0.0507 S   0  0  0  0  0  0  0  0  0  0  0  0
    6.5815    1.8299   -1.7555 C   0  0  0  0  0  0  0  0  0  0  0  0
    4.7764    0.8730    1.7627 C   0  0  0  0  0  0  0  0  0  0  0  0
    3.5734    0.3293    2.1527 C   0  0  0  0  0  0  0  0  0  0  0  0
   -1.0015   -0.5593    0.8562 C   0  0  0  0  0  0  0  0  0  0  0  0
   -1.9416    0.3415    1.9885 S   0  0  0  0  0  0  0  0  0  0  0  0
   -3.3792    0.1765    0.9772 C   0  0  0  0  0  0  0  0  0  0  0  0
   -3.1207   -0.5464   -0.1855 C   0  0  0  0  0  0  0  0  0  0  0  0
   -3.9707   -0.7884   -1.2574 N   0  0  0  0  0  0  0  0  0  0  0  0
   -4.7177    0.2355   -1.8492 C   0  0  0  0  0  0  0  0  0  0  0  0
   -4.3715    1.5764   -1.6958 C   0  0  0  0  0  0  0  0  0  0  0  0
   -5.1408    2.5725   -2.2656 C   0  0  0  0  0  0  0  0  0  0  0  0
   -6.2617    2.2466   -3.0171 C   0  0  0  0  0  0  0  0  0  0  0  0
   -7.2814    3.4490   -3.8136 S   0  0  0  0  0  0  0  0  0  0  0  0
   -7.0292    4.9294   -2.7949 C   0  0  0  0  0  0  0  0  0  0  0  0
   -6.5988    0.9070   -3.1947 C   0  0  0  0  0  0  0  0  0  0  0  0
   -5.8484   -0.0850   -2.6063 C   0  0  0  0  0  0  0  0  0  0  0  0
   -3.7523   -1.9841   -1.9695 C   0  0  0  0  0  0  0  0  0  0  0  0
   -3.6559   -1.9941   -3.3578 C   0  0  0  0  0  0  0  0  0  0  0  0
   -3.3760   -3.1607   -4.0400 C   0  0  0  0  0  0  0  0  0  0  0  0
   -3.1869   -4.3467   -3.3437 C   0  0  0  0  0  0  0  0  0  0  0  0
   -2.7885   -5.8790   -4.1168 S   0  0  0  0  0  0  0  0  0  0  0  0
   -3.0180   -5.5437   -5.8856 C   0  0  0  0  0  0  0  0  0  0  0  0
   -3.3048   -4.3484   -1.9553 C   0  0  0  0  0  0  0  0  0  0  0  0
   -3.5880   -3.1843   -1.2759 C   0  0  0  0  0  0  0  0  0  0  0  0
   -1.7780   -0.9939   -0.2027 C   0  0  0  0  0  0  0  0  0  0  0  0
   -0.8391   -1.8402   -1.3730 S   0  0  0  0  0  0  0  0  0  0  0  0
   -4.5493    0.8402    1.4339 C   0  0  0  0  0  0  0  0  0  0  0  0
   -5.8087    0.8987    0.8997 C   0  0  0  0  0  0  0  0  0  0  0  0
   -6.6756    1.7772    1.5848 C   0  0  0  0  0  0  0  0  0  0  0  0
   -7.9890    2.1348    1.2173 C   0  0  0  0  0  0  0  0  0  0  0  0
   -8.6241    1.5614    0.0473 C   0  0  0  0  0  0  0  0  0  0  0  0
   -8.6779    0.2552   -0.3474 C   0  0  0  0  0  0  0  0  0  0  0  0
   -9.3709    0.0712   -1.5605 C   0  0  0  0  0  0  0  0  0  0  0  0
   -9.8320    1.2306   -2.1042 C   0  0  0  0  0  0  0  0  0  0  0  0
  -10.5860    1.4359   -3.3713 C   0  0  0  0  0  0  0  0  0  0  0  0
  -11.9857    1.9918   -3.1078 C   0  0  0  0  0  0  0  0  0  0  0  0
   -9.4349    2.5846   -1.1032 S   0  0  0  0  0  0  0  0  0  0  0  0
   -8.6074    3.0999    1.9994 C   0  0  0  0  0  0  0  0  0  0  0  0
   -8.0082    3.6692    3.1574 C   0  0  0  0  0  0  0  0  0  0  0  0
   -6.7042    3.2740    3.5528 C   0  0  0  0  0  0  0  0  0  0  0  0
   -6.1066    3.7773    4.7666 C   0  0  0  0  0  0  0  0  0  0  0  0
   -6.7138    4.0431    5.9663 C   0  0  0  0  0  0  0  0  0  0  0  0
   -5.8183    4.4866    6.9560 C   0  0  0  0  0  0  0  0  0  0  0  0
   -4.5290    4.5729    6.5246 C   0  0  0  0  0  0  0  0  0  0  0  0
   -3.3156    4.9769    7.2880 C   0  0  0  0  0  0  0  0  0  0  0  0
   -2.3572    3.7979    7.4684 C   0  0  0  0  0  0  0  0  0  0  0  0
   -4.3935    4.0849    4.8687 S   0  0  0  0  0  0  0  0  0  0  0  0
   -6.0598    2.3743    2.7144 C   0  0  0  0  0  0  0  0  0  0  0  0
   -4.4169    1.8196    2.8845 S   0  0  0  0  0  0  0  0  0  0  0  0
   -8.8252    4.6427    3.7521 C   0  0  0  0  0  0  0  0  0  0  0  0
  -10.0410    4.8128    3.1253 C   0  0  0  0  0  0  0  0  0  0  0  0
  -10.1889    3.7599    1.7191 S   0  0  0  0  0  0  0  0  0  0  0  0
  -11.1072    5.6966    3.3705 C   0  0  0  0  0  0  0  0  0  0  0  0
  -11.3836    6.4823    4.4613 C   0  0  0  0  0  0  0  0  0  0  0  0
  -10.7630    6.4266    5.8003 C   0  0  0  0  0  0  0  0  0  0  0  0
   -9.7927    5.8007    6.1733 O   0  0  0  0  0  0  0  0  0  0  0  0
  -11.6121    7.2787    6.6644 C   0  0  0  0  0  0  0  0  0  0  0  0
  -11.4780    7.5154    8.0181 C   0  0  0  0  0  0  0  0  0  0  0  0
  -12.4071    8.3483    8.6197 C   0  0  0  0  0  0  0  0  0  0  0  0
  -12.3158    8.6068    9.9306 F   0  0  0  0  0  0  0  0  0  0  0  0
  -13.4380    8.9189    7.8729 C   0  0  0  0  0  0  0  0  0  0  0  0
  -14.3258    9.7138    8.4815 F   0  0  0  0  0  0  0  0  0  0  0  0
  -13.5703    8.6829    6.5126 C   0  0  0  0  0  0  0  0  0  0  0  0
  -12.6424    7.8523    5.9035 C   0  0  0  0  0  0  0  0  0  0  0  0
  -12.4945    7.4149    4.5164 C   0  0  0  0  0  0  0  0  0  0  0  0
  -13.2319    7.8845    3.4608 C   0  0  0  0  0  0  0  0  0  0  0  0
  -13.0235    7.5656    2.1013 C   0  0  0  0  0  0  0  0  0  0  0  0
  -12.9110    7.3881    0.9723 N   0  0  0  0  0  0  0  0  0  0  0  0
  -14.2931    8.8056    3.5894 C   0  0  0  0  0  0  0  0  0  0  0  0
  -15.1696    9.5458    3.6278 N   0  0  0  0  0  0  0  0  0  0  0  0
    7.2056   -3.3390   -4.4799 H   0  0  0  0  0  0  0  0  0  0  0  0
    9.1932    0.3738    0.0874 H   0  0  0  0  0  0  0  0  0  0  0  0
   12.4077   -1.7405   -3.2122 H   0  0  0  0  0  0  0  0  0  0  0  0
   14.1348   -0.0358   -0.7702 H   0  0  0  0  0  0  0  0  0  0  0  0
   14.5744    1.5424   -2.6448 H   0  0  0  0  0  0  0  0  0  0  0  0
   12.2796    1.9646   -3.8228 H   0  0  0  0  0  0  0  0  0  0  0  0
   10.6329    3.0796   -2.0596 H   0  0  0  0  0  0  0  0  0  0  0  0
   11.9110    3.3375    0.2048 H   0  0  0  0  0  0  0  0  0  0  0  0
   14.4709    2.5894   -0.1664 H   0  0  0  0  0  0  0  0  0  0  0  0
   13.9814    3.7944   -1.3837 H   0  0  0  0  0  0  0  0  0  0  0  0
   12.5252    1.0379    0.9385 H   0  0  0  0  0  0  0  0  0  0  0  0
    8.6264   -3.2286    0.6567 H   0  0  0  0  0  0  0  0  0  0  0  0
   10.8013   -4.2531    0.0871 H   0  0  0  0  0  0  0  0  0  0  0  0
   10.7773   -8.1741   -2.8360 H   0  0  0  0  0  0  0  0  0  0  0  0
   12.3224   -7.5828   -3.4878 H   0  0  0  0  0  0  0  0  0  0  0  0
   10.8121   -6.7803   -3.9659 H   0  0  0  0  0  0  0  0  0  0  0  0
    8.8388   -6.8157   -2.7227 H   0  0  0  0  0  0  0  0  0  0  0  0
    6.7091   -5.7676   -2.1975 H   0  0  0  0  0  0  0  0  0  0  0  0
    5.8942   -1.5533    0.9810 H   0  0  0  0  0  0  0  0  0  0  0  0
    5.2218   -1.5191    3.3431 H   0  0  0  0  0  0  0  0  0  0  0  0
    4.4778   -1.3383    5.5313 H   0  0  0  0  0  0  0  0  0  0  0  0
    3.0743   -1.9697    4.6043 H   0  0  0  0  0  0  0  0  0  0  0  0
    3.1883   -2.2390    6.3556 H   0  0  0  0  0  0  0  0  0  0  0  0
    5.2813   -5.7899    3.4327 H   0  0  0  0  0  0  0  0  0  0  0  0
    6.0062   -5.8186    1.0689 H   0  0  0  0  0  0  0  0  0  0  0  0
   -1.0789   -1.5725   -4.5297 H   0  0  0  0  0  0  0  0  0  0  0  0
   -2.1937    0.5833   -4.7381 H   0  0  0  0  0  0  0  0  0  0  0  0
   -3.5384    2.4517   -4.4632 H   0  0  0  0  0  0  0  0  0  0  0  0
   -3.1893    4.0762   -5.0889 H   0  0  0  0  0  0  0  0  0  0  0  0
   -2.4671    2.6646   -5.8895 H   0  0  0  0  0  0  0  0  0  0  0  0
    1.1924    2.5122   -2.9853 H   0  0  0  0  0  0  0  0  0  0  0  0
    2.3449    0.3311   -2.8366 H   0  0  0  0  0  0  0  0  0  0  0  0
    0.9546   -2.0229   -6.0640 H   0  0  0  0  0  0  0  0  0  0  0  0
    0.4809   -4.0058   -7.4476 H   0  0  0  0  0  0  0  0  0  0  0  0
   -0.8181   -7.9191   -5.0533 H   0  0  0  0  0  0  0  0  0  0  0  0
   -0.3442   -8.9603   -6.4172 H   0  0  0  0  0  0  0  0  0  0  0  0
    0.9022   -8.3696   -5.2983 H   0  0  0  0  0  0  0  0  0  0  0  0
    0.6269   -6.4706   -3.9546 H   0  0  0  0  0  0  0  0  0  0  0  0
    1.0604   -4.5077   -2.5878 H   0  0  0  0  0  0  0  0  0  0  0  0
    1.4751    1.5961    3.4544 H   0  0  0  0  0  0  0  0  0  0  0  0
    0.8358    1.4461    5.8006 H   0  0  0  0  0  0  0  0  0  0  0  0
    1.1169    0.9650    8.0843 H   0  0  0  0  0  0  0  0  0  0  0  0
   -0.2376    0.6235    9.1819 H   0  0  0  0  0  0  0  0  0  0  0  0
   -0.5394    1.5310    7.6845 H   0  0  0  0  0  0  0  0  0  0  0  0
   -0.4069   -2.6045    5.2060 H   0  0  0  0  0  0  0  0  0  0  0  0
    0.2595   -2.4521    2.8347 H   0  0  0  0  0  0  0  0  0  0  0  0
    1.8154    0.8537   -0.6789 H   0  0  0  0  0  0  0  0  0  0  0  0
    3.9582    1.7693   -1.3931 H   0  0  0  0  0  0  0  0  0  0  0  0
    5.9563    2.5884   -2.2184 H   0  0  0  0  0  0  0  0  0  0  0  0
    7.6169    1.9775   -2.0478 H   0  0  0  0  0  0  0  0  0  0  0  0
    6.2627    0.8273   -2.0236 H   0  0  0  0  0  0  0  0  0  0  0  0
    5.6070    0.9149    2.4511 H   0  0  0  0  0  0  0  0  0  0  0  0
    3.4558   -0.0601    3.1515 H   0  0  0  0  0  0  0  0  0  0  0  0
   -3.4857    1.8450   -1.1410 H   0  0  0  0  0  0  0  0  0  0  0  0
   -4.8437    3.6001   -2.1296 H   0  0  0  0  0  0  0  0  0  0  0  0
   -6.0636    5.3792   -3.0078 H   0  0  0  0  0  0  0  0  0  0  0  0
   -7.8230    5.6168   -3.0692 H   0  0  0  0  0  0  0  0  0  0  0  0
   -7.1186    4.6590   -1.7471 H   0  0  0  0  0  0  0  0  0  0  0  0
   -7.4651    0.6562   -3.7862 H   0  0  0  0  0  0  0  0  0  0  0  0
   -6.1367   -1.1190   -2.7220 H   0  0  0  0  0  0  0  0  0  0  0  0
   -3.7834   -1.0750   -3.9085 H   0  0  0  0  0  0  0  0  0  0  0  0
   -3.2914   -3.1262   -5.1144 H   0  0  0  0  0  0  0  0  0  0  0  0
   -4.0235   -5.1719   -6.0588 H   0  0  0  0  0  0  0  0  0  0  0  0
   -2.8849   -6.4959   -6.3893 H   0  0  0  0  0  0  0  0  0  0  0  0
   -2.2650   -4.8423   -6.2337 H   0  0  0  0  0  0  0  0  0  0  0  0
   -3.1710   -5.2743   -1.4176 H   0  0  0  0  0  0  0  0  0  0  0  0
   -3.6765   -3.1930   -0.1995 H   0  0  0  0  0  0  0  0  0  0  0  0
   -6.1169    0.3491    0.0335 H   0  0  0  0  0  0  0  0  0  0  0  0
   -8.2723   -0.5534    0.2348 H   0  0  0  0  0  0  0  0  0  0  0  0
   -9.5185   -0.8926   -2.0154 H   0  0  0  0  0  0  0  0  0  0  0  0
  -10.0365    2.1356   -4.0079 H   0  0  0  0  0  0  0  0  0  0  0  0
  -10.6583    0.4801   -3.8953 H   0  0  0  0  0  0  0  0  0  0  0  0
  -12.5557    1.3056   -2.4852 H   0  0  0  0  0  0  0  0  0  0  0  0
  -11.9200    2.9490   -2.5958 H   0  0  0  0  0  0  0  0  0  0  0  0
  -12.5171    2.1346   -4.0452 H   0  0  0  0  0  0  0  0  0  0  0  0
   -7.7607    3.8888    6.1519 H   0  0  0  0  0  0  0  0  0  0  0  0
   -6.1235    4.7353    7.9567 H   0  0  0  0  0  0  0  0  0  0  0  0
   -3.6239    5.3570    8.2640 H   0  0  0  0  0  0  0  0  0  0  0  0
   -2.7970    5.7792    6.7566 H   0  0  0  0  0  0  0  0  0  0  0  0
   -2.0436    3.4224    6.4961 H   0  0  0  0  0  0  0  0  0  0  0  0
   -1.4783    4.1105    8.0280 H   0  0  0  0  0  0  0  0  0  0  0  0
   -2.8498    2.9927    8.0097 H   0  0  0  0  0  0  0  0  0  0  0  0
   -8.5259    5.2369    4.5931 H   0  0  0  0  0  0  0  0  0  0  0  0
  -11.8308    5.7275    2.5640 H   0  0  0  0  0  0  0  0  0  0  0  0
  -10.6801    7.0704    8.5908 H   0  0  0  0  0  0  0  0  0  0  0  0
  -14.3862    9.1452    5.9821 H   0  0  0  0  0  0  0  0  0  0  0  0
  1  2  2  0  0  0  0
  2  3  1  0  0  0  0
  3  4  2  0  0  0  0
  3  5  1  0  0  0  0
  5  6  2  0  0  0  0
  6  7  1  0  0  0  0
  7  8  2  0  0  0  0
  8  9  1  0  0  0  0
  9 10  2  0  0  0  0
 10 11  1  0  0  0  0
 11 12  2  0  0  0  0
 12 13  1  0  0  0  0
 13 14  3  0  0  0  0
 12 15  1  0  0  0  0
 15 16  3  0  0  0  0
  8 17  1  0  0  0  0
 17 18  1  0  0  0  0
 18 19  1  0  0  0  0
 19 20  2  0  0  0  0
 20 21  1  0  0  0  0
 21 22  1  0  0  0  0
 21 23  1  0  0  0  0
  1 24  1  0  0  0  0
 24 25  2  0  0  0  0
 25 26  1  0  0  0  0
 26 27  1  0  0  0  0
 27 28  2  0  0  0  0
 28 29  1  0  0  0  0
 29 30  2  0  0  0  0
 30 31  1  0  0  0  0
 31 32  1  0  0  0  0
 30 33  1  0  0  0  0
 33 34  2  0  0  0  0
 26 35  1  0  0  0  0
 35 36  2  0  0  0  0
 36 37  1  0  0  0  0
 37 38  2  0  0  0  0
 38 39  1  0  0  0  0
 39 40  1  0  0  0  0
 38 41  1  0  0  0  0
 41 42  2  0  0  0  0
 25 43  1  0  0  0  0
 43 44  1  0  0  0  0
 44 45  1  0  0  0  0
 45 46  2  0  0  0  0
 46 47  1  0  0  0  0
 47 48  1  0  0  0  0
 48 49  2  0  0  0  0
 49 50  1  0  0  0  0
 50 51  2  0  0  0  0
 51 52  1  0  0  0  0
 52 53  1  0  0  0  0
 51 54  1  0  0  0  0
 54 55  2  0  0  0  0
 47 56  1  0  0  0  0
 56 57  2  0  0  0  0
 57 58  1  0  0  0  0
 58 59  2  0  0  0  0
 59 60  1  0  0  0  0
 60 61  1  0  0  0  0
 59 62  1  0  0  0  0
 62 63  2  0  0  0  0
 46 64  1  0  0  0  0
 64 65  1  0  0  0  0
 45 66  1  0  0  0  0
 66 67  2  0  0  0  0
 67 68  1  0  0  0  0
 68 69  1  0  0  0  0
 69 70  2  0  0  0  0
 70 71  1  0  0  0  0
 71 72  2  0  0  0  0
 72 73  1  0  0  0  0
 73 74  1  0  0  0  0
 72 75  1  0  0  0  0
 75 76  2  0  0  0  0
 68 77  1  0  0  0  0
 77 78  2  0  0  0  0
 78 79  1  0  0  0  0
 79 80  2  0  0  0  0
 80 81  1  0  0  0  0
 81 82  1  0  0  0  0
 80 83  1  0  0  0  0
 83 84  2  0  0  0  0
 67 85  1  0  0  0  0
 85 86  1  0  0  0  0
 86 87  1  0  0  0  0
 87 88  2  0  0  0  0
 88 89  1  0  0  0  0
 89 90  1  0  0  0  0
 90 91  2  0  0  0  0
 91 92  1  0  0  0  0
 92 93  2  0  0  0  0
 93 94  1  0  0  0  0
 94 95  1  0  0  0  0
 93 96  1  0  0  0  0
 96 97  2  0  0  0  0
 89 98  1  0  0  0  0
 98 99  2  0  0  0  0
 99100  1  0  0  0  0
100101  2  0  0  0  0
101102  1  0  0  0  0
102103  1  0  0  0  0
101104  1  0  0  0  0
104105  2  0  0  0  0
 88106  1  0  0  0  0
106107  1  0  0  0  0
 87108  1  0  0  0  0
108109  2  0  0  0  0
109110  1  0  0  0  0
110111  2  0  0  0  0
111112  1  0  0  0  0
112113  2  0  0  0  0
113114  1  0  0  0  0
114115  2  0  0  0  0
115116  1  0  0  0  0
116117  1  0  0  0  0
115118  1  0  0  0  0
111119  1  0  0  0  0
119120  2  0  0  0  0
120121  1  0  0  0  0
121122  1  0  0  0  0
122123  2  0  0  0  0
123124  1  0  0  0  0
124125  2  0  0  0  0
125126  1  0  0  0  0
126127  1  0  0  0  0
125128  1  0  0  0  0
121129  2  0  0  0  0
129130  1  0  0  0  0
120131  1  0  0  0  0
131132  2  0  0  0  0
132133  1  0  0  0  0
132134  1  0  0  0  0
134135  2  0  0  0  0
135136  1  0  0  0  0
136137  2  0  0  0  0
136138  1  0  0  0  0
138139  2  0  0  0  0
139140  1  0  0  0  0
140141  1  0  0  0  0
140142  2  0  0  0  0
142143  1  0  0  0  0
142144  1  0  0  0  0
144145  2  0  0  0  0
145146  1  0  0  0  0
146147  2  0  0  0  0
147148  1  0  0  0  0
148149  3  0  0  0  0
147150  1  0  0  0  0
150151  3  0  0  0  0
 11  2  1  0  0  0  0
 23 17  1  0  0  0  0
 65 24  1  0  0  0  0
107 66  1  0  0  0  0
130108  1  0  0  0  0
146135  1  0  0  0  0
 10  5  1  0  0  0  0
 22 18  1  0  0  0  0
 34 27  1  0  0  0  0
 42 35  1  0  0  0  0
 64 43  2  0  0  0  0
 76 69  1  0  0  0  0
 84 77  1  0  0  0  0
106 85  2  0  0  0  0
129110  1  0  0  0  0
145138  1  0  0  0  0
 23  7  1  0  0  0  0
 55 48  1  0  0  0  0
 63 56  1  0  0  0  0
 97 90  1  0  0  0  0
105 98  1  0  0  0  0
118112  1  0  0  0  0
133119  1  0  0  0  0
128122  1  0  0  0  0
  1152  1  0  0  0  0
  6153  1  0  0  0  0
  9154  1  0  0  0  0
 17155  1  0  0  0  0
 18156  1  0  0  0  0
 19157  1  0  0  0  0
 20158  1  0  0  0  0
 21159  1  0  0  0  0
 22160  1  0  0  0  0
 22161  1  0  0  0  0
 23162  1  0  0  0  0
 28163  1  0  0  0  0
 29164  1  0  0  0  0
 32165  1  0  0  0  0
 32166  1  0  0  0  0
 32167  1  0  0  0  0
 33168  1  0  0  0  0
 34169  1  0  0  0  0
 36170  1  0  0  0  0
 37171  1  0  0  0  0
 40172  1  0  0  0  0
 40173  1  0  0  0  0
 40174  1  0  0  0  0
 41175  1  0  0  0  0
 42176  1  0  0  0  0
 49177  1  0  0  0  0
 50178  1  0  0  0  0
 53179  1  0  0  0  0
 53180  1  0  0  0  0
 53181  1  0  0  0  0
 54182  1  0  0  0  0
 55183  1  0  0  0  0
 57184  1  0  0  0  0
 58185  1  0  0  0  0
 61186  1  0  0  0  0
 61187  1  0  0  0  0
 61188  1  0  0  0  0
 62189  1  0  0  0  0
 63190  1  0  0  0  0
 70191  1  0  0  0  0
 71192  1  0  0  0  0
 74193  1  0  0  0  0
 74194  1  0  0  0  0
 74195  1  0  0  0  0
 75196  1  0  0  0  0
 76197  1  0  0  0  0
 78198  1  0  0  0  0
 79199  1  0  0  0  0
 82200  1  0  0  0  0
 82201  1  0  0  0  0
 82202  1  0  0  0  0
 83203  1  0  0  0  0
 84204  1  0  0  0  0
 91205  1  0  0  0  0
 92206  1  0  0  0  0
 95207  1  0  0  0  0
 95208  1  0  0  0  0
 95209  1  0  0  0  0
 96210  1  0  0  0  0
 97211  1  0  0  0  0
 99212  1  0  0  0  0
100213  1  0  0  0  0
103214  1  0  0  0  0
103215  1  0  0  0  0
103216  1  0  0  0  0
104217  1  0  0  0  0
105218  1  0  0  0  0
109219  1  0  0  0  0
113220  1  0  0  0  0
114221  1  0  0  0  0
116222  1  0  0  0  0
116223  1  0  0  0  0
117224  1  0  0  0  0
117225  1  0  0  0  0
117226  1  0  0  0  0
123227  1  0  0  0  0
124228  1  0  0  0  0
126229  1  0  0  0  0
126230  1  0  0  0  0
127231  1  0  0  0  0
127232  1  0  0  0  0
127233  1  0  0  0  0
131234  1  0  0  0  0
134235  1  0  0  0  0
139236  1  0  0  0  0
144237  1  0  0  0  0
M  END
