273

C         -5.77360        7.37910       -0.60490
C         -5.16780        8.40870       -1.26490
C         -3.79080        8.86350       -0.97740
O         -3.00680        8.36590       -0.19360
C         -3.63300       10.14050       -1.69670
C         -2.50120       10.95030       -1.73240
C         -2.65060       12.09600       -2.47580
C         -3.85470       12.43570       -3.10750
C         -4.98280       11.65150       -3.07520
C         -4.83950       10.46550       -2.35000
C         -5.79850        9.39180       -2.11620
C         -7.03520        9.26120       -2.69440
C         -7.85130        8.12070       -2.54310
N         -8.54400        7.20650       -2.48630
C         -7.62620       10.21750       -3.54350
N         -8.16320       10.96210       -4.23360
C         -3.30420       13.73790       -3.63420
C         -2.93040       13.81270       -5.13400
C         -2.61010       12.40170       -5.56180
C         -1.46650       12.05530       -4.98670
C         -0.99190       13.22530       -4.16160
C         -1.51030       14.38990       -5.02040
C         -1.95480       13.34510       -2.95380
C         -5.11870        6.24960       -0.05250
C         -4.22410        5.38050       -0.67450
N         -3.73070        5.47610       -1.97060
C         -2.70790        6.38930       -2.28620
C         -2.75530        7.09570       -3.48480
C         -1.77180        8.01310       -3.78210
C         -0.71860        8.22890       -2.89390
S          0.48120        9.43400       -3.37050
C          1.56760        9.57290       -1.92320
C         -0.65550        7.50630       -1.71240
C         -1.65040        6.59600       -1.40860
C         -3.88460        4.32080       -2.75570
C         -2.82290        3.77170       -3.46730
C         -2.97690        2.58160       -4.15270
C         -4.20210        1.92930       -4.15030
S         -4.49920        0.36040       -4.90310
C         -2.90170       -0.09360       -5.62750
C         -5.28600        2.51570       -3.49590
C         -5.12910        3.68950       -2.79680
C         -4.02740        4.22150        0.11080
S         -3.02010        2.83860       -0.08260
C         -3.51290        2.23310        1.50290
C         -4.41700        3.07080        2.12590
N         -5.02170        2.81910        3.34520
C         -6.38280        3.06890        3.52660
C         -7.26390        3.08380        2.44300
C         -8.60150        3.34630        2.63600
C         -9.10380        3.57060        3.91590
S        -10.84710        3.83280        4.04390
C        -11.07640        4.38590        5.75780
C         -8.23560        3.54530        4.99830
C         -6.88850        3.31060        4.80210
C         -4.23670        2.32990        4.40640
C         -4.60280        1.16880        5.07870
C         -3.82450        0.68460        6.11020
C         -2.67050        1.36090        6.48690
S         -1.63200        0.81230        7.80520
C         -1.92970       -0.98230        7.82840
C         -2.31500        2.53840        5.83580
C         -3.08850        3.01590        4.79890
C         -4.70500        4.20230        1.31540
S         -5.68390        5.61590        1.49120
C         -2.87870        0.99490        1.86910
C         -2.85770       -0.10350        1.02750
N         -3.72640       -0.27940       -0.03970
C         -3.23380       -0.95110       -1.16570
C         -1.94060       -0.67270       -1.60710
C         -1.36090       -1.42820       -2.60550
C         -2.07250       -2.46740       -3.18930
S         -1.34580       -3.53210       -4.40640
C          0.34710       -3.70650       -3.76390
C         -3.39500       -2.68600       -2.81970
C         -3.97180       -1.94020       -1.81470
C         -5.09520       -0.03030        0.12860
C         -5.70700       -0.17350        1.37110
C         -7.06220        0.04660        1.52150
C         -7.83360        0.41520        0.42760
S         -9.57070        0.71670        0.49480
C        -10.04370        0.21940        2.17370
C         -7.22080        0.57340       -0.81470
C         -5.87010        0.35390       -0.96450
C         -1.85700       -1.02610        1.40610
S         -1.26900       -2.49420        0.72660
C          0.03470       -2.54640        1.90730
C         -0.07080       -1.53240        2.85820
N          0.73450       -1.34680        3.96730
C          1.19570       -2.42270        4.73180
C          0.48080       -3.61880        4.80710
C          0.99800       -4.69370        5.49460
C          2.23480       -4.60450        6.13140
S          2.81520       -6.06030        6.93940
C          4.48460       -5.61290        7.49300
C          2.93020       -3.40320        6.09650
C          2.41480       -2.32810        5.40180
C          1.02820       -0.02650        4.35050
C          1.32580        0.92730        3.38170
C          1.54770        2.24460        3.73200
C          1.48480        2.62590        5.06470
S          1.71210        4.28300        5.62980
C          1.66450        5.26620        4.10410
C          1.23490        1.66450        6.04240
C          1.00550        0.35430        5.69100
C         -1.13520       -0.65320        2.52730
S         -1.71390        0.84450        3.18020
C          1.06620       -3.48860        1.64610
C          2.30430       -3.64090        2.20570
C          3.10230       -4.62200        1.57630
C          4.41990       -5.00130        1.90350
C          5.15210       -4.41690        3.00940
C          5.97030       -5.06120        3.89740
C          6.57700       -4.19190        4.82040
C          6.24610       -2.87580        4.65600
Si         6.93560       -1.36690        5.55870
C          7.78030       -2.00820        7.14910
C          8.49630       -0.90930        7.92550
C          8.19600       -0.54500        4.37470
C          9.36440       -1.46000        4.01750
C          5.55060       -0.12650        6.01590
C          4.94140        0.59590        4.81840
S          5.15110       -2.70650        3.32400
C          5.00510       -5.96420        1.08750
C          4.35260       -6.52950       -0.04110
C          3.03100       -6.14840       -0.36800
C          2.35270       -6.61430       -1.55690
C          1.02140       -6.90560       -1.71270
C          0.68510       -7.24140       -3.03290
C          1.73570       -7.18990       -3.90720
Si         1.77650       -7.58440       -5.75240
C          1.80370       -9.48970       -5.95140
C          0.65750      -10.18730       -5.22460
C          0.22200       -6.79080       -6.54080
C         -0.18930       -7.42420       -7.86620
C          3.40200       -6.83350       -6.42460
C          3.57570       -6.95830       -7.93380
S          3.18390       -6.74430       -3.07860
C          2.43690       -5.22770        0.48120
S          0.83340       -4.57790        0.28910
C          5.16680       -7.44630       -0.72710
C          6.43050       -7.57240       -0.20530
S          6.62670       -6.57050        1.23550
C          7.55540       -8.31710       -0.62310
C          7.77520       -9.05490       -1.75250
C          6.88530       -9.27420       -2.91950
O          5.68870       -9.07720       -3.00460
C          7.74620       -9.82660       -3.98000
C          9.02420      -10.05420       -3.47600
C         10.03080      -10.56850       -4.30540
C          9.73070      -10.84330       -5.61410
C          8.44240      -10.63030       -6.15150
C          8.14210      -10.91880       -7.49830
C          6.88580      -10.70280       -7.99460
C          5.87270      -10.18890       -7.16970
C          6.12600       -9.89470       -5.85880
C          7.41080      -10.10830       -5.31880
C          9.05510       -9.67250       -2.06770
C         10.08820       -9.92090       -1.20330
C         11.29890      -10.54790       -1.56790
N         12.31070      -11.04370       -1.78850
C         10.09540       -9.64350        0.18120
N         10.18800       -9.47820        1.31410
H         -6.85020        7.39480       -0.47540
H         -1.60260       10.66720       -1.20790
H         -5.90620       11.92730       -3.55720
H         -3.80510       14.63810       -3.28310
H         -3.64320       14.35270       -5.75140
H         -3.25730       11.80090       -6.17360
H         -0.95910       11.10980       -5.01940
H          0.06260       13.22490       -3.89870
H         -1.00600       14.45960       -5.98300
H         -1.47280       15.35400       -4.51460
H         -1.56270       14.00100       -2.17840
H         -3.57430        6.92710       -4.16820
H         -1.81420        8.58080       -4.69920
H          0.98340        9.82820       -1.04410
H          2.11700        8.64750       -1.77610
H          2.25930       10.37720       -2.15390
H          0.15120        7.64570       -1.01160
H         -1.60850        6.04250       -0.48310
H         -1.86260        4.26600       -3.46070
H         -2.12750        2.16790       -4.67150
H         -2.14500       -0.12990       -4.84980
H         -2.63740        0.60830       -6.41340
H         -3.04010       -1.08610       -6.04520
H         -6.25130        2.03640       -3.54320
H         -5.96850        4.12840       -2.27830
H         -6.90430        2.87610        1.44750
H         -9.27550        3.36650        1.79370
H        -10.44020        5.24380        5.95410
H        -12.12030        4.67370        5.83470
H        -10.86870        3.57340        6.44850
H         -8.59040        3.71520        6.00210
H         -6.22100        3.31440        5.65080
H         -5.50260        0.64800        4.78530
H         -4.12500       -0.21890        6.61660
H         -1.88880       -1.36560        6.81320
H         -2.88390       -1.20690        8.29590
H         -1.12710       -1.41090        8.42070
H         -1.42670        3.06540        6.14670
H         -2.81060        3.92300        4.28310
H         -1.38550        0.13260       -1.14750
H         -0.34990       -1.21170       -2.91580
H          0.75340       -4.60470       -4.21910
H          0.30490       -3.82410       -2.68510
H          0.95110       -2.84700       -4.04040
H         -3.95480       -3.47010       -3.30470
H         -4.98420       -2.14590       -1.50280
H         -5.12060       -0.47280        2.22770
H         -7.50550       -0.07690        2.49660
H         -9.78770       -0.82380        2.33460
H        -11.12030        0.34970        2.22100
H         -9.56630        0.86680        2.90360
H         -7.82260        0.86830       -1.66030
H         -5.40170        0.46820       -1.92890
H         -0.47610       -3.70650        4.31530
H          0.45100       -5.62270        5.54140
H          4.43150       -4.84430        8.25880
H          4.90480       -6.52160        7.91290
H          5.07790       -5.28620        6.64390
H          3.88560       -3.29260        6.58360
H          2.97650       -1.40930        5.35090
H          1.37940        0.63350        2.34360
H          1.77130        2.95830        2.95590
H          0.75990        5.03600        3.54910
H          1.64920        6.30330        4.42450
H          2.55310        5.07960        3.50780
H          1.19760        1.96220        7.07870
H          0.79080       -0.37770        6.45370
H          2.65610       -3.05240        3.02750
H          6.10910       -6.12770        3.90380
H          7.25420       -4.52610        5.58660
H          7.04550       -2.48090        7.80250
H          8.50450       -2.78070        6.89100
H          7.79580       -0.13980        8.23950
H          8.97670       -1.31330        8.81500
H          9.26140       -0.44230        7.31070
H          7.68690       -0.25320        3.45460
H          8.58410        0.37300        4.81850
H          9.93170       -1.72600        4.90580
H         10.03920       -0.97050        3.31760
H          9.00460       -2.37820        3.55860
H          5.95310        0.62150        6.69990
H          4.76020       -0.64070        6.56490
H          4.11930        1.23830        5.13080
H          4.56030       -0.11310        4.08630
H          5.68880        1.21360        4.32750
H          0.31870       -6.91690       -0.89870
H         -0.31140       -7.50650       -3.33770
H          1.76280       -9.75050       -7.01000
H          2.74780       -9.88320       -5.57000
H          0.70720      -11.26520       -5.36910
H          0.70560       -9.98360       -4.15780
H         -0.30440       -9.83880       -5.59240
H         -0.61790       -6.85760       -5.84800
H          0.39340       -5.72470       -6.70090
H          0.61330       -7.35690       -8.59580
H         -0.43560       -8.47420       -7.73190
H         -1.06350       -6.92090       -8.27540
H          4.24660       -7.31470       -5.92920
H          3.45470       -5.77820       -6.15170
H          4.55040       -6.58520       -8.24410
H          3.49500       -7.99560       -8.24870
H          2.81300       -6.38470       -8.45450
H          4.84360       -8.01060       -1.58060
H          8.39660       -8.22210        0.05390
H         11.02600      -10.73950       -3.93010
H         10.49770      -11.23610       -6.26610
H          8.92370      -11.31420       -8.13100
H          6.66470      -10.92700       -9.02770
H          4.88720      -10.02660       -7.57950
H          5.35530       -9.50010       -5.21590
