
  xtb     02152204323D
 energy: -195.865502865529 gnorm: 0.000626925180 xtb: 6.4.1 (unknown)
100113  0     0  0            999 V2000
    3.1301   -4.6874   -1.0567 C   0  0  0  0  0  0  0  0  0  0  0  0
    4.3651   -4.1796   -0.8053 C   0  0  0  0  0  0  0  0  0  0  0  0
    4.6466   -2.7381   -0.5593 C   0  0  0  0  0  0  0  0  0  0  0  0
    3.8643   -1.8119   -0.5817 O   0  0  0  0  0  0  0  0  0  0  0  0
    6.1102   -2.6348   -0.4316 C   0  0  0  0  0  0  0  0  0  0  0  0
    6.8406   -1.4761   -0.1738 C   0  0  0  0  0  0  0  0  0  0  0  0
    8.1986   -1.6719   -0.1152 C   0  0  0  0  0  0  0  0  0  0  0  0
    8.7911   -2.9272   -0.3126 C   0  0  0  0  0  0  0  0  0  0  0  0
    8.0846   -4.0744   -0.5828 C   0  0  0  0  0  0  0  0  0  0  0  0
    6.6970   -3.8996   -0.6374 C   0  0  0  0  0  0  0  0  0  0  0  0
    5.6379   -4.8738   -0.8840 C   0  0  0  0  0  0  0  0  0  0  0  0
    5.8150   -6.2174   -1.0825 C   0  0  0  0  0  0  0  0  0  0  0  0
    4.7768   -7.1578   -1.2562 C   0  0  0  0  0  0  0  0  0  0  0  0
    4.0000   -7.9926   -1.3897 N   0  0  0  0  0  0  0  0  0  0  0  0
    7.0697   -6.8609   -1.1318 C   0  0  0  0  0  0  0  0  0  0  0  0
    8.0540   -7.4493   -1.1875 N   0  0  0  0  0  0  0  0  0  0  0  0
   10.1853   -2.3899   -0.1044 C   0  0  0  0  0  0  0  0  0  0  0  0
   10.8364   -2.6782    1.2652 C   0  0  0  0  0  0  0  0  0  0  0  0
   11.9465   -1.6564    1.3597 C   0  0  0  0  0  0  0  0  0  0  0  0
   11.3864   -0.4679    1.5455 C   0  0  0  0  0  0  0  0  0  0  0  0
    9.8882   -0.6665    1.5797 C   0  0  0  0  0  0  0  0  0  0  0  0
    9.8206   -2.0539    2.2308 C   0  0  0  0  0  0  0  0  0  0  0  0
    9.5246   -0.9911    0.1150 C   0  0  0  0  0  0  0  0  0  0  0  0
    1.9090   -4.0092   -0.7517 C   0  0  0  0  0  0  0  0  0  0  0  0
    1.7252   -3.2361    0.4086 C   0  0  0  0  0  0  0  0  0  0  0  0
    0.5065   -2.4894    0.6551 C   0  0  0  0  0  0  0  0  0  0  0  0
    0.5836   -1.7869    1.7931 N   0  0  0  0  0  0  0  0  0  0  0  0
    1.9861   -2.0835    2.4897 S   0  0  0  0  0  4  0  0  0  0  0  0
    2.5981   -3.0913    1.4099 N   0  0  0  0  0  0  0  0  0  0  0  0
   -0.5748   -2.5024   -0.2347 C   0  0  0  0  0  0  0  0  0  0  0  0
   -0.4320   -3.3425   -1.3453 C   0  0  0  0  0  0  0  0  0  0  0  0
   -1.3519   -3.5744   -2.2908 N   0  0  0  0  0  0  0  0  0  0  0  0
   -0.7508   -4.5949   -3.3602 S   0  0  0  0  0  0  0  0  0  0  0  0
    0.6977   -4.8188   -2.7119 N   0  0  0  0  0  0  0  0  0  0  0  0
    0.7822   -4.1002   -1.5882 C   0  0  0  0  0  0  0  0  0  0  0  0
   -1.7241   -1.6295   -0.0466 C   0  0  0  0  0  0  0  0  0  0  0  0
   -2.3948   -1.5394    1.1547 C   0  0  0  0  0  0  0  0  0  0  0  0
   -2.0879   -2.3650    2.1648 F   0  0  0  0  0  0  0  0  0  0  0  0
   -3.4565   -0.6411    1.3414 C   0  0  0  0  0  0  0  0  0  0  0  0
   -4.0968   -0.6639    2.5193 F   0  0  0  0  0  0  0  0  0  0  0  0
   -3.8844    0.1998    0.3360 C   0  0  0  0  0  0  0  0  0  0  0  0
   -3.2213    0.1244   -0.9185 C   0  0  0  0  0  0  0  0  0  0  0  0
   -3.5783    0.9537   -1.9126 N   0  0  0  0  0  0  0  0  0  0  0  0
   -2.9612    0.8886   -3.0622 C   0  0  0  0  0  0  0  0  0  0  0  0
   -3.3963    1.8344   -4.1411 C   0  0  0  0  0  0  0  0  0  0  0  0
   -4.4978    2.7794   -3.6813 C   0  0  0  0  0  0  0  0  0  0  0  0
   -1.8936   -0.0396   -3.2583 C   0  0  0  0  0  0  0  0  0  0  0  0
   -1.5108   -0.8250   -2.2875 N   0  0  0  0  0  0  0  0  0  0  0  0
   -2.1519   -0.7871   -1.1085 C   0  0  0  0  0  0  0  0  0  0  0  0
   -1.1037   -0.1278   -4.5287 C   0  0  0  0  0  0  0  0  0  0  0  0
    0.1234    0.7848   -4.4545 C   0  0  0  0  0  0  0  0  0  0  0  0
   -4.9535    1.1666    0.5431 C   0  0  0  0  0  0  0  0  0  0  0  0
   -4.9328    2.0673    1.6145 C   0  0  0  0  0  0  0  0  0  0  0  0
   -5.9384    3.0991    1.7854 C   0  0  0  0  0  0  0  0  0  0  0  0
   -5.7344    3.7975    2.9064 N   0  0  0  0  0  0  0  0  0  0  0  0
   -4.4009    3.2677    3.6128 S   0  0  0  0  0  4  0  0  0  0  0  0
   -4.0103    2.1147    2.5847 N   0  0  0  0  0  0  0  0  0  0  0  0
   -6.9871    3.2832    0.8673 C   0  0  0  0  0  0  0  0  0  0  0  0
   -7.0538    2.3174   -0.1550 C   0  0  0  0  0  0  0  0  0  0  0  0
   -7.9998    2.2393   -1.0959 N   0  0  0  0  0  0  0  0  0  0  0  0
   -7.6711    0.9991   -2.0579 S   0  0  0  0  0  0  0  0  0  0  0  0
   -6.3226    0.4952   -1.3672 N   0  0  0  0  0  0  0  0  0  0  0  0
   -6.0439    1.2887   -0.3254 C   0  0  0  0  0  0  0  0  0  0  0  0
   -7.9646    4.3207    0.9652 C   0  0  0  0  0  0  0  0  0  0  0  0
   -7.7456    5.5674    1.4475 C   0  0  0  0  0  0  0  0  0  0  0  0
   -9.0530    6.6805    1.7918 S   0  0  0  0  0  0  0  0  0  0  0  0
   -7.9363    7.8903    2.4153 C   0  0  0  0  0  0  0  0  0  0  0  0
   -8.3983    9.3114    3.0688 S   0  0  0  0  0  0  0  0  0  0  0  0
   -6.6582    7.4723    2.2530 N   0  0  0  0  0  0  0  0  0  0  0  0
   -5.5229    8.2669    2.6786 C   0  0  0  0  0  0  0  0  0  0  0  0
   -5.1959    8.0004    4.1427 C   0  0  0  0  0  0  0  0  0  0  0  0
   -6.4550    6.2259    1.6788 C   0  0  0  0  0  0  0  0  0  0  0  0
   -5.3573    5.8287    1.3597 O   0  0  0  0  0  0  0  0  0  0  0  0
    3.0191   -5.6468   -1.5453 H   0  0  0  0  0  0  0  0  0  0  0  0
    6.3431   -0.5289   -0.0350 H   0  0  0  0  0  0  0  0  0  0  0  0
    8.5567   -5.0287   -0.7453 H   0  0  0  0  0  0  0  0  0  0  0  0
   10.8733   -2.5172   -0.9379 H   0  0  0  0  0  0  0  0  0  0  0  0
   11.1111   -3.7165    1.4285 H   0  0  0  0  0  0  0  0  0  0  0  0
   12.9874   -1.8878    1.2304 H   0  0  0  0  0  0  0  0  0  0  0  0
   11.8658    0.4917    1.6022 H   0  0  0  0  0  0  0  0  0  0  0  0
    9.2994    0.1282    2.0298 H   0  0  0  0  0  0  0  0  0  0  0  0
   10.1820   -2.0442    3.2578 H   0  0  0  0  0  0  0  0  0  0  0  0
    8.8345   -2.5132    2.1963 H   0  0  0  0  0  0  0  0  0  0  0  0
    9.7704   -0.1847   -0.5734 H   0  0  0  0  0  0  0  0  0  0  0  0
   -3.7474    1.2470   -4.9951 H   0  0  0  0  0  0  0  0  0  0  0  0
   -2.5297    2.4094   -4.4772 H   0  0  0  0  0  0  0  0  0  0  0  0
   -4.7645    3.4644   -4.4824 H   0  0  0  0  0  0  0  0  0  0  0  0
   -5.3782    2.2123   -3.3946 H   0  0  0  0  0  0  0  0  0  0  0  0
   -4.1692    3.3526   -2.8190 H   0  0  0  0  0  0  0  0  0  0  0  0
   -1.7204    0.1431   -5.3856 H   0  0  0  0  0  0  0  0  0  0  0  0
   -0.7674   -1.1588   -4.6446 H   0  0  0  0  0  0  0  0  0  0  0  0
    0.7009    0.7094   -5.3724 H   0  0  0  0  0  0  0  0  0  0  0  0
   -0.1694    1.8229   -4.3140 H   0  0  0  0  0  0  0  0  0  0  0  0
    0.7538    0.4890   -3.6199 H   0  0  0  0  0  0  0  0  0  0  0  0
   -8.9560    4.0676    0.6114 H   0  0  0  0  0  0  0  0  0  0  0  0
   -5.7656    9.3204    2.5236 H   0  0  0  0  0  0  0  0  0  0  0  0
   -4.6850    7.9760    2.0404 H   0  0  0  0  0  0  0  0  0  0  0  0
   -6.0317    8.2920    4.7742 H   0  0  0  0  0  0  0  0  0  0  0  0
   -4.9886    6.9432    4.2932 H   0  0  0  0  0  0  0  0  0  0  0  0
   -4.3220    8.5763    4.4325 H   0  0  0  0  0  0  0  0  0  0  0  0
  1  2  2  0  0  0  0
  2  3  1  0  0  0  0
  3  4  2  0  0  0  0
  3  5  1  0  0  0  0
  5  6  2  0  0  0  0
  6  7  1  0  0  0  0
  7  8  2  0  0  0  0
  8  9  1  0  0  0  0
  9 10  2  0  0  0  0
 10 11  1  0  0  0  0
 11 12  2  0  0  0  0
 12 13  1  0  0  0  0
 13 14  3  0  0  0  0
 12 15  1  0  0  0  0
 15 16  3  0  0  0  0
  8 17  1  0  0  0  0
 17 18  1  0  0  0  0
 18 19  1  0  0  0  0
 19 20  2  0  0  0  0
 20 21  1  0  0  0  0
 21 22  1  0  0  0  0
 21 23  1  0  0  0  0
  1 24  1  0  0  0  0
 24 25  2  0  0  0  0
 25 26  1  0  0  0  0
 26 27  1  0  0  0  0
 27 28  2  0  0  0  0
 28 29  2  0  0  0  0
 26 30  2  0  0  0  0
 30 31  1  0  0  0  0
 31 32  2  0  0  0  0
 32 33  1  0  0  0  0
 33 34  1  0  0  0  0
 34 35  2  0  0  0  0
 30 36  1  0  0  0  0
 36 37  2  0  0  0  0
 37 38  1  0  0  0  0
 37 39  1  0  0  0  0
 39 40  1  0  0  0  0
 39 41  2  0  0  0  0
 41 42  1  0  0  0  0
 42 43  2  0  0  0  0
 43 44  1  0  0  0  0
 44 45  1  0  0  0  0
 45 46  1  0  0  0  0
 44 47  2  0  0  0  0
 47 48  1  0  0  0  0
 48 49  2  0  0  0  0
 47 50  1  0  0  0  0
 50 51  1  0  0  0  0
 41 52  1  0  0  0  0
 52 53  2  0  0  0  0
 53 54  1  0  0  0  0
 54 55  1  0  0  0  0
 55 56  2  0  0  0  0
 56 57  2  0  0  0  0
 54 58  2  0  0  0  0
 58 59  1  0  0  0  0
 59 60  2  0  0  0  0
 60 61  1  0  0  0  0
 61 62  1  0  0  0  0
 62 63  2  0  0  0  0
 58 64  1  0  0  0  0
 64 65  2  0  0  0  0
 65 66  1  0  0  0  0
 66 67  1  0  0  0  0
 67 68  2  0  0  0  0
 67 69  1  0  0  0  0
 69 70  1  0  0  0  0
 70 71  1  0  0  0  0
 69 72  1  0  0  0  0
 72 73  2  0  0  0  0
 11  2  1  0  0  0  0
 23 17  1  0  0  0  0
 35 24  1  0  0  0  0
 49 36  1  0  0  0  0
 63 52  1  0  0  0  0
 72 65  1  0  0  0  0
 10  5  1  0  0  0  0
 22 18  1  0  0  0  0
 29 25  1  0  0  0  0
 35 31  1  0  0  0  0
 49 42  1  0  0  0  0
 57 53  1  0  0  0  0
 63 59  1  0  0  0  0
 23  7  1  0  0  0  0
  1 74  1  0  0  0  0
  6 75  1  0  0  0  0
  9 76  1  0  0  0  0
 17 77  1  0  0  0  0
 18 78  1  0  0  0  0
 19 79  1  0  0  0  0
 20 80  1  0  0  0  0
 21 81  1  0  0  0  0
 22 82  1  0  0  0  0
 22 83  1  0  0  0  0
 23 84  1  0  0  0  0
 45 85  1  0  0  0  0
 45 86  1  0  0  0  0
 46 87  1  0  0  0  0
 46 88  1  0  0  0  0
 46 89  1  0  0  0  0
 50 90  1  0  0  0  0
 50 91  1  0  0  0  0
 51 92  1  0  0  0  0
 51 93  1  0  0  0  0
 51 94  1  0  0  0  0
 64 95  1  0  0  0  0
 70 96  1  0  0  0  0
 70 97  1  0  0  0  0
 71 98  1  0  0  0  0
 71 99  1  0  0  0  0
 71100  1  0  0  0  0
M  END
