
  xtb     02052222243D
 energy: -297.954433048925 gnorm: 0.000412958807 xtb: 6.4.1 (unknown)
188202  0     0  0            999 V2000
   -0.8264    5.1349   -5.5776 C   0  0  0  0  0  0  0  0  0  0  0  0
   -1.3740    4.4894   -6.6383 C   0  0  0  0  0  0  0  0  0  0  0  0
   -1.5724    3.0179   -6.7413 C   0  0  0  0  0  0  0  0  0  0  0  0
   -1.1422    2.1428   -6.0209 O   0  0  0  0  0  0  0  0  0  0  0  0
   -2.4886    2.8238   -7.8812 C   0  0  0  0  0  0  0  0  0  0  0  0
   -3.0167    1.6135   -8.3229 C   0  0  0  0  0  0  0  0  0  0  0  0
   -3.8773    1.7322   -9.3863 C   0  0  0  0  0  0  0  0  0  0  0  0
   -4.1957    2.9662   -9.9700 C   0  0  0  0  0  0  0  0  0  0  0  0
   -3.6816    4.1673   -9.5462 C   0  0  0  0  0  0  0  0  0  0  0  0
   -2.8009    4.0680   -8.4638 C   0  0  0  0  0  0  0  0  0  0  0  0
   -2.0842    5.1119   -7.7430 C   0  0  0  0  0  0  0  0  0  0  0  0
   -2.0420    6.4390   -8.0817 C   0  0  0  0  0  0  0  0  0  0  0  0
   -2.7374    7.0106   -9.1673 C   0  0  0  0  0  0  0  0  0  0  0  0
   -3.2835    7.5460  -10.0240 N   0  0  0  0  0  0  0  0  0  0  0  0
   -1.2838    7.4224   -7.4119 C   0  0  0  0  0  0  0  0  0  0  0  0
   -0.6886    8.2814   -6.9350 N   0  0  0  0  0  0  0  0  0  0  0  0
   -5.1420    2.3420  -10.9648 C   0  0  0  0  0  0  0  0  0  0  0  0
   -6.6607    2.4707  -10.6884 C   0  0  0  0  0  0  0  0  0  0  0  0
   -6.8116    2.6185   -9.1947 C   0  0  0  0  0  0  0  0  0  0  0  0
   -6.5072    1.4537   -8.6385 C   0  0  0  0  0  0  0  0  0  0  0  0
   -6.1488    0.4952   -9.7478 C   0  0  0  0  0  0  0  0  0  0  0  0
   -7.0819    1.0025  -10.8587 C   0  0  0  0  0  0  0  0  0  0  0  0
   -4.7870    0.9678  -10.3144 C   0  0  0  0  0  0  0  0  0  0  0  0
   -0.1370    4.4893   -4.4964 C   0  0  0  0  0  0  0  0  0  0  0  0
    0.7811    3.4377   -4.7157 C   0  0  0  0  0  0  0  0  0  0  0  0
    1.2081    3.2406   -5.9882 O   0  0  0  0  0  0  0  0  0  0  0  0
    2.6027    3.0593   -6.2220 C   0  0  0  0  0  0  0  0  0  0  0  0
    2.7648    2.4796   -7.6173 C   0  0  0  0  0  0  0  0  0  0  0  0
    1.1820    2.6600   -3.6241 C   0  0  0  0  0  0  0  0  0  0  0  0
    1.9789    1.5486   -3.7821 O   0  0  0  0  0  0  0  0  0  0  0  0
    1.3455    0.4581   -4.4531 C   0  0  0  0  0  0  0  0  0  0  0  0
    2.4151   -0.5425   -4.8518 C   0  0  0  0  0  0  0  0  0  0  0  0
    0.7393    2.9705   -2.3304 C   0  0  0  0  0  0  0  0  0  0  0  0
    0.0439    4.1681   -2.1171 C   0  0  0  0  0  0  0  0  0  0  0  0
   -0.3950    4.9034   -3.1859 C   0  0  0  0  0  0  0  0  0  0  0  0
    0.9605    2.0500   -1.2433 C   0  0  0  0  0  0  0  0  0  0  0  0
    0.1028    1.8051   -0.1808 C   0  0  0  0  0  0  0  0  0  0  0  0
   -1.1832    2.3170   -0.0451 N   0  0  0  0  0  0  0  0  0  0  0  0
   -1.9929    2.4771   -1.1766 C   0  0  0  0  0  0  0  0  0  0  0  0
   -2.8577    3.5646   -1.2824 C   0  0  0  0  0  0  0  0  0  0  0  0
   -3.5722    3.7876   -2.4428 C   0  0  0  0  0  0  0  0  0  0  0  0
   -3.4268    2.9308   -3.5246 C   0  0  0  0  0  0  0  0  0  0  0  0
   -4.2525    3.1666   -5.0723 S   0  0  0  0  0  0  0  0  0  0  0  0
   -4.5964    4.9511   -5.0872 C   0  0  0  0  0  0  0  0  0  0  0  0
   -2.6138    1.8074   -3.4052 C   0  0  0  0  0  0  0  0  0  0  0  0
   -1.9117    1.5811   -2.2436 C   0  0  0  0  0  0  0  0  0  0  0  0
   -1.6665    2.5910    1.2391 C   0  0  0  0  0  0  0  0  0  0  0  0
   -0.8094    3.0883    2.2190 C   0  0  0  0  0  0  0  0  0  0  0  0
   -1.2544    3.2980    3.5094 C   0  0  0  0  0  0  0  0  0  0  0  0
   -2.5738    3.0269    3.8412 C   0  0  0  0  0  0  0  0  0  0  0  0
   -3.2453    3.2660    5.4585 S   0  0  0  0  0  0  0  0  0  0  0  0
   -1.7822    3.2571    6.5365 C   0  0  0  0  0  0  0  0  0  0  0  0
   -3.4455    2.5675    2.8561 C   0  0  0  0  0  0  0  0  0  0  0  0
   -2.9994    2.3463    1.5726 C   0  0  0  0  0  0  0  0  0  0  0  0
    0.6773    0.8764    0.7222 C   0  0  0  0  0  0  0  0  0  0  0  0
    0.2044    0.2182    2.2512 S   0  0  0  0  0  0  0  0  0  0  0  0
    1.6957   -0.6969    2.3422 C   0  0  0  0  0  0  0  0  0  0  0  0
    2.5057   -0.4987    1.2558 C   0  0  0  0  0  0  0  0  0  0  0  0
    3.7588   -1.0862    1.0651 N   0  0  0  0  0  0  0  0  0  0  0  0
    4.0286   -1.6710   -0.1714 C   0  0  0  0  0  0  0  0  0  0  0  0
    5.3178   -1.6704   -0.7070 C   0  0  0  0  0  0  0  0  0  0  0  0
    5.5626   -2.2540   -1.9293 C   0  0  0  0  0  0  0  0  0  0  0  0
    4.5302   -2.8445   -2.6549 C   0  0  0  0  0  0  0  0  0  0  0  0
    4.9626   -3.5466   -4.2198 S   0  0  0  0  0  0  0  0  0  0  0  0
    3.4859   -4.4944   -4.6878 C   0  0  0  0  0  0  0  0  0  0  0  0
    3.2430   -2.8337   -2.1367 C   0  0  0  0  0  0  0  0  0  0  0  0
    2.9978   -2.2565   -0.9062 C   0  0  0  0  0  0  0  0  0  0  0  0
    4.7086   -1.0145    2.0857 C   0  0  0  0  0  0  0  0  0  0  0  0
    5.5806   -2.0745    2.3399 C   0  0  0  0  0  0  0  0  0  0  0  0
    6.4784   -2.0007    3.3805 C   0  0  0  0  0  0  0  0  0  0  0  0
    6.5335   -0.8706    4.1938 C   0  0  0  0  0  0  0  0  0  0  0  0
    7.7017   -0.9118    5.5196 S   0  0  0  0  0  0  0  0  0  0  0  0
    7.6158    0.7570    6.2302 C   0  0  0  0  0  0  0  0  0  0  0  0
    5.6876    0.1966    3.9309 C   0  0  0  0  0  0  0  0  0  0  0  0
    4.7907    0.1237    2.8832 C   0  0  0  0  0  0  0  0  0  0  0  0
    1.9160    0.4025    0.3273 C   0  0  0  0  0  0  0  0  0  0  0  0
    2.3914    1.0436   -1.2054 S   0  0  0  0  0  0  0  0  0  0  0  0
    1.8940   -1.4692    3.5741 C   0  0  0  0  0  0  0  0  0  0  0  0
    1.4462   -2.7915    3.6539 C   0  0  0  0  0  0  0  0  0  0  0  0
    1.0161   -3.3779    2.4893 O   0  0  0  0  0  0  0  0  0  0  0  0
    1.5620   -4.6560    2.1773 C   0  0  0  0  0  0  0  0  0  0  0  0
    3.0591   -4.5969    1.9051 C   0  0  0  0  0  0  0  0  0  0  0  0
    1.3782   -3.4227    4.9082 C   0  0  0  0  0  0  0  0  0  0  0  0
    0.8142   -4.6696    5.0560 O   0  0  0  0  0  0  0  0  0  0  0  0
   -0.5568   -4.7876    4.6680 C   0  0  0  0  0  0  0  0  0  0  0  0
   -0.9333   -6.2581    4.6858 C   0  0  0  0  0  0  0  0  0  0  0  0
    1.9126   -2.7945    6.0357 C   0  0  0  0  0  0  0  0  0  0  0  0
    2.4813   -1.5353    5.8992 C   0  0  0  0  0  0  0  0  0  0  0  0
    2.4111   -0.8544    4.7038 C   0  0  0  0  0  0  0  0  0  0  0  0
    1.8497   -3.4537    7.4037 C   0  0  0  0  0  0  0  0  0  0  0  0
    0.7956   -4.5105    7.5066 C   0  0  0  0  0  0  0  0  0  0  0  0
   -0.4829   -4.1834    7.7665 C   0  0  0  0  0  0  0  0  0  0  0  0
   -0.9160   -2.8163    7.8502 C   0  0  0  0  0  0  0  0  0  0  0  0
   -2.2311   -2.4330    7.6677 C   0  0  0  0  0  0  0  0  0  0  0  0
   -2.6209   -1.0249    7.7380 C   0  0  0  0  0  0  0  0  0  0  0  0
   -1.8421   -0.0883    7.7175 O   0  0  0  0  0  0  0  0  0  0  0  0
   -3.9838   -0.7674    7.8262 N   0  0  0  0  0  0  0  0  0  0  0  0
   -4.3753    0.6344    7.9192 C   0  0  0  0  0  0  0  0  0  0  0  0
   -4.3155    1.1445    9.3520 C   0  0  0  0  0  0  0  0  0  0  0  0
   -4.9434   -1.7335    7.8996 C   0  0  0  0  0  0  0  0  0  0  0  0
   -6.4969   -1.3674    8.3183 S   0  0  0  0  0  0  0  0  0  0  0  0
   -4.5806   -3.0090    7.5793 N   0  0  0  0  0  0  0  0  0  0  0  0
   -3.2702   -3.4127    7.3475 C   0  0  0  0  0  0  0  0  0  0  0  0
   -3.0619   -4.5341    6.9208 O   0  0  0  0  0  0  0  0  0  0  0  0
   -5.6107   -4.0352    7.4650 C   0  0  0  0  0  0  0  0  0  0  0  0
   -5.8668   -4.7128    8.8045 C   0  0  0  0  0  0  0  0  0  0  0  0
    0.1421   -1.8080    8.1786 C   0  0  0  0  0  0  0  0  0  0  0  0
    1.4881   -2.4438    8.5025 C   0  0  0  0  0  0  0  0  0  0  0  0
   -0.9902    6.2003   -5.4664 H   0  0  0  0  0  0  0  0  0  0  0  0
   -2.7524    0.6855   -7.8409 H   0  0  0  0  0  0  0  0  0  0  0  0
   -3.9414    5.1098   -9.9989 H   0  0  0  0  0  0  0  0  0  0  0  0
   -4.8969    2.4884  -12.0149 H   0  0  0  0  0  0  0  0  0  0  0  0
   -7.1693    3.2119  -11.2991 H   0  0  0  0  0  0  0  0  0  0  0  0
   -7.0589    3.5427   -8.7060 H   0  0  0  0  0  0  0  0  0  0  0  0
   -6.4430    1.2145   -7.5933 H   0  0  0  0  0  0  0  0  0  0  0  0
   -6.1928   -0.5625   -9.5015 H   0  0  0  0  0  0  0  0  0  0  0  0
   -8.1344    0.8373  -10.6334 H   0  0  0  0  0  0  0  0  0  0  0  0
   -6.8478    0.5954  -11.8415 H   0  0  0  0  0  0  0  0  0  0  0  0
   -4.3128    0.2145  -10.9407 H   0  0  0  0  0  0  0  0  0  0  0  0
    3.0534    2.4024   -5.4744 H   0  0  0  0  0  0  0  0  0  0  0  0
    3.0917    4.0424   -6.1573 H   0  0  0  0  0  0  0  0  0  0  0  0
    2.2646    1.5166   -7.6819 H   0  0  0  0  0  0  0  0  0  0  0  0
    2.3216    3.1472   -8.3517 H   0  0  0  0  0  0  0  0  0  0  0  0
    3.8198    2.3511   -7.8425 H   0  0  0  0  0  0  0  0  0  0  0  0
    0.7909    0.8221   -5.3238 H   0  0  0  0  0  0  0  0  0  0  0  0
    0.6271   -0.0075   -3.7633 H   0  0  0  0  0  0  0  0  0  0  0  0
    3.1120   -0.1006   -5.5589 H   0  0  0  0  0  0  0  0  0  0  0  0
    2.9706   -0.8568   -3.9717 H   0  0  0  0  0  0  0  0  0  0  0  0
    1.9463   -1.4064   -5.3153 H   0  0  0  0  0  0  0  0  0  0  0  0
   -0.1694    4.4869   -1.1095 H   0  0  0  0  0  0  0  0  0  0  0  0
   -1.0004    5.7834   -3.0271 H   0  0  0  0  0  0  0  0  0  0  0  0
   -2.9547    4.2524   -0.4552 H   0  0  0  0  0  0  0  0  0  0  0  0
   -4.2270    4.6428   -2.4975 H   0  0  0  0  0  0  0  0  0  0  0  0
   -3.7004    5.4921   -4.7971 H   0  0  0  0  0  0  0  0  0  0  0  0
   -4.8653    5.1925   -6.1114 H   0  0  0  0  0  0  0  0  0  0  0  0
   -5.4273    5.1849   -4.4280 H   0  0  0  0  0  0  0  0  0  0  0  0
   -2.5250    1.1290   -4.2381 H   0  0  0  0  0  0  0  0  0  0  0  0
   -1.2791    0.7105   -2.1600 H   0  0  0  0  0  0  0  0  0  0  0  0
    0.2165    3.3130    1.9661 H   0  0  0  0  0  0  0  0  0  0  0  0
   -0.5634    3.6769    4.2450 H   0  0  0  0  0  0  0  0  0  0  0  0
   -2.1658    3.2834    7.5517 H   0  0  0  0  0  0  0  0  0  0  0  0
   -1.1720    4.1369    6.3554 H   0  0  0  0  0  0  0  0  0  0  0  0
   -1.2220    2.3398    6.3810 H   0  0  0  0  0  0  0  0  0  0  0  0
   -4.4739    2.3695    3.1167 H   0  0  0  0  0  0  0  0  0  0  0  0
   -3.6754    1.9643    0.8224 H   0  0  0  0  0  0  0  0  0  0  0  0
    6.1234   -1.2042   -0.1606 H   0  0  0  0  0  0  0  0  0  0  0  0
    6.5592   -2.2519   -2.3431 H   0  0  0  0  0  0  0  0  0  0  0  0
    3.2263   -5.1860   -3.8918 H   0  0  0  0  0  0  0  0  0  0  0  0
    3.7630   -5.0454   -5.5811 H   0  0  0  0  0  0  0  0  0  0  0  0
    2.6624   -3.8229   -4.9118 H   0  0  0  0  0  0  0  0  0  0  0  0
    2.4203   -3.2748   -2.6763 H   0  0  0  0  0  0  0  0  0  0  0  0
    1.9947   -2.2656   -0.5054 H   0  0  0  0  0  0  0  0  0  0  0  0
    5.5498   -2.9559    1.7183 H   0  0  0  0  0  0  0  0  0  0  0  0
    7.1465   -2.8240    3.5822 H   0  0  0  0  0  0  0  0  0  0  0  0
    8.3701    0.7809    7.0105 H   0  0  0  0  0  0  0  0  0  0  0  0
    7.8494    1.4952    5.4687 H   0  0  0  0  0  0  0  0  0  0  0  0
    6.6344    0.9307    6.6621 H   0  0  0  0  0  0  0  0  0  0  0  0
    5.7189    1.0938    4.5282 H   0  0  0  0  0  0  0  0  0  0  0  0
    4.1449    0.9639    2.6730 H   0  0  0  0  0  0  0  0  0  0  0  0
    1.0181   -4.9653    1.2812 H   0  0  0  0  0  0  0  0  0  0  0  0
    1.3698   -5.3742    2.9794 H   0  0  0  0  0  0  0  0  0  0  0  0
    3.2683   -3.9342    1.0696 H   0  0  0  0  0  0  0  0  0  0  0  0
    3.4232   -5.5925    1.6656 H   0  0  0  0  0  0  0  0  0  0  0  0
    3.5841   -4.2316    2.7863 H   0  0  0  0  0  0  0  0  0  0  0  0
   -0.7196   -4.3555    3.6759 H   0  0  0  0  0  0  0  0  0  0  0  0
   -1.1778   -4.2413    5.3889 H   0  0  0  0  0  0  0  0  0  0  0  0
   -0.7318   -6.6760    5.6675 H   0  0  0  0  0  0  0  0  0  0  0  0
   -0.3678   -6.8158    3.9429 H   0  0  0  0  0  0  0  0  0  0  0  0
   -1.9940   -6.3553    4.4776 H   0  0  0  0  0  0  0  0  0  0  0  0
    2.9375   -1.0526    6.7479 H   0  0  0  0  0  0  0  0  0  0  0  0
    2.7602    0.1635    4.6392 H   0  0  0  0  0  0  0  0  0  0  0  0
    2.8330   -3.8937    7.6068 H   0  0  0  0  0  0  0  0  0  0  0  0
    1.0911   -5.5450    7.4341 H   0  0  0  0  0  0  0  0  0  0  0  0
   -1.2281   -4.9592    7.8422 H   0  0  0  0  0  0  0  0  0  0  0  0
   -3.6852    1.1960    7.2884 H   0  0  0  0  0  0  0  0  0  0  0  0
   -5.3871    0.7290    7.5240 H   0  0  0  0  0  0  0  0  0  0  0  0
   -4.9968    0.5800    9.9840 H   0  0  0  0  0  0  0  0  0  0  0  0
   -3.3049    1.0514    9.7428 H   0  0  0  0  0  0  0  0  0  0  0  0
   -4.6071    2.1906    9.3737 H   0  0  0  0  0  0  0  0  0  0  0  0
   -6.5225   -3.5631    7.0963 H   0  0  0  0  0  0  0  0  0  0  0  0
   -5.2487   -4.7629    6.7365 H   0  0  0  0  0  0  0  0  0  0  0  0
   -6.6243   -5.4815    8.6828 H   0  0  0  0  0  0  0  0  0  0  0  0
   -6.2203   -3.9881    9.5339 H   0  0  0  0  0  0  0  0  0  0  0  0
   -4.9543   -5.1751    9.1738 H   0  0  0  0  0  0  0  0  0  0  0  0
    0.2457   -1.1373    7.3208 H   0  0  0  0  0  0  0  0  0  0  0  0
   -0.1952   -1.1820    9.0076 H   0  0  0  0  0  0  0  0  0  0  0  0
    2.2465   -1.6700    8.6088 H   0  0  0  0  0  0  0  0  0  0  0  0
    1.4280   -2.9791    9.4533 H   0  0  0  0  0  0  0  0  0  0  0  0
  1  2  2  0  0  0  0
  2  3  1  0  0  0  0
  3  4  2  0  0  0  0
  3  5  1  0  0  0  0
  5  6  2  0  0  0  0
  6  7  1  0  0  0  0
  7  8  2  0  0  0  0
  8  9  1  0  0  0  0
  9 10  2  0  0  0  0
 10 11  1  0  0  0  0
 11 12  2  0  0  0  0
 12 13  1  0  0  0  0
 13 14  3  0  0  0  0
 12 15  1  0  0  0  0
 15 16  3  0  0  0  0
  8 17  1  0  0  0  0
 17 18  1  0  0  0  0
 18 19  1  0  0  0  0
 19 20  2  0  0  0  0
 20 21  1  0  0  0  0
 21 22  1  0  0  0  0
 21 23  1  0  0  0  0
  1 24  1  0  0  0  0
 24 25  2  0  0  0  0
 25 26  1  0  0  0  0
 26 27  1  0  0  0  0
 27 28  1  0  0  0  0
 25 29  1  0  0  0  0
 29 30  1  0  0  0  0
 30 31  1  0  0  0  0
 31 32  1  0  0  0  0
 29 33  2  0  0  0  0
 33 34  1  0  0  0  0
 34 35  2  0  0  0  0
 33 36  1  0  0  0  0
 36 37  2  0  0  0  0
 37 38  1  0  0  0  0
 38 39  1  0  0  0  0
 39 40  2  0  0  0  0
 40 41  1  0  0  0  0
 41 42  2  0  0  0  0
 42 43  1  0  0  0  0
 43 44  1  0  0  0  0
 42 45  1  0  0  0  0
 45 46  2  0  0  0  0
 38 47  1  0  0  0  0
 47 48  2  0  0  0  0
 48 49  1  0  0  0  0
 49 50  2  0  0  0  0
 50 51  1  0  0  0  0
 51 52  1  0  0  0  0
 50 53  1  0  0  0  0
 53 54  2  0  0  0  0
 37 55  1  0  0  0  0
 55 56  1  0  0  0  0
 56 57  1  0  0  0  0
 57 58  2  0  0  0  0
 58 59  1  0  0  0  0
 59 60  1  0  0  0  0
 60 61  2  0  0  0  0
 61 62  1  0  0  0  0
 62 63  2  0  0  0  0
 63 64  1  0  0  0  0
 64 65  1  0  0  0  0
 63 66  1  0  0  0  0
 66 67  2  0  0  0  0
 59 68  1  0  0  0  0
 68 69  2  0  0  0  0
 69 70  1  0  0  0  0
 70 71  2  0  0  0  0
 71 72  1  0  0  0  0
 72 73  1  0  0  0  0
 71 74  1  0  0  0  0
 74 75  2  0  0  0  0
 58 76  1  0  0  0  0
 76 77  1  0  0  0  0
 57 78  1  0  0  0  0
 78 79  2  0  0  0  0
 79 80  1  0  0  0  0
 80 81  1  0  0  0  0
 81 82  1  0  0  0  0
 79 83  1  0  0  0  0
 83 84  1  0  0  0  0
 84 85  1  0  0  0  0
 85 86  1  0  0  0  0
 83 87  2  0  0  0  0
 87 88  1  0  0  0  0
 88 89  2  0  0  0  0
 87 90  1  0  0  0  0
 90 91  1  0  0  0  0
 91 92  2  0  0  0  0
 92 93  1  0  0  0  0
 93 94  2  0  0  0  0
 94 95  1  0  0  0  0
 95 96  2  0  0  0  0
 95 97  1  0  0  0  0
 97 98  1  0  0  0  0
 98 99  1  0  0  0  0
 97100  1  0  0  0  0
100101  2  0  0  0  0
100102  1  0  0  0  0
102103  1  0  0  0  0
103104  2  0  0  0  0
102105  1  0  0  0  0
105106  1  0  0  0  0
 93107  1  0  0  0  0
107108  1  0  0  0  0
 11  2  1  0  0  0  0
 23 17  1  0  0  0  0
 35 24  1  0  0  0  0
 77 36  1  0  0  0  0
 89 78  1  0  0  0  0
108 90  1  0  0  0  0
 10  5  1  0  0  0  0
 22 18  1  0  0  0  0
 46 39  1  0  0  0  0
 54 47  1  0  0  0  0
 76 55  2  0  0  0  0
103 94  1  0  0  0  0
 23  7  1  0  0  0  0
 67 60  1  0  0  0  0
 75 68  1  0  0  0  0
  1109  1  0  0  0  0
  6110  1  0  0  0  0
  9111  1  0  0  0  0
 17112  1  0  0  0  0
 18113  1  0  0  0  0
 19114  1  0  0  0  0
 20115  1  0  0  0  0
 21116  1  0  0  0  0
 22117  1  0  0  0  0
 22118  1  0  0  0  0
 23119  1  0  0  0  0
 27120  1  0  0  0  0
 27121  1  0  0  0  0
 28122  1  0  0  0  0
 28123  1  0  0  0  0
 28124  1  0  0  0  0
 31125  1  0  0  0  0
 31126  1  0  0  0  0
 32127  1  0  0  0  0
 32128  1  0  0  0  0
 32129  1  0  0  0  0
 34130  1  0  0  0  0
 35131  1  0  0  0  0
 40132  1  0  0  0  0
 41133  1  0  0  0  0
 44134  1  0  0  0  0
 44135  1  0  0  0  0
 44136  1  0  0  0  0
 45137  1  0  0  0  0
 46138  1  0  0  0  0
 48139  1  0  0  0  0
 49140  1  0  0  0  0
 52141  1  0  0  0  0
 52142  1  0  0  0  0
 52143  1  0  0  0  0
 53144  1  0  0  0  0
 54145  1  0  0  0  0
 61146  1  0  0  0  0
 62147  1  0  0  0  0
 65148  1  0  0  0  0
 65149  1  0  0  0  0
 65150  1  0  0  0  0
 66151  1  0  0  0  0
 67152  1  0  0  0  0
 69153  1  0  0  0  0
 70154  1  0  0  0  0
 73155  1  0  0  0  0
 73156  1  0  0  0  0
 73157  1  0  0  0  0
 74158  1  0  0  0  0
 75159  1  0  0  0  0
 81160  1  0  0  0  0
 81161  1  0  0  0  0
 82162  1  0  0  0  0
 82163  1  0  0  0  0
 82164  1  0  0  0  0
 85165  1  0  0  0  0
 85166  1  0  0  0  0
 86167  1  0  0  0  0
 86168  1  0  0  0  0
 86169  1  0  0  0  0
 88170  1  0  0  0  0
 89171  1  0  0  0  0
 90172  1  0  0  0  0
 91173  1  0  0  0  0
 92174  1  0  0  0  0
 98175  1  0  0  0  0
 98176  1  0  0  0  0
 99177  1  0  0  0  0
 99178  1  0  0  0  0
 99179  1  0  0  0  0
105180  1  0  0  0  0
105181  1  0  0  0  0
106182  1  0  0  0  0
106183  1  0  0  0  0
106184  1  0  0  0  0
107185  1  0  0  0  0
107186  1  0  0  0  0
108187  1  0  0  0  0
108188  1  0  0  0  0
M  END
