
  xtb     02042215543D
 energy: -203.556047528323 gnorm: 0.000703685000 xtb: 6.4.1 (unknown)
106123  0     0  0            999 V2000
    5.5479   -1.8710   -4.8049 C   0  0  0  0  0  0  0  0  0  0  0  0
    5.8221   -1.1162   -5.9004 C   0  0  0  0  0  0  0  0  0  0  0  0
    6.5330   -1.7357   -7.0566 C   0  0  0  0  0  0  0  0  0  0  0  0
    7.1248   -2.7904   -7.0620 O   0  0  0  0  0  0  0  0  0  0  0  0
    6.3084   -0.8162   -8.1884 C   0  0  0  0  0  0  0  0  0  0  0  0
    6.6625   -1.0163   -9.5210 C   0  0  0  0  0  0  0  0  0  0  0  0
    6.2946    0.0090  -10.3587 C   0  0  0  0  0  0  0  0  0  0  0  0
    5.6198    1.1523   -9.9084 C   0  0  0  0  0  0  0  0  0  0  0  0
    5.2724    1.3684   -8.5963 C   0  0  0  0  0  0  0  0  0  0  0  0
    5.6412    0.3387   -7.7273 C   0  0  0  0  0  0  0  0  0  0  0  0
    5.4705    0.2328   -6.2813 C   0  0  0  0  0  0  0  0  0  0  0  0
    5.2436    1.2800   -5.4276 C   0  0  0  0  0  0  0  0  0  0  0  0
    4.9436    2.5932   -5.8393 C   0  0  0  0  0  0  0  0  0  0  0  0
    4.6662    3.6747   -6.1081 N   0  0  0  0  0  0  0  0  0  0  0  0
    5.3418    1.1788   -4.0256 C   0  0  0  0  0  0  0  0  0  0  0  0
    5.4324    1.1575   -2.8812 N   0  0  0  0  0  0  0  0  0  0  0  0
    5.5483    1.7518  -11.2902 C   0  0  0  0  0  0  0  0  0  0  0  0
    4.1979    1.6692  -12.0440 C   0  0  0  0  0  0  0  0  0  0  0  0
    3.4761    0.4609  -11.5012 C   0  0  0  0  0  0  0  0  0  0  0  0
    4.1168   -0.6191  -11.9279 C   0  0  0  0  0  0  0  0  0  0  0  0
    5.2839   -0.1605  -12.7668 C   0  0  0  0  0  0  0  0  0  0  0  0
    4.6860    1.1109  -13.3903 C   0  0  0  0  0  0  0  0  0  0  0  0
    6.3027    0.4802  -11.7917 C   0  0  0  0  0  0  0  0  0  0  0  0
    4.6060   -1.6557   -3.7594 C   0  0  0  0  0  0  0  0  0  0  0  0
    4.7688   -2.3064   -2.5195 C   0  0  0  0  0  0  0  0  0  0  0  0
    3.8740   -2.0991   -1.3977 C   0  0  0  0  0  0  0  0  0  0  0  0
    4.2425   -2.8302   -0.3376 N   0  0  0  0  0  0  0  0  0  0  0  0
    5.5694   -3.6398   -0.6984 S   0  0  0  0  0  4  0  0  0  0  0  0
    5.7598   -3.1467   -2.2120 N   0  0  0  0  0  0  0  0  0  0  0  0
    2.7514   -1.2602   -1.4735 C   0  0  0  0  0  0  0  0  0  0  0  0
    2.5242   -0.6961   -2.7411 C   0  0  0  0  0  0  0  0  0  0  0  0
    1.4917    0.0862   -3.0787 N   0  0  0  0  0  0  0  0  0  0  0  0
    1.6329    0.5215   -4.6080 S   0  0  0  0  0  0  0  0  0  0  0  0
    3.0017   -0.2418   -4.9498 N   0  0  0  0  0  0  0  0  0  0  0  0
    3.4352   -0.8774   -3.8567 C   0  0  0  0  0  0  0  0  0  0  0  0
    1.9037   -0.9768   -0.3336 C   0  0  0  0  0  0  0  0  0  0  0  0
    0.5352   -0.8241   -0.4701 C   0  0  0  0  0  0  0  0  0  0  0  0
   -0.2804   -0.5096    0.6116 C   0  0  0  0  0  0  0  0  0  0  0  0
    0.2321   -0.3438    1.8855 C   0  0  0  0  0  0  0  0  0  0  0  0
    1.6301   -0.5380    2.0790 C   0  0  0  0  0  0  0  0  0  0  0  0
    2.1501   -0.5459    3.3175 N   0  0  0  0  0  0  0  0  0  0  0  0
    3.4396   -0.6575    3.4558 C   0  0  0  0  0  0  0  0  0  0  0  0
    4.2902   -0.7032    2.3315 C   0  0  0  0  0  0  0  0  0  0  0  0
    3.8053   -0.8106    1.1291 N   0  0  0  0  0  0  0  0  0  0  0  0
    2.4736   -0.8018    0.9613 C   0  0  0  0  0  0  0  0  0  0  0  0
   -0.6226    0.0137    2.9983 C   0  0  0  0  0  0  0  0  0  0  0  0
   -0.2258    0.9144    3.9984 C   0  0  0  0  0  0  0  0  0  0  0  0
   -1.0956    1.2883    5.0966 C   0  0  0  0  0  0  0  0  0  0  0  0
   -0.5126    2.1738    5.9091 N   0  0  0  0  0  0  0  0  0  0  0  0
    0.9473    2.5133    5.3417 S   0  0  0  0  0  4  0  0  0  0  0  0
    0.9384    1.5742    4.0528 N   0  0  0  0  0  0  0  0  0  0  0  0
   -2.4192    0.8211    5.2189 C   0  0  0  0  0  0  0  0  0  0  0  0
   -2.8020   -0.1107    4.2337 C   0  0  0  0  0  0  0  0  0  0  0  0
   -3.9682   -0.7612    4.1755 N   0  0  0  0  0  0  0  0  0  0  0  0
   -3.9664   -1.7309    2.8973 S   0  0  0  0  0  0  0  0  0  0  0  0
   -2.5038   -1.4011    2.3471 N   0  0  0  0  0  0  0  0  0  0  0  0
   -1.9232   -0.4969    3.1455 C   0  0  0  0  0  0  0  0  0  0  0  0
   -3.2377    1.2704    6.2938 C   0  0  0  0  0  0  0  0  0  0  0  0
   -4.5914    1.3298    6.3869 C   0  0  0  0  0  0  0  0  0  0  0  0
   -5.2281    1.4561    7.7297 C   0  0  0  0  0  0  0  0  0  0  0  0
   -4.6784    1.7455    8.7674 O   0  0  0  0  0  0  0  0  0  0  0  0
   -6.6451    1.1011    7.5231 C   0  0  0  0  0  0  0  0  0  0  0  0
   -7.6270    0.9493    8.4997 C   0  0  0  0  0  0  0  0  0  0  0  0
   -8.8578    0.5897    8.0057 C   0  0  0  0  0  0  0  0  0  0  0  0
   -9.0995    0.3935    6.6389 C   0  0  0  0  0  0  0  0  0  0  0  0
   -8.1431    0.5455    5.6636 C   0  0  0  0  0  0  0  0  0  0  0  0
   -6.8840    0.9125    6.1450 C   0  0  0  0  0  0  0  0  0  0  0  0
   -5.6518    1.1942    5.4143 C   0  0  0  0  0  0  0  0  0  0  0  0
   -5.5713    1.4931    4.0793 C   0  0  0  0  0  0  0  0  0  0  0  0
   -4.4204    2.0140    3.4565 C   0  0  0  0  0  0  0  0  0  0  0  0
   -3.5228    2.4606    2.8962 N   0  0  0  0  0  0  0  0  0  0  0  0
   -6.6383    1.3699    3.1676 C   0  0  0  0  0  0  0  0  0  0  0  0
   -7.4514    1.2611    2.3636 N   0  0  0  0  0  0  0  0  0  0  0  0
  -10.5463    0.0329    6.8649 C   0  0  0  0  0  0  0  0  0  0  0  0
  -10.9363   -1.4641    6.7932 C   0  0  0  0  0  0  0  0  0  0  0  0
   -9.6977   -2.2463    7.1533 C   0  0  0  0  0  0  0  0  0  0  0  0
   -9.4654   -2.0636    8.4462 C   0  0  0  0  0  0  0  0  0  0  0  0
  -10.5433   -1.1554    8.9841 C   0  0  0  0  0  0  0  0  0  0  0  0
  -11.7270   -1.5901    8.1052 C   0  0  0  0  0  0  0  0  0  0  0  0
  -10.2765    0.2489    8.3874 C   0  0  0  0  0  0  0  0  0  0  0  0
    6.0978   -2.8046   -4.7327 H   0  0  0  0  0  0  0  0  0  0  0  0
    7.1807   -1.9110   -9.8288 H   0  0  0  0  0  0  0  0  0  0  0  0
    4.7489    2.2484   -8.2603 H   0  0  0  0  0  0  0  0  0  0  0  0
    6.0350    2.7168  -11.4162 H   0  0  0  0  0  0  0  0  0  0  0  0
    3.6337    2.5979  -12.0617 H   0  0  0  0  0  0  0  0  0  0  0  0
    2.6344    0.5148  -10.8358 H   0  0  0  0  0  0  0  0  0  0  0  0
    3.9173   -1.6476  -11.6903 H   0  0  0  0  0  0  0  0  0  0  0  0
    5.7082   -0.8978  -13.4432 H   0  0  0  0  0  0  0  0  0  0  0  0
    5.4255    1.7432  -13.8797 H   0  0  0  0  0  0  0  0  0  0  0  0
    3.8698    0.8984  -14.0792 H   0  0  0  0  0  0  0  0  0  0  0  0
    7.2828    0.6152  -12.2449 H   0  0  0  0  0  0  0  0  0  0  0  0
    0.0907   -0.9472   -1.4448 H   0  0  0  0  0  0  0  0  0  0  0  0
   -1.3384   -0.3740    0.4529 H   0  0  0  0  0  0  0  0  0  0  0  0
    3.8237   -0.7033    4.4656 H   0  0  0  0  0  0  0  0  0  0  0  0
    5.3666   -0.6664    2.4265 H   0  0  0  0  0  0  0  0  0  0  0  0
   -2.6943    1.5817    7.1808 H   0  0  0  0  0  0  0  0  0  0  0  0
   -7.4019    1.1115    9.5421 H   0  0  0  0  0  0  0  0  0  0  0  0
   -8.3372    0.3850    4.6159 H   0  0  0  0  0  0  0  0  0  0  0  0
  -11.2779    0.6765    6.3806 H   0  0  0  0  0  0  0  0  0  0  0  0
  -11.4393   -1.7560    5.8753 H   0  0  0  0  0  0  0  0  0  0  0  0
   -9.1029   -2.7874    6.4411 H   0  0  0  0  0  0  0  0  0  0  0  0
   -8.6375   -2.4217    9.0296 H   0  0  0  0  0  0  0  0  0  0  0  0
  -10.6882   -1.1683   10.0611 H   0  0  0  0  0  0  0  0  0  0  0  0
  -12.0489   -2.6107    8.3067 H   0  0  0  0  0  0  0  0  0  0  0  0
  -12.5809   -0.9167    8.1635 H   0  0  0  0  0  0  0  0  0  0  0  0
  -10.8360    1.0296    8.8988 H   0  0  0  0  0  0  0  0  0  0  0  0
  1  2  2  0  0  0  0
  2  3  1  0  0  0  0
  3  4  2  0  0  0  0
  3  5  1  0  0  0  0
  5  6  2  0  0  0  0
  6  7  1  0  0  0  0
  7  8  2  0  0  0  0
  8  9  1  0  0  0  0
  9 10  2  0  0  0  0
 10 11  1  0  0  0  0
 11 12  2  0  0  0  0
 12 13  1  0  0  0  0
 13 14  3  0  0  0  0
 12 15  1  0  0  0  0
 15 16  3  0  0  0  0
  8 17  1  0  0  0  0
 17 18  1  0  0  0  0
 18 19  1  0  0  0  0
 19 20  2  0  0  0  0
 20 21  1  0  0  0  0
 21 22  1  0  0  0  0
 21 23  1  0  0  0  0
  1 24  1  0  0  0  0
 24 25  2  0  0  0  0
 25 26  1  0  0  0  0
 26 27  1  0  0  0  0
 27 28  2  0  0  0  0
 28 29  2  0  0  0  0
 26 30  2  0  0  0  0
 30 31  1  0  0  0  0
 31 32  2  0  0  0  0
 32 33  1  0  0  0  0
 33 34  1  0  0  0  0
 34 35  2  0  0  0  0
 30 36  1  0  0  0  0
 36 37  2  0  0  0  0
 37 38  1  0  0  0  0
 38 39  2  0  0  0  0
 39 40  1  0  0  0  0
 40 41  2  0  0  0  0
 41 42  1  0  0  0  0
 42 43  2  0  0  0  0
 43 44  1  0  0  0  0
 44 45  2  0  0  0  0
 39 46  1  0  0  0  0
 46 47  2  0  0  0  0
 47 48  1  0  0  0  0
 48 49  1  0  0  0  0
 49 50  2  0  0  0  0
 50 51  2  0  0  0  0
 48 52  2  0  0  0  0
 52 53  1  0  0  0  0
 53 54  2  0  0  0  0
 54 55  1  0  0  0  0
 55 56  1  0  0  0  0
 56 57  2  0  0  0  0
 52 58  1  0  0  0  0
 58 59  2  0  0  0  0
 59 60  1  0  0  0  0
 60 61  2  0  0  0  0
 60 62  1  0  0  0  0
 62 63  2  0  0  0  0
 63 64  1  0  0  0  0
 64 65  2  0  0  0  0
 65 66  1  0  0  0  0
 66 67  2  0  0  0  0
 67 68  1  0  0  0  0
 68 69  2  0  0  0  0
 69 70  1  0  0  0  0
 70 71  3  0  0  0  0
 69 72  1  0  0  0  0
 72 73  3  0  0  0  0
 65 74  1  0  0  0  0
 74 75  1  0  0  0  0
 75 76  1  0  0  0  0
 76 77  2  0  0  0  0
 77 78  1  0  0  0  0
 78 79  1  0  0  0  0
 78 80  1  0  0  0  0
 11  2  1  0  0  0  0
 23 17  1  0  0  0  0
 35 24  1  0  0  0  0
 45 36  1  0  0  0  0
 57 46  1  0  0  0  0
 68 59  1  0  0  0  0
 80 74  1  0  0  0  0
 10  5  1  0  0  0  0
 22 18  1  0  0  0  0
 29 25  1  0  0  0  0
 35 31  1  0  0  0  0
 45 40  1  0  0  0  0
 51 47  1  0  0  0  0
 57 53  1  0  0  0  0
 67 62  1  0  0  0  0
 79 75  1  0  0  0  0
 23  7  1  0  0  0  0
 80 64  1  0  0  0  0
  1 81  1  0  0  0  0
  6 82  1  0  0  0  0
  9 83  1  0  0  0  0
 17 84  1  0  0  0  0
 18 85  1  0  0  0  0
 19 86  1  0  0  0  0
 20 87  1  0  0  0  0
 21 88  1  0  0  0  0
 22 89  1  0  0  0  0
 22 90  1  0  0  0  0
 23 91  1  0  0  0  0
 37 92  1  0  0  0  0
 38 93  1  0  0  0  0
 42 94  1  0  0  0  0
 43 95  1  0  0  0  0
 58 96  1  0  0  0  0
 63 97  1  0  0  0  0
 66 98  1  0  0  0  0
 74 99  1  0  0  0  0
 75100  1  0  0  0  0
 76101  1  0  0  0  0
 77102  1  0  0  0  0
 78103  1  0  0  0  0
 79104  1  0  0  0  0
 79105  1  0  0  0  0
 80106  1  0  0  0  0
M  END
