
  xtb     02092206063D
 energy: -307.735204465123 gnorm: 0.000565830777 xtb: 6.4.1 (unknown)
184204  0     0  0            999 V2000
    3.2181    8.1651   -2.0876 C   0  0  0  0  0  0  0  0  0  0  0  0
    3.8082    8.4108   -3.2818 C   0  0  0  0  0  0  0  0  0  0  0  0
    4.7402    9.5675   -3.4040 C   0  0  0  0  0  0  0  0  0  0  0  0
    4.8472   10.4864   -2.6241 O   0  0  0  0  0  0  0  0  0  0  0  0
    5.5131    9.3175   -4.6304 C   0  0  0  0  0  0  0  0  0  0  0  0
    6.5783   10.0732   -5.1171 C   0  0  0  0  0  0  0  0  0  0  0  0
    7.1196    9.5923   -6.2840 C   0  0  0  0  0  0  0  0  0  0  0  0
    6.6171    8.4597   -6.9401 C   0  0  0  0  0  0  0  0  0  0  0  0
    5.5589    7.7152   -6.4816 C   0  0  0  0  0  0  0  0  0  0  0  0
    5.0200    8.1591   -5.2688 C   0  0  0  0  0  0  0  0  0  0  0  0
    3.9161    7.6124   -4.4855 C   0  0  0  0  0  0  0  0  0  0  0  0
    3.1086    6.5692   -4.8540 C   0  0  0  0  0  0  0  0  0  0  0  0
    3.3921    5.7018   -5.9287 C   0  0  0  0  0  0  0  0  0  0  0  0
    3.6149    4.9194   -6.7399 N   0  0  0  0  0  0  0  0  0  0  0  0
    1.8708    6.2363   -4.2675 C   0  0  0  0  0  0  0  0  0  0  0  0
    0.8085    5.9464   -3.9422 N   0  0  0  0  0  0  0  0  0  0  0  0
    7.6331    8.5523   -8.0502 C   0  0  0  0  0  0  0  0  0  0  0  0
    8.8144    7.5615   -7.9794 C   0  0  0  0  0  0  0  0  0  0  0  0
    9.8611    8.1825   -8.8761 C   0  0  0  0  0  0  0  0  0  0  0  0
   10.3382    9.2542   -8.2560 C   0  0  0  0  0  0  0  0  0  0  0  0
    9.6230    9.3743   -6.9298 C   0  0  0  0  0  0  0  0  0  0  0  0
    9.4144    7.8894   -6.6056 C   0  0  0  0  0  0  0  0  0  0  0  0
    8.1948    9.8134   -7.3186 C   0  0  0  0  0  0  0  0  0  0  0  0
    2.5557    7.0138   -1.6916 C   0  0  0  0  0  0  0  0  0  0  0  0
    2.0587    5.9926   -1.2567 C   0  0  0  0  0  0  0  0  0  0  0  0
    1.5082    4.8211   -0.7615 C   0  0  0  0  0  0  0  0  0  0  0  0
    2.1947    3.8637   -0.0273 C   0  0  0  0  0  0  0  0  0  0  0  0
    3.5488    3.9331    0.2412 N   0  0  0  0  0  0  0  0  0  0  0  0
    4.0495    3.4299    1.4476 C   0  0  0  0  0  0  0  0  0  0  0  0
    5.3065    2.8262    1.4990 C   0  0  0  0  0  0  0  0  0  0  0  0
    5.7736    2.2986    2.6812 C   0  0  0  0  0  0  0  0  0  0  0  0
    4.9966    2.3468    3.8374 C   0  0  0  0  0  0  0  0  0  0  0  0
    5.6923    1.6373    5.2955 S   0  0  0  0  0  0  0  0  0  0  0  0
    4.2627    1.4461    6.3938 C   0  0  0  0  0  0  0  0  0  0  0  0
    3.7537    2.9623    3.7949 C   0  0  0  0  0  0  0  0  0  0  0  0
    3.2903    3.5051    2.6124 C   0  0  0  0  0  0  0  0  0  0  0  0
    4.4081    4.4431   -0.7442 C   0  0  0  0  0  0  0  0  0  0  0  0
    5.4392    5.3181   -0.4057 C   0  0  0  0  0  0  0  0  0  0  0  0
    6.2782    5.8115   -1.3809 C   0  0  0  0  0  0  0  0  0  0  0  0
    6.1132    5.4329   -2.7104 C   0  0  0  0  0  0  0  0  0  0  0  0
    7.2368    6.1091   -3.8981 S   0  0  0  0  0  0  0  0  0  0  0  0
    7.2137    4.8696   -5.2282 C   0  0  0  0  0  0  0  0  0  0  0  0
    5.0852    4.5659   -3.0542 C   0  0  0  0  0  0  0  0  0  0  0  0
    4.2414    4.0772   -2.0780 C   0  0  0  0  0  0  0  0  0  0  0  0
    1.3236    2.8236    0.3645 C   0  0  0  0  0  0  0  0  0  0  0  0
    1.5204    1.3611    1.2576 S   0  0  0  0  0  0  0  0  0  0  0  0
   -0.1869    0.9574    1.0313 C   0  0  0  0  0  0  0  0  0  0  0  0
   -0.8482    1.9078    0.2598 C   0  0  0  0  0  0  0  0  0  0  0  0
   -2.1761    1.9121   -0.1384 N   0  0  0  0  0  0  0  0  0  0  0  0
   -2.8088    0.7968   -0.6836 C   0  0  0  0  0  0  0  0  0  0  0  0
   -2.0809   -0.2181   -1.3042 C   0  0  0  0  0  0  0  0  0  0  0  0
   -2.7152   -1.3467   -1.7832 C   0  0  0  0  0  0  0  0  0  0  0  0
   -4.0911   -1.4761   -1.6613 C   0  0  0  0  0  0  0  0  0  0  0  0
   -4.9688   -2.9031   -2.2255 S   0  0  0  0  0  0  0  0  0  0  0  0
   -3.7681   -4.2340   -1.9381 C   0  0  0  0  0  0  0  0  0  0  0  0
   -4.8286   -0.4453   -1.0884 C   0  0  0  0  0  0  0  0  0  0  0  0
   -4.1978    0.6742   -0.5977 C   0  0  0  0  0  0  0  0  0  0  0  0
   -2.8263    3.1609   -0.1350 C   0  0  0  0  0  0  0  0  0  0  0  0
   -2.6916    4.0021    0.9652 C   0  0  0  0  0  0  0  0  0  0  0  0
   -3.2910    5.2463    0.9808 C   0  0  0  0  0  0  0  0  0  0  0  0
   -4.0418    5.6668   -0.1084 C   0  0  0  0  0  0  0  0  0  0  0  0
   -4.8590    7.2265   -0.2038 S   0  0  0  0  0  0  0  0  0  0  0  0
   -4.2584    8.1224    1.2568 C   0  0  0  0  0  0  0  0  0  0  0  0
   -4.1866    4.8220   -1.2085 C   0  0  0  0  0  0  0  0  0  0  0  0
   -3.5841    3.5852   -1.2262 C   0  0  0  0  0  0  0  0  0  0  0  0
    0.0228    2.9751   -0.0872 C   0  0  0  0  0  0  0  0  0  0  0  0
   -0.1773    4.4174   -1.0256 S   0  0  0  0  0  0  0  0  0  0  0  0
   -0.6222   -0.2307    1.6795 C   0  0  0  0  0  0  0  0  0  0  0  0
    0.1859   -1.0494    2.4281 C   0  0  0  0  0  0  0  0  0  0  0  0
   -0.4632   -2.1790    2.9651 C   0  0  0  0  0  0  0  0  0  0  0  0
    0.1266   -3.2362    3.6989 C   0  0  0  0  0  0  0  0  0  0  0  0
    1.4950   -3.1922    4.1644 C   0  0  0  0  0  0  0  0  0  0  0  0
    2.3616   -4.2426    4.2753 C   0  0  0  0  0  0  0  0  0  0  0  0
    3.6139   -3.9663    4.8605 C   0  0  0  0  0  0  0  0  0  0  0  0
    3.7852   -2.6767    5.2666 C   0  0  0  0  0  0  0  0  0  0  0  0
    5.1691   -1.9257    6.0256 S   0  0  0  0  0  0  0  0  0  0  0  0
    6.0731   -3.3510    6.7230 C   0  0  0  0  0  0  0  0  0  0  0  0
    5.3158   -4.0126    7.8569 C   0  0  0  0  0  0  0  0  0  0  0  0
    2.2763   -1.6254    4.8939 Se  0  0  0  0  0  2  0  0  0  0  0  0
   -0.7012   -4.3208    3.9665 C   0  0  0  0  0  0  0  0  0  0  0  0
   -2.0628   -4.3735    3.5684 C   0  0  0  0  0  0  0  0  0  0  0  0
   -2.6537   -3.3215    2.8250 C   0  0  0  0  0  0  0  0  0  0  0  0
   -3.9663   -3.4415    2.2443 C   0  0  0  0  0  0  0  0  0  0  0  0
   -4.8344   -2.4260    1.9339 C   0  0  0  0  0  0  0  0  0  0  0  0
   -5.9936   -2.7875    1.2293 C   0  0  0  0  0  0  0  0  0  0  0  0
   -6.0712   -4.1137    0.9115 C   0  0  0  0  0  0  0  0  0  0  0  0
   -7.3191   -4.9631    0.0400 S   0  0  0  0  0  0  0  0  0  0  0  0
   -8.2973   -3.5871   -0.6719 C   0  0  0  0  0  0  0  0  0  0  0  0
   -9.2952   -4.1462   -1.6660 C   0  0  0  0  0  0  0  0  0  0  0  0
   -4.6256   -5.0981    1.5716 Se  0  0  0  0  0  2  0  0  0  0  0  0
   -1.8266   -2.2279    2.5839 C   0  0  0  0  0  0  0  0  0  0  0  0
   -2.2685   -0.8198    1.6560 S   0  0  0  0  0  0  0  0  0  0  0  0
   -2.6943   -5.5533    3.9883 C   0  0  0  0  0  0  0  0  0  0  0  0
   -1.8585   -6.4486    4.6109 C   0  0  0  0  0  0  0  0  0  0  0  0
   -0.2489   -5.7721    4.8211 S   0  0  0  0  0  0  0  0  0  0  0  0
   -2.1439   -7.7603    5.0374 C   0  0  0  0  0  0  0  0  0  0  0  0
   -3.1050   -8.5769    4.4994 C   0  0  0  0  0  0  0  0  0  0  0  0
   -3.7484   -8.4142    3.1754 C   0  0  0  0  0  0  0  0  0  0  0  0
   -3.6855   -7.4766    2.3982 O   0  0  0  0  0  0  0  0  0  0  0  0
   -4.4239   -9.6929    2.8986 C   0  0  0  0  0  0  0  0  0  0  0  0
   -5.1327  -10.0188    1.7437 C   0  0  0  0  0  0  0  0  0  0  0  0
   -5.6566  -11.2888    1.7521 C   0  0  0  0  0  0  0  0  0  0  0  0
   -5.4811  -12.1733    2.8251 C   0  0  0  0  0  0  0  0  0  0  0  0
   -4.7818  -11.8647    3.9681 C   0  0  0  0  0  0  0  0  0  0  0  0
   -4.2466  -10.5731    3.9840 C   0  0  0  0  0  0  0  0  0  0  0  0
   -3.4624   -9.8875    5.0068 C   0  0  0  0  0  0  0  0  0  0  0  0
   -3.1857  -10.3700    6.2602 C   0  0  0  0  0  0  0  0  0  0  0  0
   -3.5655  -11.6456    6.7253 C   0  0  0  0  0  0  0  0  0  0  0  0
   -3.8371  -12.6707    7.1662 N   0  0  0  0  0  0  0  0  0  0  0  0
   -2.5174   -9.6515    7.2741 C   0  0  0  0  0  0  0  0  0  0  0  0
   -2.0040   -9.1296    8.1590 N   0  0  0  0  0  0  0  0  0  0  0  0
   -6.2723  -13.2691    2.1549 C   0  0  0  0  0  0  0  0  0  0  0  0
   -7.7143  -13.4864    2.6605 C   0  0  0  0  0  0  0  0  0  0  0  0
   -8.3794  -14.2503    1.5382 C   0  0  0  0  0  0  0  0  0  0  0  0
   -8.5473  -13.4120    0.5235 C   0  0  0  0  0  0  0  0  0  0  0  0
   -7.9981  -12.0674    0.9425 C   0  0  0  0  0  0  0  0  0  0  0  0
   -8.3335  -12.1003    2.4392 C   0  0  0  0  0  0  0  0  0  0  0  0
   -6.4697  -12.2820    0.9599 C   0  0  0  0  0  0  0  0  0  0  0  0
    3.3510    8.9304   -1.3266 H   0  0  0  0  0  0  0  0  0  0  0  0
    6.9173   10.9527   -4.5926 H   0  0  0  0  0  0  0  0  0  0  0  0
    5.1753    6.8588   -7.0104 H   0  0  0  0  0  0  0  0  0  0  0  0
    7.2322    8.6668   -9.0554 H   0  0  0  0  0  0  0  0  0  0  0  0
    8.5509    6.5265   -8.1820 H   0  0  0  0  0  0  0  0  0  0  0  0
   10.0979    7.8226   -9.8601 H   0  0  0  0  0  0  0  0  0  0  0  0
   11.0540    9.9681   -8.6192 H   0  0  0  0  0  0  0  0  0  0  0  0
   10.0980    9.9901   -6.1712 H   0  0  0  0  0  0  0  0  0  0  0  0
   10.3567    7.3713   -6.4339 H   0  0  0  0  0  0  0  0  0  0  0  0
    8.7431    7.7099   -5.7675 H   0  0  0  0  0  0  0  0  0  0  0  0
    8.1694   10.7708   -7.8356 H   0  0  0  0  0  0  0  0  0  0  0  0
    5.9064    2.7646    0.6035 H   0  0  0  0  0  0  0  0  0  0  0  0
    6.7431    1.8268    2.7220 H   0  0  0  0  0  0  0  0  0  0  0  0
    3.4738    0.9087    5.8701 H   0  0  0  0  0  0  0  0  0  0  0  0
    3.9185    2.4145    6.7451 H   0  0  0  0  0  0  0  0  0  0  0  0
    4.6161    0.8527    7.2308 H   0  0  0  0  0  0  0  0  0  0  0  0
    3.1387    3.0351    4.6770 H   0  0  0  0  0  0  0  0  0  0  0  0
    2.3319    4.0029    2.5966 H   0  0  0  0  0  0  0  0  0  0  0  0
    5.5771    5.6032    0.6262 H   0  0  0  0  0  0  0  0  0  0  0  0
    7.0742    6.4931   -1.1237 H   0  0  0  0  0  0  0  0  0  0  0  0
    8.0608    5.1054   -5.8643 H   0  0  0  0  0  0  0  0  0  0  0  0
    7.3356    3.8819   -4.7946 H   0  0  0  0  0  0  0  0  0  0  0  0
    6.2936    4.9340   -5.8014 H   0  0  0  0  0  0  0  0  0  0  0  0
    4.9389    4.2547   -4.0767 H   0  0  0  0  0  0  0  0  0  0  0  0
    3.4481    3.3982   -2.3536 H   0  0  0  0  0  0  0  0  0  0  0  0
   -1.0096   -0.1251   -1.4043 H   0  0  0  0  0  0  0  0  0  0  0  0
   -2.1289   -2.1204   -2.2541 H   0  0  0  0  0  0  0  0  0  0  0  0
   -3.2645   -4.0574   -0.9911 H   0  0  0  0  0  0  0  0  0  0  0  0
   -3.0564   -4.2887   -2.7571 H   0  0  0  0  0  0  0  0  0  0  0  0
   -4.3426   -5.1545   -1.8863 H   0  0  0  0  0  0  0  0  0  0  0  0
   -5.9011   -0.5385   -1.0177 H   0  0  0  0  0  0  0  0  0  0  0  0
   -4.7741    1.4525   -0.1215 H   0  0  0  0  0  0  0  0  0  0  0  0
   -2.1119    3.6756    1.8166 H   0  0  0  0  0  0  0  0  0  0  0  0
   -3.1688    5.8714    1.8503 H   0  0  0  0  0  0  0  0  0  0  0  0
   -4.6678    9.1243    1.1733 H   0  0  0  0  0  0  0  0  0  0  0  0
   -4.6249    7.6515    2.1645 H   0  0  0  0  0  0  0  0  0  0  0  0
   -3.1734    8.1640    1.2409 H   0  0  0  0  0  0  0  0  0  0  0  0
   -4.7666    5.1578   -2.0541 H   0  0  0  0  0  0  0  0  0  0  0  0
   -3.6847    2.9443   -2.0889 H   0  0  0  0  0  0  0  0  0  0  0  0
    1.2408   -0.8596    2.5353 H   0  0  0  0  0  0  0  0  0  0  0  0
    2.1298   -5.2228    3.8951 H   0  0  0  0  0  0  0  0  0  0  0  0
    4.3675   -4.7274    4.9644 H   0  0  0  0  0  0  0  0  0  0  0  0
    6.2922   -4.0431    5.9111 H   0  0  0  0  0  0  0  0  0  0  0  0
    7.0076   -2.9144    7.0749 H   0  0  0  0  0  0  0  0  0  0  0  0
    5.9007   -4.8373    8.2588 H   0  0  0  0  0  0  0  0  0  0  0  0
    5.1288   -3.2969    8.6541 H   0  0  0  0  0  0  0  0  0  0  0  0
    4.3601   -4.4009    7.5111 H   0  0  0  0  0  0  0  0  0  0  0  0
   -4.6718   -1.4105    2.2538 H   0  0  0  0  0  0  0  0  0  0  0  0
   -6.7454   -2.0662    0.9630 H   0  0  0  0  0  0  0  0  0  0  0  0
   -8.8012   -3.0780    0.1502 H   0  0  0  0  0  0  0  0  0  0  0  0
   -7.5895   -2.9182   -1.1606 H   0  0  0  0  0  0  0  0  0  0  0  0
   -9.8854   -3.3361   -2.0887 H   0  0  0  0  0  0  0  0  0  0  0  0
   -9.9660   -4.8523   -1.1816 H   0  0  0  0  0  0  0  0  0  0  0  0
   -8.7763   -4.6575   -2.4732 H   0  0  0  0  0  0  0  0  0  0  0  0
   -3.7524   -5.7200    3.9151 H   0  0  0  0  0  0  0  0  0  0  0  0
   -1.4964   -8.1611    5.8075 H   0  0  0  0  0  0  0  0  0  0  0  0
   -5.2389   -9.3056    0.9412 H   0  0  0  0  0  0  0  0  0  0  0  0
   -4.6468  -12.5598    4.7799 H   0  0  0  0  0  0  0  0  0  0  0  0
   -5.7380  -14.2008    1.9790 H   0  0  0  0  0  0  0  0  0  0  0  0
   -7.7875  -13.9156    3.6559 H   0  0  0  0  0  0  0  0  0  0  0  0
   -8.6010  -15.3007    1.5763 H   0  0  0  0  0  0  0  0  0  0  0  0
   -8.9371  -13.6224   -0.4553 H   0  0  0  0  0  0  0  0  0  0  0  0
   -8.3298  -11.2033    0.3733 H   0  0  0  0  0  0  0  0  0  0  0  0
   -7.8636  -11.3064    3.0167 H   0  0  0  0  0  0  0  0  0  0  0  0
   -9.4070  -12.0959    2.6202 H   0  0  0  0  0  0  0  0  0  0  0  0
   -6.0674  -12.5554   -0.0138 H   0  0  0  0  0  0  0  0  0  0  0  0
  1  2  2  0  0  0  0
  2  3  1  0  0  0  0
  3  4  2  0  0  0  0
  3  5  1  0  0  0  0
  5  6  2  0  0  0  0
  6  7  1  0  0  0  0
  7  8  2  0  0  0  0
  8  9  1  0  0  0  0
  9 10  2  0  0  0  0
 10 11  1  0  0  0  0
 11 12  2  0  0  0  0
 12 13  1  0  0  0  0
 13 14  3  0  0  0  0
 12 15  1  0  0  0  0
 15 16  3  0  0  0  0
  8 17  1  0  0  0  0
 17 18  1  0  0  0  0
 18 19  1  0  0  0  0
 19 20  2  0  0  0  0
 20 21  1  0  0  0  0
 21 22  1  0  0  0  0
 21 23  1  0  0  0  0
  1 24  1  0  0  0  0
 24 25  3  0  0  0  0
 25 26  1  0  0  0  0
 26 27  2  0  0  0  0
 27 28  1  0  0  0  0
 28 29  1  0  0  0  0
 29 30  2  0  0  0  0
 30 31  1  0  0  0  0
 31 32  2  0  0  0  0
 32 33  1  0  0  0  0
 33 34  1  0  0  0  0
 32 35  1  0  0  0  0
 35 36  2  0  0  0  0
 28 37  1  0  0  0  0
 37 38  2  0  0  0  0
 38 39  1  0  0  0  0
 39 40  2  0  0  0  0
 40 41  1  0  0  0  0
 41 42  1  0  0  0  0
 40 43  1  0  0  0  0
 43 44  2  0  0  0  0
 27 45  1  0  0  0  0
 45 46  1  0  0  0  0
 46 47  1  0  0  0  0
 47 48  2  0  0  0  0
 48 49  1  0  0  0  0
 49 50  1  0  0  0  0
 50 51  2  0  0  0  0
 51 52  1  0  0  0  0
 52 53  2  0  0  0  0
 53 54  1  0  0  0  0
 54 55  1  0  0  0  0
 53 56  1  0  0  0  0
 56 57  2  0  0  0  0
 49 58  1  0  0  0  0
 58 59  2  0  0  0  0
 59 60  1  0  0  0  0
 60 61  2  0  0  0  0
 61 62  1  0  0  0  0
 62 63  1  0  0  0  0
 61 64  1  0  0  0  0
 64 65  2  0  0  0  0
 48 66  1  0  0  0  0
 66 67  1  0  0  0  0
 47 68  1  0  0  0  0
 68 69  2  0  0  0  0
 69 70  1  0  0  0  0
 70 71  2  0  0  0  0
 71 72  1  0  0  0  0
 72 73  2  0  0  0  0
 73 74  1  0  0  0  0
 74 75  2  0  0  0  0
 75 76  1  0  0  0  0
 76 77  1  0  0  0  0
 77 78  1  0  0  0  0
 75 79  1  0  0  0  0
 71 80  1  0  0  0  0
 80 81  2  0  0  0  0
 81 82  1  0  0  0  0
 82 83  1  0  0  0  0
 83 84  2  0  0  0  0
 84 85  1  0  0  0  0
 85 86  2  0  0  0  0
 86 87  1  0  0  0  0
 87 88  1  0  0  0  0
 88 89  1  0  0  0  0
 86 90  1  0  0  0  0
 82 91  2  0  0  0  0
 91 92  1  0  0  0  0
 81 93  1  0  0  0  0
 93 94  2  0  0  0  0
 94 95  1  0  0  0  0
 94 96  1  0  0  0  0
 96 97  2  0  0  0  0
 97 98  1  0  0  0  0
 98 99  2  0  0  0  0
 98100  1  0  0  0  0
100101  2  0  0  0  0
101102  1  0  0  0  0
102103  2  0  0  0  0
103104  1  0  0  0  0
104105  2  0  0  0  0
105106  1  0  0  0  0
106107  2  0  0  0  0
107108  1  0  0  0  0
108109  3  0  0  0  0
107110  1  0  0  0  0
110111  3  0  0  0  0
103112  1  0  0  0  0
112113  1  0  0  0  0
113114  1  0  0  0  0
114115  2  0  0  0  0
115116  1  0  0  0  0
116117  1  0  0  0  0
116118  1  0  0  0  0
 11  2  1  0  0  0  0
 23 17  1  0  0  0  0
 67 26  1  0  0  0  0
 92 68  1  0  0  0  0
106 97  1  0  0  0  0
118112  1  0  0  0  0
 10  5  1  0  0  0  0
 22 18  1  0  0  0  0
 36 29  1  0  0  0  0
 44 37  1  0  0  0  0
 66 45  2  0  0  0  0
 91 70  1  0  0  0  0
105100  1  0  0  0  0
117113  1  0  0  0  0
 23  7  1  0  0  0  0
 57 50  1  0  0  0  0
 65 58  1  0  0  0  0
 79 72  1  0  0  0  0
 95 80  1  0  0  0  0
118102  1  0  0  0  0
 90 83  1  0  0  0  0
  1119  1  0  0  0  0
  6120  1  0  0  0  0
  9121  1  0  0  0  0
 17122  1  0  0  0  0
 18123  1  0  0  0  0
 19124  1  0  0  0  0
 20125  1  0  0  0  0
 21126  1  0  0  0  0
 22127  1  0  0  0  0
 22128  1  0  0  0  0
 23129  1  0  0  0  0
 30130  1  0  0  0  0
 31131  1  0  0  0  0
 34132  1  0  0  0  0
 34133  1  0  0  0  0
 34134  1  0  0  0  0
 35135  1  0  0  0  0
 36136  1  0  0  0  0
 38137  1  0  0  0  0
 39138  1  0  0  0  0
 42139  1  0  0  0  0
 42140  1  0  0  0  0
 42141  1  0  0  0  0
 43142  1  0  0  0  0
 44143  1  0  0  0  0
 51144  1  0  0  0  0
 52145  1  0  0  0  0
 55146  1  0  0  0  0
 55147  1  0  0  0  0
 55148  1  0  0  0  0
 56149  1  0  0  0  0
 57150  1  0  0  0  0
 59151  1  0  0  0  0
 60152  1  0  0  0  0
 63153  1  0  0  0  0
 63154  1  0  0  0  0
 63155  1  0  0  0  0
 64156  1  0  0  0  0
 65157  1  0  0  0  0
 69158  1  0  0  0  0
 73159  1  0  0  0  0
 74160  1  0  0  0  0
 77161  1  0  0  0  0
 77162  1  0  0  0  0
 78163  1  0  0  0  0
 78164  1  0  0  0  0
 78165  1  0  0  0  0
 84166  1  0  0  0  0
 85167  1  0  0  0  0
 88168  1  0  0  0  0
 88169  1  0  0  0  0
 89170  1  0  0  0  0
 89171  1  0  0  0  0
 89172  1  0  0  0  0
 93173  1  0  0  0  0
 96174  1  0  0  0  0
101175  1  0  0  0  0
104176  1  0  0  0  0
112177  1  0  0  0  0
113178  1  0  0  0  0
114179  1  0  0  0  0
115180  1  0  0  0  0
116181  1  0  0  0  0
117182  1  0  0  0  0
117183  1  0  0  0  0
118184  1  0  0  0  0
M  END
