
  xtb     02142210343D
 energy: -280.139844026714 gnorm: 0.002900933852 xtb: 6.4.1 (unknown)
149167  0     0  0            999 V2000
   -1.6587    5.6096   -3.8614 C   0  0  0  0  0  0  0  0  0  0  0  0
   -2.6492    6.2931   -3.2165 C   0  0  0  0  0  0  0  0  0  0  0  0
   -2.9692    6.1252   -1.7768 C   0  0  0  0  0  0  0  0  0  0  0  0
   -2.5331    5.2994   -1.0029 O   0  0  0  0  0  0  0  0  0  0  0  0
   -3.8193    7.2809   -1.4291 C   0  0  0  0  0  0  0  0  0  0  0  0
   -4.3099    7.5991   -0.1655 C   0  0  0  0  0  0  0  0  0  0  0  0
   -5.0425    8.7610   -0.1253 C   0  0  0  0  0  0  0  0  0  0  0  0
   -5.2675    9.5547   -1.2579 C   0  0  0  0  0  0  0  0  0  0  0  0
   -4.7836    9.2560   -2.5101 C   0  0  0  0  0  0  0  0  0  0  0  0
   -4.0367    8.0764   -2.5725 C   0  0  0  0  0  0  0  0  0  0  0  0
   -3.3561    7.4535   -3.7035 C   0  0  0  0  0  0  0  0  0  0  0  0
   -3.4506    7.8227   -5.0225 C   0  0  0  0  0  0  0  0  0  0  0  0
   -2.8551    7.1024   -6.0783 C   0  0  0  0  0  0  0  0  0  0  0  0
   -2.4175    6.5402   -6.9799 N   0  0  0  0  0  0  0  0  0  0  0  0
   -4.1919    8.9260   -5.4892 C   0  0  0  0  0  0  0  0  0  0  0  0
   -4.7757    9.8127   -5.9278 N   0  0  0  0  0  0  0  0  0  0  0  0
   -6.0789   10.5651   -0.4854 C   0  0  0  0  0  0  0  0  0  0  0  0
   -7.6197   10.5194   -0.6339 C   0  0  0  0  0  0  0  0  0  0  0  0
   -7.9739    9.0970   -0.9906 C   0  0  0  0  0  0  0  0  0  0  0  0
   -7.7607    8.3455    0.0812 C   0  0  0  0  0  0  0  0  0  0  0  0
   -7.2577    9.2462    1.1821 C   0  0  0  0  0  0  0  0  0  0  0  0
   -8.0248   10.5357    0.8490 C   0  0  0  0  0  0  0  0  0  0  0  0
   -5.8274    9.6802    0.7762 C   0  0  0  0  0  0  0  0  0  0  0  0
   -1.1500    4.3550   -3.4386 C   0  0  0  0  0  0  0  0  0  0  0  0
    0.2126    4.0219   -3.5750 C   0  0  0  0  0  0  0  0  0  0  0  0
    0.7739    2.7684   -3.1147 C   0  0  0  0  0  0  0  0  0  0  0  0
    2.1053    2.7645   -3.2171 N   0  0  0  0  0  0  0  0  0  0  0  0
    2.5917    4.1517   -3.8660 S   0  0  0  0  0  4  0  0  0  0  0  0
    1.1547    4.8486   -4.0316 N   0  0  0  0  0  0  0  0  0  0  0  0
   -0.0305    1.7291   -2.5959 C   0  0  0  0  0  0  0  0  0  0  0  0
   -1.3974    2.0769   -2.4482 C   0  0  0  0  0  0  0  0  0  0  0  0
   -2.3376    1.2637   -1.9674 N   0  0  0  0  0  0  0  0  0  0  0  0
   -3.7626    2.0115   -2.0362 S   0  0  0  0  0  0  0  0  0  0  0  0
   -3.2713    3.3813   -2.7034 N   0  0  0  0  0  0  0  0  0  0  0  0
   -1.9489    3.3438   -2.8644 C   0  0  0  0  0  0  0  0  0  0  0  0
    0.4119    0.4426   -2.2031 C   0  0  0  0  0  0  0  0  0  0  0  0
    1.5854   -0.2815   -2.4942 C   0  0  0  0  0  0  0  0  0  0  0  0
    2.5503   -0.0256   -3.4395 N   0  0  0  0  0  0  0  0  0  0  0  0
    2.3360    0.6517   -4.6289 C   0  0  0  0  0  0  0  0  0  0  0  0
    1.0615    0.7477   -5.1957 C   0  0  0  0  0  0  0  0  0  0  0  0
    0.8292    1.5808   -6.2676 C   0  0  0  0  0  0  0  0  0  0  0  0
    1.8751    2.3088   -6.8285 C   0  0  0  0  0  0  0  0  0  0  0  0
    1.6441    3.5067   -8.0938 S   0  0  0  0  0  0  0  0  0  0  0  0
   -0.0898    3.9996   -7.8698 C   0  0  0  0  0  0  0  0  0  0  0  0
    3.1755    2.0852   -6.3708 C   0  0  0  0  0  0  0  0  0  0  0  0
    3.4063    1.2654   -5.2920 C   0  0  0  0  0  0  0  0  0  0  0  0
    3.8474   -0.4971   -3.1193 C   0  0  0  0  0  0  0  0  0  0  0  0
    4.4903   -1.4238   -3.9312 C   0  0  0  0  0  0  0  0  0  0  0  0
    5.6894   -1.9816   -3.5324 C   0  0  0  0  0  0  0  0  0  0  0  0
    6.2565   -1.6160   -2.3176 C   0  0  0  0  0  0  0  0  0  0  0  0
    7.7299   -2.3375   -1.6771 S   0  0  0  0  0  0  0  0  0  0  0  0
    7.8457   -3.9040   -2.5880 C   0  0  0  0  0  0  0  0  0  0  0  0
    5.6501   -0.6294   -1.5419 C   0  0  0  0  0  0  0  0  0  0  0  0
    4.4534   -0.0761   -1.9371 C   0  0  0  0  0  0  0  0  0  0  0  0
    1.6546   -1.4491   -1.6942 C   0  0  0  0  0  0  0  0  0  0  0  0
    2.8633   -2.6752   -1.4605 S   0  0  0  0  0  0  0  0  0  0  0  0
    1.8293   -3.5008   -0.3168 C   0  0  0  0  0  0  0  0  0  0  0  0
    0.6409   -2.7985   -0.0566 C   0  0  0  0  0  0  0  0  0  0  0  0
   -0.2310   -3.0571    0.9729 N   0  0  0  0  0  0  0  0  0  0  0  0
   -1.5660   -2.6665    0.8093 C   0  0  0  0  0  0  0  0  0  0  0  0
   -2.2603   -2.0161    1.8298 C   0  0  0  0  0  0  0  0  0  0  0  0
   -3.5265   -1.5308    1.5959 C   0  0  0  0  0  0  0  0  0  0  0  0
   -4.1261   -1.6858    0.3452 C   0  0  0  0  0  0  0  0  0  0  0  0
   -5.7055   -0.9424    0.1225 S   0  0  0  0  0  0  0  0  0  0  0  0
   -5.9482   -1.0082   -1.6760 C   0  0  0  0  0  0  0  0  0  0  0  0
   -3.4664   -2.4015   -0.6464 C   0  0  0  0  0  0  0  0  0  0  0  0
   -2.1966   -2.8862   -0.4135 C   0  0  0  0  0  0  0  0  0  0  0  0
    0.2231   -3.5818    2.1887 C   0  0  0  0  0  0  0  0  0  0  0  0
    1.4854   -3.2461    2.6781 C   0  0  0  0  0  0  0  0  0  0  0  0
    1.9816   -3.8355    3.8204 C   0  0  0  0  0  0  0  0  0  0  0  0
    1.2126   -4.7652    4.5117 C   0  0  0  0  0  0  0  0  0  0  0  0
    1.7988   -5.6170    5.9399 S   0  0  0  0  0  0  0  0  0  0  0  0
    3.0289   -4.4671    6.6209 C   0  0  0  0  0  0  0  0  0  0  0  0
   -0.0718   -5.0627    4.0604 C   0  0  0  0  0  0  0  0  0  0  0  0
   -0.5656   -4.4731    2.9161 C   0  0  0  0  0  0  0  0  0  0  0  0
    0.5510   -1.6565   -0.8818 C   0  0  0  0  0  0  0  0  0  0  0  0
   -0.6468   -0.4274   -1.0956 S   0  0  0  0  0  0  0  0  0  0  0  0
    2.2794   -4.7020    0.2723 C   0  0  0  0  0  0  0  0  0  0  0  0
    3.6538   -4.9335    0.5068 C   0  0  0  0  0  0  0  0  0  0  0  0
    4.1203   -5.9523    1.4224 C   0  0  0  0  0  0  0  0  0  0  0  0
    5.4457   -5.9366    1.5289 N   0  0  0  0  0  0  0  0  0  0  0  0
    6.0412   -4.7573    0.6154 S   0  0  0  0  0  4  0  0  0  0  0  0
    4.6541   -4.2074    0.0118 N   0  0  0  0  0  0  0  0  0  0  0  0
    3.2321   -6.8579    2.0513 C   0  0  0  0  0  0  0  0  0  0  0  0
    1.9037   -6.8113    1.5583 C   0  0  0  0  0  0  0  0  0  0  0  0
    0.9361   -7.6778    1.8449 N   0  0  0  0  0  0  0  0  0  0  0  0
   -0.4164   -7.2232    1.1062 S   0  0  0  0  0  0  0  0  0  0  0  0
    0.1362   -5.8795    0.4173 N   0  0  0  0  0  0  0  0  0  0  0  0
    1.4260   -5.7353    0.7226 C   0  0  0  0  0  0  0  0  0  0  0  0
    3.5758   -7.7854    3.0504 C   0  0  0  0  0  0  0  0  0  0  0  0
    4.5515   -7.6293    4.0056 C   0  0  0  0  0  0  0  0  0  0  0  0
    5.0906   -6.3379    4.4516 C   0  0  0  0  0  0  0  0  0  0  0  0
    4.8718   -5.2214    4.0182 O   0  0  0  0  0  0  0  0  0  0  0  0
    5.8567   -6.6392    5.6859 C   0  0  0  0  0  0  0  0  0  0  0  0
    6.5245   -5.7671    6.5186 C   0  0  0  0  0  0  0  0  0  0  0  0
    7.1352   -6.2802    7.6563 C   0  0  0  0  0  0  0  0  0  0  0  0
    8.0551   -5.1025    8.8182 Br  0  0  0  0  0  0  0  0  0  0  0  0
    7.0644   -7.6425    7.9419 C   0  0  0  0  0  0  0  0  0  0  0  0
    7.8855   -8.3292    9.5018 Br  0  0  0  0  0  0  0  0  0  0  0  0
    6.3902   -8.5212    7.0997 C   0  0  0  0  0  0  0  0  0  0  0  0
    5.7841   -8.0146    5.9640 C   0  0  0  0  0  0  0  0  0  0  0  0
    5.0117   -8.6600    4.9049 C   0  0  0  0  0  0  0  0  0  0  0  0
    4.8466  -10.0112    4.7413 C   0  0  0  0  0  0  0  0  0  0  0  0
    5.3588  -10.9793    5.6279 C   0  0  0  0  0  0  0  0  0  0  0  0
    5.7617  -11.8024    6.3186 N   0  0  0  0  0  0  0  0  0  0  0  0
    4.1986  -10.6060    3.6381 C   0  0  0  0  0  0  0  0  0  0  0  0
    3.7170  -11.1667    2.7596 N   0  0  0  0  0  0  0  0  0  0  0  0
   -1.1636    6.0580   -4.7140 H   0  0  0  0  0  0  0  0  0  0  0  0
   -4.1083    6.9637    0.6829 H   0  0  0  0  0  0  0  0  0  0  0  0
   -4.9514    9.8810   -3.3719 H   0  0  0  0  0  0  0  0  0  0  0  0
   -5.6925   11.5824   -0.4793 H   0  0  0  0  0  0  0  0  0  0  0  0
   -8.0341   11.2925   -1.2752 H   0  0  0  0  0  0  0  0  0  0  0  0
   -8.2771    8.7842   -1.9725 H   0  0  0  0  0  0  0  0  0  0  0  0
   -7.8499    7.2788    0.1741 H   0  0  0  0  0  0  0  0  0  0  0  0
   -7.3422    8.8605    2.1949 H   0  0  0  0  0  0  0  0  0  0  0  0
   -9.0995   10.4360    0.9936 H   0  0  0  0  0  0  0  0  0  0  0  0
   -7.6604   11.4087    1.3888 H   0  0  0  0  0  0  0  0  0  0  0  0
   -5.2765   10.1198    1.6055 H   0  0  0  0  0  0  0  0  0  0  0  0
    0.2424    0.1853   -4.7745 H   0  0  0  0  0  0  0  0  0  0  0  0
   -0.1716    1.6638   -6.6605 H   0  0  0  0  0  0  0  0  0  0  0  0
   -0.2231    4.9110   -8.4422 H   0  0  0  0  0  0  0  0  0  0  0  0
   -0.2757    4.1977   -6.8187 H   0  0  0  0  0  0  0  0  0  0  0  0
   -0.7554    3.2300   -8.2500 H   0  0  0  0  0  0  0  0  0  0  0  0
    3.9943    2.5972   -6.8520 H   0  0  0  0  0  0  0  0  0  0  0  0
    4.4074    1.1523   -4.9070 H   0  0  0  0  0  0  0  0  0  0  0  0
    4.0334   -1.7262   -4.8615 H   0  0  0  0  0  0  0  0  0  0  0  0
    6.1637   -2.7111   -4.1683 H   0  0  0  0  0  0  0  0  0  0  0  0
    8.5811   -4.5013   -2.0584 H   0  0  0  0  0  0  0  0  0  0  0  0
    6.8793   -4.3977   -2.5693 H   0  0  0  0  0  0  0  0  0  0  0  0
    8.1832   -3.7293   -3.6058 H   0  0  0  0  0  0  0  0  0  0  0  0
    6.1194   -0.3239   -0.6202 H   0  0  0  0  0  0  0  0  0  0  0  0
    3.9619    0.6698   -1.3310 H   0  0  0  0  0  0  0  0  0  0  0  0
   -1.7875   -1.8657    2.7889 H   0  0  0  0  0  0  0  0  0  0  0  0
   -4.0586   -1.0002    2.3705 H   0  0  0  0  0  0  0  0  0  0  0  0
   -6.8110   -0.3811   -1.8813 H   0  0  0  0  0  0  0  0  0  0  0  0
   -6.1545   -2.0274   -1.9908 H   0  0  0  0  0  0  0  0  0  0  0  0
   -5.0692   -0.6070   -2.1725 H   0  0  0  0  0  0  0  0  0  0  0  0
   -3.9275   -2.5852   -1.6030 H   0  0  0  0  0  0  0  0  0  0  0  0
   -1.6788   -3.4419   -1.1808 H   0  0  0  0  0  0  0  0  0  0  0  0
    2.0905   -2.5239    2.1508 H   0  0  0  0  0  0  0  0  0  0  0  0
    2.9765   -3.5854    4.1477 H   0  0  0  0  0  0  0  0  0  0  0  0
    3.3308   -4.8880    7.5749 H   0  0  0  0  0  0  0  0  0  0  0  0
    3.8845   -4.3957    5.9578 H   0  0  0  0  0  0  0  0  0  0  0  0
    2.5669   -3.4960    6.7697 H   0  0  0  0  0  0  0  0  0  0  0  0
   -0.6713   -5.7719    4.6099 H   0  0  0  0  0  0  0  0  0  0  0  0
   -1.5558   -4.7174    2.5607 H   0  0  0  0  0  0  0  0  0  0  0  0
    2.9356   -8.6581    3.0983 H   0  0  0  0  0  0  0  0  0  0  0  0
    6.5781   -4.7131    6.2943 H   0  0  0  0  0  0  0  0  0  0  0  0
    6.3475   -9.5679    7.3535 H   0  0  0  0  0  0  0  0  0  0  0  0
  1  2  2  0  0  0  0
  2  3  1  0  0  0  0
  3  4  2  0  0  0  0
  3  5  1  0  0  0  0
  5  6  2  0  0  0  0
  6  7  1  0  0  0  0
  7  8  2  0  0  0  0
  8  9  1  0  0  0  0
  9 10  2  0  0  0  0
 10 11  1  0  0  0  0
 11 12  2  0  0  0  0
 12 13  1  0  0  0  0
 13 14  3  0  0  0  0
 12 15  1  0  0  0  0
 15 16  3  0  0  0  0
  8 17  1  0  0  0  0
 17 18  1  0  0  0  0
 18 19  1  0  0  0  0
 19 20  2  0  0  0  0
 20 21  1  0  0  0  0
 21 22  1  0  0  0  0
 21 23  1  0  0  0  0
  1 24  1  0  0  0  0
 24 25  2  0  0  0  0
 25 26  1  0  0  0  0
 26 27  1  0  0  0  0
 27 28  2  0  0  0  0
 28 29  2  0  0  0  0
 26 30  2  0  0  0  0
 30 31  1  0  0  0  0
 31 32  2  0  0  0  0
 32 33  1  0  0  0  0
 33 34  1  0  0  0  0
 34 35  2  0  0  0  0
 30 36  1  0  0  0  0
 36 37  2  0  0  0  0
 37 38  1  0  0  0  0
 38 39  1  0  0  0  0
 39 40  2  0  0  0  0
 40 41  1  0  0  0  0
 41 42  2  0  0  0  0
 42 43  1  0  0  0  0
 43 44  1  0  0  0  0
 42 45  1  0  0  0  0
 45 46  2  0  0  0  0
 38 47  1  0  0  0  0
 47 48  2  0  0  0  0
 48 49  1  0  0  0  0
 49 50  2  0  0  0  0
 50 51  1  0  0  0  0
 51 52  1  0  0  0  0
 50 53  1  0  0  0  0
 53 54  2  0  0  0  0
 37 55  1  0  0  0  0
 55 56  1  0  0  0  0
 56 57  1  0  0  0  0
 57 58  2  0  0  0  0
 58 59  1  0  0  0  0
 59 60  1  0  0  0  0
 60 61  2  0  0  0  0
 61 62  1  0  0  0  0
 62 63  2  0  0  0  0
 63 64  1  0  0  0  0
 64 65  1  0  0  0  0
 63 66  1  0  0  0  0
 66 67  2  0  0  0  0
 59 68  1  0  0  0  0
 68 69  2  0  0  0  0
 69 70  1  0  0  0  0
 70 71  2  0  0  0  0
 71 72  1  0  0  0  0
 72 73  1  0  0  0  0
 71 74  1  0  0  0  0
 74 75  2  0  0  0  0
 58 76  1  0  0  0  0
 76 77  1  0  0  0  0
 57 78  1  0  0  0  0
 78 79  2  0  0  0  0
 79 80  1  0  0  0  0
 80 81  1  0  0  0  0
 81 82  2  0  0  0  0
 82 83  2  0  0  0  0
 80 84  2  0  0  0  0
 84 85  1  0  0  0  0
 85 86  2  0  0  0  0
 86 87  1  0  0  0  0
 87 88  1  0  0  0  0
 88 89  2  0  0  0  0
 84 90  1  0  0  0  0
 90 91  2  0  0  0  0
 91 92  1  0  0  0  0
 92 93  2  0  0  0  0
 92 94  1  0  0  0  0
 94 95  2  0  0  0  0
 95 96  1  0  0  0  0
 96 97  1  0  0  0  0
 96 98  2  0  0  0  0
 98 99  1  0  0  0  0
 98100  1  0  0  0  0
100101  2  0  0  0  0
101102  1  0  0  0  0
102103  2  0  0  0  0
103104  1  0  0  0  0
104105  3  0  0  0  0
103106  1  0  0  0  0
106107  3  0  0  0  0
 11  2  1  0  0  0  0
 23 17  1  0  0  0  0
 35 24  1  0  0  0  0
 77 36  1  0  0  0  0
 89 78  1  0  0  0  0
102 91  1  0  0  0  0
 10  5  1  0  0  0  0
 22 18  1  0  0  0  0
 29 25  1  0  0  0  0
 35 31  1  0  0  0  0
 46 39  1  0  0  0  0
 54 47  1  0  0  0  0
 76 55  2  0  0  0  0
 83 79  1  0  0  0  0
 89 85  1  0  0  0  0
101 94  1  0  0  0  0
 23  7  1  0  0  0  0
 67 60  1  0  0  0  0
 75 68  1  0  0  0  0
  1108  1  0  0  0  0
  6109  1  0  0  0  0
  9110  1  0  0  0  0
 17111  1  0  0  0  0
 18112  1  0  0  0  0
 19113  1  0  0  0  0
 20114  1  0  0  0  0
 21115  1  0  0  0  0
 22116  1  0  0  0  0
 22117  1  0  0  0  0
 23118  1  0  0  0  0
 40119  1  0  0  0  0
 41120  1  0  0  0  0
 44121  1  0  0  0  0
 44122  1  0  0  0  0
 44123  1  0  0  0  0
 45124  1  0  0  0  0
 46125  1  0  0  0  0
 48126  1  0  0  0  0
 49127  1  0  0  0  0
 52128  1  0  0  0  0
 52129  1  0  0  0  0
 52130  1  0  0  0  0
 53131  1  0  0  0  0
 54132  1  0  0  0  0
 61133  1  0  0  0  0
 62134  1  0  0  0  0
 65135  1  0  0  0  0
 65136  1  0  0  0  0
 65137  1  0  0  0  0
 66138  1  0  0  0  0
 67139  1  0  0  0  0
 69140  1  0  0  0  0
 70141  1  0  0  0  0
 73142  1  0  0  0  0
 73143  1  0  0  0  0
 73144  1  0  0  0  0
 74145  1  0  0  0  0
 75146  1  0  0  0  0
 90147  1  0  0  0  0
 95148  1  0  0  0  0
100149  1  0  0  0  0
M  END
