191

C          8.06000       -5.68910        1.03150
C          7.83000       -6.92640        1.58600
C          6.53590       -7.46670        2.00670
O          5.44540       -6.92360        1.94430
C          6.80180       -8.81740        2.53470
C          5.87220       -9.71020        3.06250
C          6.41800      -10.89610        3.49270
C          7.78820      -11.17230        3.40520
C          8.71580      -10.29920        2.88790
C          8.18160       -9.08660        2.44230
C          8.84450       -7.92390        1.85020
C         10.19350       -7.82540        1.60900
C         11.13290       -8.83980        1.88540
N         11.96050       -9.61340        2.07610
C         10.85810       -6.71310        1.05460
N         11.48470       -5.85540        0.61370
C          7.63370      -12.54220        4.01800
C          7.67890      -13.74150        3.04780
C          7.03540      -14.86350        3.83020
C          5.73720      -14.60270        3.91590
C          5.48130      -13.30050        3.19190
C          6.53550      -13.40380        2.08220
C          6.10510      -12.23410        4.11670
C          7.19590       -4.62890        0.75020
C          7.63230       -3.41470        0.16540
C          9.03230       -3.19400       -0.31660
C          9.27340       -3.90680       -1.65050
C          6.59840       -2.50280        0.05290
C          5.37970       -3.01530        0.52480
S          5.47230       -4.61220        1.11090
C          4.38190       -2.03450        0.35060
C          4.93540       -0.89360       -0.22290
C          6.40910       -1.09500       -0.48870
C          6.71440       -1.11390       -2.00210
C          6.31190        0.14290       -2.76260
C          7.24530       -0.04010        0.25460
C          7.10440       -0.14220        1.76860
C          3.99200        0.11030       -0.42780
C          2.71910       -0.28910       -0.07140
S          2.70030       -1.88670        0.64540
C          1.49910        0.42330       -0.28840
C          0.30980       -0.07810       -0.79340
N          0.09960       -1.37520       -1.23830
C          1.11910       -2.06440       -1.90500
C          1.99020       -1.38410       -2.75330
C          3.08440       -2.02260       -3.30080
C          3.32150       -3.36040       -3.01680
S          4.76290       -4.22520       -3.56810
C          5.22790       -3.32600       -5.08080
C          2.42030       -4.06230       -2.22060
C          1.32850       -3.42510       -1.67330
C         -1.15210       -1.95680       -1.00670
C         -1.84420       -1.67950        0.17370
C         -3.10650       -2.18780        0.37540
C         -3.70450       -2.99660       -0.58840
S         -5.34250       -3.55250       -0.23250
C         -5.73570       -4.67380       -1.60380
C         -3.00620       -3.30470       -1.74810
C         -1.74280       -2.78580       -1.95540
C         -0.67290        0.93880       -0.86810
S         -2.32710        0.96460       -1.35860
C         -2.43470        2.68390       -0.98960
C         -1.23790        3.19180       -0.49410
N         -1.02330        4.47640       -0.01780
C          0.22600        5.07140       -0.24050
C          0.90860        4.85560       -1.43830
C          2.15090        5.41280       -1.63850
C          2.73670        6.20800       -0.65550
S          4.33920        6.85050       -1.02000
C          4.71040        7.93340        0.38810
C          2.05150        6.44190        0.52960
C          0.80930        5.87480        0.73440
C         -2.03200        5.17550        0.65510
C         -2.90680        4.50730        1.50750
C         -3.99870        5.15630        2.04730
C         -4.22980        6.49330        1.75280
S         -5.67320        7.36860        2.27680
C         -6.18820        6.45930        3.76510
C         -3.31400        7.18760        0.96580
C         -2.22490        6.54040        0.42610
C         -0.24070        2.18470       -0.44940
S          1.42110        2.15080        0.03270
C         -3.65400        3.39910       -1.19420
C         -4.95810        3.02110       -0.88230
C         -5.33730        1.65670       -0.38590
C         -4.86240        1.37560        1.03870
C         -5.84340        4.09140       -1.04650
C         -5.22200        5.24830       -1.51550
S         -3.55610        5.02650       -1.83750
C         -6.13820        6.31170       -1.51800
C         -7.38330        5.84380       -1.05510
C         -7.31380        4.35900       -0.76810
C         -8.14760        3.57940       -1.81160
C         -9.65660        3.74260       -1.69580
C         -7.65220        3.98590        0.69270
C         -8.68860        4.86510        1.38310
C         -8.33210        6.83970       -1.00520
C         -7.83790        8.08440       -1.40930
S         -6.12890        7.97720       -1.86320
C         -8.42120        9.34850       -1.49560
C         -9.71420        9.78510       -1.28560
C        -10.91680        8.98900       -0.99750
O        -11.03300        7.79350       -0.80450
C        -12.04260        9.95120       -1.00100
C        -13.38310        9.69510       -0.80630
C        -14.26990       10.76220       -0.86650
Br       -16.11690       10.44690       -0.60510
C        -13.80200       12.05120       -1.11950
Br       -15.01630       13.50000       -1.20920
C        -12.44800       12.30500       -1.31200
C        -11.55930       11.24480       -1.25060
C        -10.10480       11.17580       -1.40050
C         -9.29410       12.27050       -1.57410
C         -7.88550       12.27260       -1.65550
N         -6.74370       12.38730       -1.71830
C         -9.77050       13.59440       -1.67400
N        -10.09000       14.69330       -1.76730
H          9.08930       -5.48440        0.77310
H          4.82590       -9.45280        3.11580
H          9.76690      -10.52750        2.83430
H          8.19050      -12.71710        4.93660
H          8.65610      -13.94210        2.61730
H          7.58130      -15.67500        4.27460
H          4.98220      -15.15300        4.44630
H          4.45580      -13.10080        2.89230
H          6.68400      -12.48120        1.52420
H          6.32680      -14.21840        1.39040
H          5.64370      -12.20220        5.10220
H          9.19900       -2.12480       -0.44520
H          9.75700       -3.55350        0.41650
H         10.28160       -3.70320       -2.00120
H          8.56230       -3.56780       -2.40030
H          9.16060       -4.98200       -1.53970
H          6.19500       -1.97510       -2.42810
H          7.78590       -1.27500       -2.12740
H          5.23430        0.28010       -2.74500
H          6.78440        1.02700       -2.34330
H          6.62880        0.05710       -3.80070
H          8.29560       -0.15080       -0.02040
H          6.91670        0.94950       -0.06660
H          7.46390       -1.10400        2.12640
H          7.68310        0.64210        2.25060
H          6.06350       -0.03280        2.06490
H          4.18300        1.08280       -0.84500
H          1.82040       -0.33900       -2.96730
H          3.75250       -1.46500       -3.93740
H          4.34880       -3.18990       -5.70280
H          5.68710       -2.37230       -4.83720
H          5.94890       -3.95870       -5.58880
H          2.60290       -5.10470       -2.01130
H          0.65080       -3.96590       -1.03070
H         -1.38110       -1.06620        0.93240
H         -3.64440       -1.96890        1.28490
H         -5.76270       -4.12420       -2.54020
H         -5.01130       -5.48220       -1.63890
H         -6.72150       -5.07120       -1.38240
H         -3.43810       -3.93530       -2.50820
H         -1.21260       -3.01420       -2.86800
H          0.45330        4.25600       -2.21250
H          2.68120        5.24610       -2.56340
H          3.94850        8.70260        0.47330
H          4.78760        7.34830        1.30010
H          5.66970        8.38830        0.16130
H          2.47670        7.05350        1.30850
H          0.28700        6.04970        1.66330
H         -2.74070        3.46460        1.73100
H         -4.66780        4.60740        2.69100
H         -5.33160        6.32340        4.41800
H         -6.93010        7.08540        4.25060
H         -6.63510        5.50670        3.49720
H         -3.48420        8.23230        0.75700
H         -1.53840        7.07530       -0.21210
H         -4.91900        0.90050       -1.05380
H         -6.42220        1.56440       -0.41860
H         -5.24500        2.12640        1.72550
H         -3.77730        1.37440        1.09190
H         -5.21980        0.39920        1.35590
H         -7.82710        3.91190       -2.80260
H         -7.89790        2.51960       -1.72800
H        -10.13720        3.20260       -2.50900
H        -10.02520        3.33370       -0.75930
H         -9.94640        4.78660       -1.76610
H         -7.98790        2.94760        0.71410
H         -6.72460        4.04280        1.26750
H         -9.62640        4.88730        0.83890
H         -8.32480        5.88420        1.48460
H         -8.88630        4.47030        2.37870
H         -9.35240        6.73170       -0.69030
H         -7.71900       10.11660       -1.79650
H        -13.73060        8.69200       -0.61340
H        -12.12760       13.31540       -1.50680
