
  xtb     02052220043D
 energy: -264.963250688726 gnorm: 0.000405054812 xtb: 6.4.1 (unknown)
159176  0     0  0            999 V2000
   -5.0072   -0.0422    0.6636 C   0  0  0  0  0  0  0  0  0  0  0  0
   -4.9985    0.7902   -0.4325 C   0  0  0  0  0  0  0  0  0  0  0  0
   -3.9323    1.7626   -0.7185 C   0  0  0  0  0  0  0  0  0  0  0  0
   -2.9071    1.9467   -0.0870 O   0  0  0  0  0  0  0  0  0  0  0  0
   -4.4228    2.5739   -1.8535 C   0  0  0  0  0  0  0  0  0  0  0  0
   -3.7663    3.6328   -2.4744 C   0  0  0  0  0  0  0  0  0  0  0  0
   -4.4730    4.2033   -3.5070 C   0  0  0  0  0  0  0  0  0  0  0  0
   -5.7474    3.7638   -3.8843 C   0  0  0  0  0  0  0  0  0  0  0  0
   -6.4094    2.7227   -3.2755 C   0  0  0  0  0  0  0  0  0  0  0  0
   -5.6999    2.1195   -2.2335 C   0  0  0  0  0  0  0  0  0  0  0  0
   -6.0569    0.9819   -1.3874 C   0  0  0  0  0  0  0  0  0  0  0  0
   -7.1251    0.1412   -1.5805 C   0  0  0  0  0  0  0  0  0  0  0  0
   -7.3492   -1.0290   -0.8283 C   0  0  0  0  0  0  0  0  0  0  0  0
   -7.5736   -2.0071   -0.2694 N   0  0  0  0  0  0  0  0  0  0  0  0
   -8.0858    0.3015   -2.5969 C   0  0  0  0  0  0  0  0  0  0  0  0
   -8.8911    0.3888   -3.4114 N   0  0  0  0  0  0  0  0  0  0  0  0
   -5.8739    4.8031   -4.9711 C   0  0  0  0  0  0  0  0  0  0  0  0
   -6.7626    6.0244   -4.6562 C   0  0  0  0  0  0  0  0  0  0  0  0
   -6.3197    7.0636   -5.6609 C   0  0  0  0  0  0  0  0  0  0  0  0
   -5.1113    7.4798   -5.3047 C   0  0  0  0  0  0  0  0  0  0  0  0
   -4.7172    6.7290   -4.0531 C   0  0  0  0  0  0  0  0  0  0  0  0
   -6.0932    6.5782   -3.3917 C   0  0  0  0  0  0  0  0  0  0  0  0
   -4.4506    5.2929   -4.5514 C   0  0  0  0  0  0  0  0  0  0  0  0
   -3.8848   -0.4649    1.3858 C   0  0  0  0  0  0  0  0  0  0  0  0
   -2.5347   -0.6188    1.0115 C   0  0  0  0  0  0  0  0  0  0  0  0
   -2.0292   -0.5436   -0.2598 N   0  0  0  0  0  0  0  0  0  0  0  0
   -0.6742   -0.2319   -0.4732 C   0  0  0  0  0  0  0  0  0  0  0  0
    0.0397   -0.8965   -1.4685 C   0  0  0  0  0  0  0  0  0  0  0  0
    1.3651   -0.5909   -1.7010 C   0  0  0  0  0  0  0  0  0  0  0  0
    1.9977    0.3796   -0.9372 C   0  0  0  0  0  0  0  0  0  0  0  0
    3.7023    0.8051   -1.1961 S   0  0  0  0  0  0  0  0  0  0  0  0
    3.7626    0.9329   -3.0120 C   0  0  0  0  0  0  0  0  0  0  0  0
    1.2929    1.0418    0.0601 C   0  0  0  0  0  0  0  0  0  0  0  0
   -0.0364    0.7480    0.2853 C   0  0  0  0  0  0  0  0  0  0  0  0
   -2.8390   -0.7927   -1.3776 C   0  0  0  0  0  0  0  0  0  0  0  0
   -2.7381    0.0120   -2.5105 C   0  0  0  0  0  0  0  0  0  0  0  0
   -3.5899   -0.1699   -3.5839 C   0  0  0  0  0  0  0  0  0  0  0  0
   -4.5578   -1.1645   -3.5426 C   0  0  0  0  0  0  0  0  0  0  0  0
   -5.7499   -1.4340   -4.8094 S   0  0  0  0  0  0  0  0  0  0  0  0
   -5.6829    0.0937   -5.7877 C   0  0  0  0  0  0  0  0  0  0  0  0
   -4.6111   -2.0209   -2.4403 C   0  0  0  0  0  0  0  0  0  0  0  0
   -3.7660   -1.8373   -1.3719 C   0  0  0  0  0  0  0  0  0  0  0  0
   -1.7563   -1.0068    2.1259 C   0  0  0  0  0  0  0  0  0  0  0  0
   -0.0783   -1.3599    2.3364 S   0  0  0  0  0  0  0  0  0  0  0  0
   -0.3528   -1.7231    4.0342 C   0  0  0  0  0  0  0  0  0  0  0  0
   -1.6913   -1.6418    4.3996 C   0  0  0  0  0  0  0  0  0  0  0  0
   -2.2205   -1.9337    5.6422 N   0  0  0  0  0  0  0  0  0  0  0  0
   -1.7534   -3.0169    6.3933 C   0  0  0  0  0  0  0  0  0  0  0  0
   -1.7907   -2.9721    7.7856 C   0  0  0  0  0  0  0  0  0  0  0  0
   -1.3254   -4.0305    8.5417 C   0  0  0  0  0  0  0  0  0  0  0  0
   -0.8048   -5.1561    7.9174 C   0  0  0  0  0  0  0  0  0  0  0  0
   -0.1658   -6.5627    8.7701 S   0  0  0  0  0  0  0  0  0  0  0  0
   -0.4962   -6.2043   10.5191 C   0  0  0  0  0  0  0  0  0  0  0  0
   -0.7664   -5.2056    6.5250 C   0  0  0  0  0  0  0  0  0  0  0  0
   -1.2365   -4.1545    5.7715 C   0  0  0  0  0  0  0  0  0  0  0  0
   -3.3175   -1.1782    6.0907 C   0  0  0  0  0  0  0  0  0  0  0  0
   -3.3365    0.2003    5.9003 C   0  0  0  0  0  0  0  0  0  0  0  0
   -4.4160    0.9561    6.3144 C   0  0  0  0  0  0  0  0  0  0  0  0
   -5.4955    0.3420    6.9340 C   0  0  0  0  0  0  0  0  0  0  0  0
   -6.9238    1.1997    7.5137 S   0  0  0  0  0  0  0  0  0  0  0  0
   -6.7246    2.8761    6.8459 C   0  0  0  0  0  0  0  0  0  0  0  0
   -5.4747   -1.0375    7.1367 C   0  0  0  0  0  0  0  0  0  0  0  0
   -4.4026   -1.7911    6.7173 C   0  0  0  0  0  0  0  0  0  0  0  0
   -2.4729   -1.2131    3.2979 C   0  0  0  0  0  0  0  0  0  0  0  0
   -4.1612   -0.9412    3.0688 S   0  0  0  0  0  0  0  0  0  0  0  0
    0.8504   -1.9658    4.7533 C   0  0  0  0  0  0  0  0  0  0  0  0
    1.2410   -2.0992    6.0751 C   0  0  0  0  0  0  0  0  0  0  0  0
    2.6422   -2.1683    6.0706 C   0  0  0  0  0  0  0  0  0  0  0  0
    3.0409   -2.0702    4.7505 C   0  0  0  0  0  0  0  0  0  0  0  0
    1.9471   -1.9591    3.9669 O   0  0  0  0  0  0  0  0  0  0  0  0
    4.2784   -1.9939    4.0577 C   0  0  0  0  0  0  0  0  0  0  0  0
    5.5796   -1.9352    4.5240 C   0  0  0  0  0  0  0  0  0  0  0  0
    6.4918   -1.7576    3.4921 C   0  0  0  0  0  0  0  0  0  0  0  0
    8.2379   -1.6167    3.7575 S   0  0  0  0  0  0  0  0  0  0  0  0
    8.3978    0.2095    3.8473 C   0  0  0  0  0  0  0  0  0  0  0  0
    7.6879    0.7920    5.0509 C   0  0  0  0  0  0  0  0  0  0  0  0
    5.9104   -1.7164    2.2168 C   0  0  0  0  0  0  0  0  0  0  0  0
    4.1858   -1.9093    2.3294 S   0  0  0  0  0  0  0  0  0  0  0  0
    6.6167   -1.4439    1.0360 C   0  0  0  0  0  0  0  0  0  0  0  0
    6.1654   -1.4549   -0.2565 C   0  0  0  0  0  0  0  0  0  0  0  0
    4.9104   -2.0598   -0.7302 C   0  0  0  0  0  0  0  0  0  0  0  0
    3.9652   -2.4503   -0.0705 O   0  0  0  0  0  0  0  0  0  0  0  0
    5.0468   -2.1687   -2.1956 C   0  0  0  0  0  0  0  0  0  0  0  0
    4.1511   -2.7698   -3.0781 C   0  0  0  0  0  0  0  0  0  0  0  0
    4.5364   -2.7065   -4.3965 C   0  0  0  0  0  0  0  0  0  0  0  0
    5.7296   -2.0974   -4.8081 C   0  0  0  0  0  0  0  0  0  0  0  0
    6.6249   -1.5070   -3.9476 C   0  0  0  0  0  0  0  0  0  0  0  0
    6.2489   -1.5565   -2.6021 C   0  0  0  0  0  0  0  0  0  0  0  0
    6.9240   -1.0387   -1.4152 C   0  0  0  0  0  0  0  0  0  0  0  0
    8.0069   -0.1977   -1.4080 C   0  0  0  0  0  0  0  0  0  0  0  0
    8.5270    0.4131   -0.2485 C   0  0  0  0  0  0  0  0  0  0  0  0
    8.9741    0.9766    0.6471 N   0  0  0  0  0  0  0  0  0  0  0  0
    8.6893    0.2296   -2.5642 C   0  0  0  0  0  0  0  0  0  0  0  0
    9.2833    0.6105   -3.4704 N   0  0  0  0  0  0  0  0  0  0  0  0
    5.4851   -2.4170   -6.2622 C   0  0  0  0  0  0  0  0  0  0  0  0
    6.2842   -3.5978   -6.8522 C   0  0  0  0  0  0  0  0  0  0  0  0
    5.5091   -3.9744   -8.0944 C   0  0  0  0  0  0  0  0  0  0  0  0
    4.3785   -4.5497   -7.7055 C   0  0  0  0  0  0  0  0  0  0  0  0
    4.3705   -4.5720   -6.1938 C   0  0  0  0  0  0  0  0  0  0  0  0
    5.8706   -4.7480   -5.9248 C   0  0  0  0  0  0  0  0  0  0  0  0
    4.1536   -3.0947   -5.8037 C   0  0  0  0  0  0  0  0  0  0  0  0
   -5.9626   -0.3758    1.0505 H   0  0  0  0  0  0  0  0  0  0  0  0
   -2.7865    3.9457   -2.1483 H   0  0  0  0  0  0  0  0  0  0  0  0
   -7.3973    2.4040   -3.5655 H   0  0  0  0  0  0  0  0  0  0  0  0
   -6.0173    4.4218   -5.9809 H   0  0  0  0  0  0  0  0  0  0  0  0
   -7.8272    5.8122   -4.6083 H   0  0  0  0  0  0  0  0  0  0  0  0
   -6.8890    7.3397   -6.5289 H   0  0  0  0  0  0  0  0  0  0  0  0
   -4.4691    8.1729   -5.8158 H   0  0  0  0  0  0  0  0  0  0  0  0
   -3.9183    7.1595   -3.4552 H   0  0  0  0  0  0  0  0  0  0  0  0
   -6.1065    5.8933   -2.5460 H   0  0  0  0  0  0  0  0  0  0  0  0
   -6.5123    7.5369   -3.0905 H   0  0  0  0  0  0  0  0  0  0  0  0
   -3.6452    5.2389   -5.2821 H   0  0  0  0  0  0  0  0  0  0  0  0
   -0.4480   -1.6604   -2.0565 H   0  0  0  0  0  0  0  0  0  0  0  0
    1.9064   -1.1176   -2.4709 H   0  0  0  0  0  0  0  0  0  0  0  0
    3.7161   -0.0501   -3.4707 H   0  0  0  0  0  0  0  0  0  0  0  0
    2.9412    1.5573   -3.3487 H   0  0  0  0  0  0  0  0  0  0  0  0
    4.7115    1.4028   -3.2505 H   0  0  0  0  0  0  0  0  0  0  0  0
    1.7903    1.8003    0.6440 H   0  0  0  0  0  0  0  0  0  0  0  0
   -0.6037    1.3013    1.0165 H   0  0  0  0  0  0  0  0  0  0  0  0
   -1.9948    0.7945   -2.5423 H   0  0  0  0  0  0  0  0  0  0  0  0
   -3.4987    0.4814   -4.4383 H   0  0  0  0  0  0  0  0  0  0  0  0
   -4.7791    0.1198   -6.3897 H   0  0  0  0  0  0  0  0  0  0  0  0
   -6.5556    0.0618   -6.4322 H   0  0  0  0  0  0  0  0  0  0  0  0
   -5.7439    0.9533   -5.1261 H   0  0  0  0  0  0  0  0  0  0  0  0
   -5.3369   -2.8191   -2.4298 H   0  0  0  0  0  0  0  0  0  0  0  0
   -3.8295   -2.4960   -0.5195 H   0  0  0  0  0  0  0  0  0  0  0  0
   -2.1827   -2.0958    8.2807 H   0  0  0  0  0  0  0  0  0  0  0  0
   -1.3676   -3.9571    9.6164 H   0  0  0  0  0  0  0  0  0  0  0  0
   -0.1614   -7.0817   11.0635 H   0  0  0  0  0  0  0  0  0  0  0  0
   -1.5615   -6.0593   10.6727 H   0  0  0  0  0  0  0  0  0  0  0  0
    0.0725   -5.3355   10.8378 H   0  0  0  0  0  0  0  0  0  0  0  0
   -0.3690   -6.0855    6.0432 H   0  0  0  0  0  0  0  0  0  0  0  0
   -1.2151   -4.2155    4.6946 H   0  0  0  0  0  0  0  0  0  0  0  0
   -2.4954    0.6849    5.4263 H   0  0  0  0  0  0  0  0  0  0  0  0
   -4.3961    2.0217    6.1533 H   0  0  0  0  0  0  0  0  0  0  0  0
   -7.6458    3.3976    7.0867 H   0  0  0  0  0  0  0  0  0  0  0  0
   -5.8858    3.3748    7.3231 H   0  0  0  0  0  0  0  0  0  0  0  0
   -6.5970    2.8283    5.7686 H   0  0  0  0  0  0  0  0  0  0  0  0
   -6.3185   -1.5090    7.6161 H   0  0  0  0  0  0  0  0  0  0  0  0
   -4.4016   -2.8608    6.8615 H   0  0  0  0  0  0  0  0  0  0  0  0
    0.6052   -2.1325    6.9345 H   0  0  0  0  0  0  0  0  0  0  0  0
    3.2812   -2.2711    6.9234 H   0  0  0  0  0  0  0  0  0  0  0  0
    5.8564   -2.0020    5.5602 H   0  0  0  0  0  0  0  0  0  0  0  0
    9.4732    0.3706    3.9033 H   0  0  0  0  0  0  0  0  0  0  0  0
    8.0264    0.6257    2.9116 H   0  0  0  0  0  0  0  0  0  0  0  0
    8.0580    0.3388    5.9681 H   0  0  0  0  0  0  0  0  0  0  0  0
    6.6143    0.6228    4.9864 H   0  0  0  0  0  0  0  0  0  0  0  0
    7.8664    1.8645    5.0950 H   0  0  0  0  0  0  0  0  0  0  0  0
    7.6647   -1.2142    1.1965 H   0  0  0  0  0  0  0  0  0  0  0  0
    3.2468   -3.2362   -2.7175 H   0  0  0  0  0  0  0  0  0  0  0  0
    7.5438   -1.0509   -4.2764 H   0  0  0  0  0  0  0  0  0  0  0  0
    5.4306   -1.5621   -6.9338 H   0  0  0  0  0  0  0  0  0  0  0  0
    7.3472   -3.4108   -6.9763 H   0  0  0  0  0  0  0  0  0  0  0  0
    5.8274   -3.7418   -9.0936 H   0  0  0  0  0  0  0  0  0  0  0  0
    3.5632   -4.8937   -8.3147 H   0  0  0  0  0  0  0  0  0  0  0  0
    3.6902   -5.2737   -5.7185 H   0  0  0  0  0  0  0  0  0  0  0  0
    6.2406   -5.7107   -6.2732 H   0  0  0  0  0  0  0  0  0  0  0  0
    6.1554   -4.6040   -4.8841 H   0  0  0  0  0  0  0  0  0  0  0  0
    3.2110   -2.6918   -6.1713 H   0  0  0  0  0  0  0  0  0  0  0  0
  1  2  2  0  0  0  0
  2  3  1  0  0  0  0
  3  4  2  0  0  0  0
  3  5  1  0  0  0  0
  5  6  2  0  0  0  0
  6  7  1  0  0  0  0
  7  8  2  0  0  0  0
  8  9  1  0  0  0  0
  9 10  2  0  0  0  0
 10 11  1  0  0  0  0
 11 12  2  0  0  0  0
 12 13  1  0  0  0  0
 13 14  3  0  0  0  0
 12 15  1  0  0  0  0
 15 16  3  0  0  0  0
  8 17  1  0  0  0  0
 17 18  1  0  0  0  0
 18 19  1  0  0  0  0
 19 20  2  0  0  0  0
 20 21  1  0  0  0  0
 21 22  1  0  0  0  0
 21 23  1  0  0  0  0
  1 24  1  0  0  0  0
 24 25  2  0  0  0  0
 25 26  1  0  0  0  0
 26 27  1  0  0  0  0
 27 28  2  0  0  0  0
 28 29  1  0  0  0  0
 29 30  2  0  0  0  0
 30 31  1  0  0  0  0
 31 32  1  0  0  0  0
 30 33  1  0  0  0  0
 33 34  2  0  0  0  0
 26 35  1  0  0  0  0
 35 36  2  0  0  0  0
 36 37  1  0  0  0  0
 37 38  2  0  0  0  0
 38 39  1  0  0  0  0
 39 40  1  0  0  0  0
 38 41  1  0  0  0  0
 41 42  2  0  0  0  0
 25 43  1  0  0  0  0
 43 44  1  0  0  0  0
 44 45  1  0  0  0  0
 45 46  2  0  0  0  0
 46 47  1  0  0  0  0
 47 48  1  0  0  0  0
 48 49  2  0  0  0  0
 49 50  1  0  0  0  0
 50 51  2  0  0  0  0
 51 52  1  0  0  0  0
 52 53  1  0  0  0  0
 51 54  1  0  0  0  0
 54 55  2  0  0  0  0
 47 56  1  0  0  0  0
 56 57  2  0  0  0  0
 57 58  1  0  0  0  0
 58 59  2  0  0  0  0
 59 60  1  0  0  0  0
 60 61  1  0  0  0  0
 59 62  1  0  0  0  0
 62 63  2  0  0  0  0
 46 64  1  0  0  0  0
 64 65  1  0  0  0  0
 45 66  1  0  0  0  0
 66 67  2  0  0  0  0
 67 68  1  0  0  0  0
 68 69  2  0  0  0  0
 69 70  1  0  0  0  0
 69 71  1  0  0  0  0
 71 72  2  0  0  0  0
 72 73  1  0  0  0  0
 73 74  1  0  0  0  0
 74 75  1  0  0  0  0
 75 76  1  0  0  0  0
 73 77  2  0  0  0  0
 77 78  1  0  0  0  0
 77 79  1  0  0  0  0
 79 80  2  0  0  0  0
 80 81  1  0  0  0  0
 81 82  2  0  0  0  0
 81 83  1  0  0  0  0
 83 84  2  0  0  0  0
 84 85  1  0  0  0  0
 85 86  2  0  0  0  0
 86 87  1  0  0  0  0
 87 88  2  0  0  0  0
 88 89  1  0  0  0  0
 89 90  2  0  0  0  0
 90 91  1  0  0  0  0
 91 92  3  0  0  0  0
 90 93  1  0  0  0  0
 93 94  3  0  0  0  0
 86 95  1  0  0  0  0
 95 96  1  0  0  0  0
 96 97  1  0  0  0  0
 97 98  2  0  0  0  0
 98 99  1  0  0  0  0
 99100  1  0  0  0  0
 99101  1  0  0  0  0
 11  2  1  0  0  0  0
 23 17  1  0  0  0  0
 65 24  1  0  0  0  0
 70 66  1  0  0  0  0
 78 71  1  0  0  0  0
 89 80  1  0  0  0  0
101 95  1  0  0  0  0
 10  5  1  0  0  0  0
 22 18  1  0  0  0  0
 34 27  1  0  0  0  0
 42 35  1  0  0  0  0
 64 43  2  0  0  0  0
 88 83  1  0  0  0  0
100 96  1  0  0  0  0
 23  7  1  0  0  0  0
 55 48  1  0  0  0  0
 63 56  1  0  0  0  0
101 85  1  0  0  0  0
  1102  1  0  0  0  0
  6103  1  0  0  0  0
  9104  1  0  0  0  0
 17105  1  0  0  0  0
 18106  1  0  0  0  0
 19107  1  0  0  0  0
 20108  1  0  0  0  0
 21109  1  0  0  0  0
 22110  1  0  0  0  0
 22111  1  0  0  0  0
 23112  1  0  0  0  0
 28113  1  0  0  0  0
 29114  1  0  0  0  0
 32115  1  0  0  0  0
 32116  1  0  0  0  0
 32117  1  0  0  0  0
 33118  1  0  0  0  0
 34119  1  0  0  0  0
 36120  1  0  0  0  0
 37121  1  0  0  0  0
 40122  1  0  0  0  0
 40123  1  0  0  0  0
 40124  1  0  0  0  0
 41125  1  0  0  0  0
 42126  1  0  0  0  0
 49127  1  0  0  0  0
 50128  1  0  0  0  0
 53129  1  0  0  0  0
 53130  1  0  0  0  0
 53131  1  0  0  0  0
 54132  1  0  0  0  0
 55133  1  0  0  0  0
 57134  1  0  0  0  0
 58135  1  0  0  0  0
 61136  1  0  0  0  0
 61137  1  0  0  0  0
 61138  1  0  0  0  0
 62139  1  0  0  0  0
 63140  1  0  0  0  0
 67141  1  0  0  0  0
 68142  1  0  0  0  0
 72143  1  0  0  0  0
 75144  1  0  0  0  0
 75145  1  0  0  0  0
 76146  1  0  0  0  0
 76147  1  0  0  0  0
 76148  1  0  0  0  0
 79149  1  0  0  0  0
 84150  1  0  0  0  0
 87151  1  0  0  0  0
 95152  1  0  0  0  0
 96153  1  0  0  0  0
 97154  1  0  0  0  0
 98155  1  0  0  0  0
 99156  1  0  0  0  0
100157  1  0  0  0  0
100158  1  0  0  0  0
101159  1  0  0  0  0
M  END
