228

C          2.88210       -6.39080        5.00310
C          2.66460       -7.74960        5.06280
C          1.38430       -8.37110        5.43180
O          0.34300       -7.80580        5.71490
C          1.65460       -9.82340        5.51980
C          0.74310      -10.83270        5.81630
C          1.27760      -12.09960        5.78540
C          2.62550      -12.34430        5.49730
C          3.53940      -11.35600        5.21360
C          3.01080      -10.06280        5.22610
C          3.65000       -8.78620        4.91460
C          4.90860       -8.62360        4.38990
C          5.82820       -9.66990        4.18610
N          6.61940      -10.48300        4.00640
C          5.40970       -7.39290        3.92130
N          5.86080       -6.43100        3.48420
C          2.47060      -13.83850        5.64050
C          2.99200      -14.46500        6.95030
C          2.28930      -15.80190        7.01540
C          1.01090      -15.57270        7.28660
C          0.82810      -14.07700        7.41040
C          2.18910      -13.69280        8.00500
C          0.96530      -13.56650        5.96070
C          1.92480       -5.40520        4.74360
C          0.68490       -5.45860        4.07610
N          0.15820       -6.52680        3.40160
C          0.96530       -7.49670        2.79860
C          0.57430       -8.83440        2.80200
C          1.39590       -9.81260        2.27560
C          2.62770       -9.46950        1.73370
S          3.79790      -10.62790        1.11550
C          3.14640      -12.23230        1.65890
C          2.99020       -8.12220        1.66300
C          2.17320       -7.14970        2.18760
C         -1.23870       -6.61610        3.25540
C         -1.79650       -6.96060        2.02500
C         -3.16370       -7.03860        1.88760
C         -4.00100       -6.77460        2.97150
S         -5.73220       -6.90500        2.66770
C         -6.49400       -6.45590        4.25290
C         -3.44500       -6.44250        4.20040
C         -2.07340       -6.36510        4.33920
C          0.08620       -4.17640        4.03640
S         -1.34230       -3.55540        3.27630
C         -0.86620       -1.91670        3.68180
C          0.35560       -1.85760        4.33860
N          1.05900       -0.69960        4.63180
C          1.81280       -0.65560        5.81280
C          1.32960       -1.25890        6.97040
C          2.07020       -1.24780        8.13660
C          3.30820       -0.62180        8.16610
S          4.34290       -0.53200        9.59240
C          3.49570       -1.57490       10.81340
C          3.79050       -0.00630        7.01130
C          3.05730       -0.02560        5.84740
C          1.09830        0.35420        3.70890
C          1.12450        1.67770        4.14160
C          1.09380        2.72080        3.23590
C          1.00950        2.45780        1.87630
S          0.87450        3.69950        0.63040
C          1.19100        5.25890        1.49820
C          1.01320        1.13590        1.43530
C          1.07520        0.09840        2.33610
C          0.86490       -3.15880        4.56610
S          2.35350       -3.74870        5.20390
C         -1.58730       -0.79160        3.17200
C         -1.74330        0.43050        3.75400
C         -2.17710        1.43640        2.85430
C         -2.30110        2.81830        3.10190
C         -2.24830        3.33320        4.45790
S         -3.16320        2.56010        5.72290
C         -2.67120        3.70940        6.91820
C         -3.16350        3.65490        8.32250
C         -4.63300        4.07180        8.40900
C         -1.84850        4.63510        6.35190
F         -1.29340        5.64450        7.03800
C         -1.61240        4.42950        4.97170
F         -0.77790        5.21440        4.27530
C         -2.47740        3.63850        1.99060
C         -2.63810        3.11490        0.68320
C         -2.65750        1.72630        0.45770
C         -2.95260        1.19880       -0.85880
S         -2.08300       -0.12480       -1.57380
C         -3.03570       -0.09700       -3.02050
C         -2.83870       -1.05810       -4.14150
C         -2.80500       -2.50390       -3.64990
C         -3.97160        0.88870       -2.93200
C         -3.92800        1.62040       -1.72230
F         -4.81440        2.58150       -1.43510
F         -4.86370        1.14100       -3.90040
C         -2.36140        0.92190        1.54850
S         -2.10010       -0.79550        1.49430
C         -2.67080        4.13150       -0.29440
C         -2.55600        5.38950        0.21590
S         -2.49350        5.37870        1.96500
C         -2.39080        6.59370       -0.56110
C         -2.81720        7.84570       -0.15640
F         -3.41220        7.99910        1.03690
C         -2.70050        8.96990       -0.98530
F         -3.20270       10.13220       -0.54570
C         -2.14650        8.90860       -2.25130
C         -1.58790        7.66020       -2.65510
N         -0.83460        7.57960       -3.76060
C         -0.34640        6.42270       -4.14580
C          0.58070        6.41630       -5.27830
C          1.67430        5.55690       -5.33360
C          2.52270        5.54980       -6.42470
C          2.30670        6.39530       -7.51190
O          3.02860        6.44540       -8.64980
C          4.18070        5.63560       -8.79640
C          5.38710        6.19660       -8.05080
C          1.21780        7.27640       -7.42250
C          0.38130        7.30470       -6.33430
F          0.98180        8.12130       -8.44920
C         -0.68180        5.23530       -3.41970
N         -1.29680        5.33510       -2.26830
C         -1.74600        6.51570       -1.83210
C         -0.36960        3.86640       -3.83720
C          0.00240        2.94420       -2.86410
C          0.29780        1.63590       -3.19270
C          0.18940        1.19220       -4.50740
O          0.43170       -0.06580       -4.93580
C          0.90700       -1.02750       -4.00800
C          1.07350       -2.34030       -4.75550
C         -0.22070        2.12780       -5.47010
F         -0.35120        1.72060       -6.74960
C         -0.48850        3.44050       -5.15990
C         -2.04640       10.07080       -3.10100
C         -2.21140       10.01410       -4.43990
C         -2.80250        8.85190       -5.16940
O         -3.42650        7.92800       -4.69590
C         -2.54730        9.11430       -6.59550
C         -2.77330        8.24250       -7.66100
C         -2.33880        8.71620       -8.87440
C         -1.72800        9.97060       -9.02390
C         -1.52420       10.85130       -7.99010
C         -1.96180       10.39070       -6.74370
C         -1.86430       11.02220       -5.43340
C         -1.50870       12.31980       -5.19330
C         -1.22350       13.26580       -6.20230
N         -0.99270       14.08870       -6.96810
C         -1.41140       12.91180       -3.91510
N         -1.30120       13.46240       -2.91410
C         -1.50380        9.77320      -10.50070
C         -2.44750       10.51020      -11.48160
C         -3.74480       10.72650      -10.74230
C         -4.33110        9.54530      -10.59950
C         -3.44160        8.50860      -11.24030
C         -2.84560        9.33620      -12.39030
C         -2.19100        8.38130      -10.33590
H          3.88540       -6.02360        5.18370
H         -0.28900      -10.60310        6.03150
H          4.57600      -11.55640        4.99780
H          2.71720      -14.42990        4.75980
H          4.07380      -14.47460        7.05090
H          2.76750      -16.74150        6.80930
H          0.20750      -16.28290        7.35220
H         -0.06160      -13.73450        7.93200
H          2.38280      -12.62180        8.01370
H          2.32990      -14.09670        9.00610
H          0.20940      -13.97590        5.29230
H         -0.37440       -9.10870        3.23790
H          1.07110      -10.83970        2.31250
H          2.24510      -12.48080        1.10600
H          2.96320      -12.20690        2.72930
H          3.92750      -12.95150        1.43340
H          3.92970       -7.85400        1.20470
H          2.47380       -6.11440        2.13550
H         -1.15230       -7.15860        1.18110
H         -3.60330       -7.29850        0.93700
H         -6.20630       -5.44580        4.52910
H         -6.21230       -7.17300        5.01840
H         -7.56540       -6.50090        4.08400
H         -4.06580       -6.25110        5.06020
H         -1.63500       -6.14070        5.29890
H          0.36170       -1.73920        6.95860
H          1.66440       -1.72560        9.01340
H          4.15060       -1.60050       11.67880
H          2.54240       -1.13250       11.08800
H          3.36840       -2.57770       10.41650
H          4.75560        0.47550        7.03920
H          3.44710        0.43660        4.95340
H          1.15900        1.89200        5.19980
H          1.11800        3.73320        3.60240
H          0.40490        5.45960        2.21790
H          2.16570        5.21920        1.97520
H          1.18590        6.02340        0.72700
H          0.96850        0.93560        0.37570
H          1.09370       -0.92070        1.97990
H         -1.50730        0.61280        4.78590
H         -2.55240        4.32750        8.92770
H         -3.05240        2.63950        8.70950
H         -4.97080        4.03290        9.44090
H         -4.76120        5.08630        8.03970
H         -5.25040        3.40380        7.81270
H         -3.66030       -0.92090       -4.84800
H         -1.90950       -0.82890       -4.66890
H         -2.66550       -3.18040       -4.48880
H         -1.99050       -2.64790       -2.94330
H         -3.73810       -2.75780       -3.15280
H         -2.73510        3.94450       -1.34700
H          1.88340        4.89620       -4.50660
H          3.35640        4.86680       -6.42260
H          4.37450        5.64120       -9.87220
H          3.96850        4.60520       -8.48790
H          5.58970        7.20920       -8.38990
H          6.25770        5.57770       -8.24860
H          5.20910        6.22330       -6.97850
H         -0.43890        8.00050       -6.30890
H          0.07630        3.26830       -1.83900
H          0.60730        0.95940       -2.41380
H          0.18950       -1.14450       -3.18460
H          1.86860       -0.69790       -3.59260
H          1.78340       -2.21840       -5.56860
H          0.12150       -2.65500       -5.17350
H          1.43550       -3.10640       -4.07640
H         -0.80620        4.11230       -5.94130
H         -1.77960       10.99850       -2.61190
H         -3.22560        7.27650       -7.49740
H         -1.04670       11.80830       -8.11890
H         -0.46450        9.78860      -10.82010
H         -2.01290       11.38610      -11.95540
H         -4.06450       11.67830      -10.36020
H         -5.23890        9.31290      -10.07390
H         -3.91280        7.56300      -11.49550
H         -1.99670        8.85610      -12.87500
H         -3.58770        9.61450      -13.13720
H         -1.60140        7.49480      -10.55940
