
  xtb     02052206583D
 energy: -269.201741828661 gnorm: 0.000433825935 xtb: 6.4.1 (unknown)
157172  0     0  0            999 V2000
    4.8317   -2.2643   -3.6315 C   0  0  0  0  0  0  0  0  0  0  0  0
    4.5017   -2.3525   -4.9402 C   0  0  0  0  0  0  0  0  0  0  0  0
    3.1119   -2.1862   -5.4614 C   0  0  0  0  0  0  0  0  0  0  0  0
    2.1171   -1.8654   -4.8487 O   0  0  0  0  0  0  0  0  0  0  0  0
    3.1629   -2.6222   -6.8672 C   0  0  0  0  0  0  0  0  0  0  0  0
    2.0911   -2.6786   -7.7578 C   0  0  0  0  0  0  0  0  0  0  0  0
    2.4184   -3.1681   -8.9985 C   0  0  0  0  0  0  0  0  0  0  0  0
    3.7167   -3.5818   -9.3309 C   0  0  0  0  0  0  0  0  0  0  0  0
    4.7825   -3.5307   -8.4654 C   0  0  0  0  0  0  0  0  0  0  0  0
    4.4726   -3.0273   -7.1967 C   0  0  0  0  0  0  0  0  0  0  0  0
    5.3336   -2.8144   -6.0399 C   0  0  0  0  0  0  0  0  0  0  0  0
    6.6970   -2.9217   -6.0221 C   0  0  0  0  0  0  0  0  0  0  0  0
    7.4809   -3.3449   -7.1165 C   0  0  0  0  0  0  0  0  0  0  0  0
    8.1768   -3.6833   -7.9644 N   0  0  0  0  0  0  0  0  0  0  0  0
    7.5162   -2.5633   -4.9298 C   0  0  0  0  0  0  0  0  0  0  0  0
    8.2590   -2.2519   -4.1124 N   0  0  0  0  0  0  0  0  0  0  0  0
    3.3164   -3.9854  -10.7277 C   0  0  0  0  0  0  0  0  0  0  0  0
    3.1357   -5.4972  -10.9818 C   0  0  0  0  0  0  0  0  0  0  0  0
    2.3003   -5.5547  -12.2405 C   0  0  0  0  0  0  0  0  0  0  0  0
    1.0724   -5.1602  -11.9282 C   0  0  0  0  0  0  0  0  0  0  0  0
    1.0571   -4.8298  -10.4531 C   0  0  0  0  0  0  0  0  0  0  0  0
    2.0693   -5.8628   -9.9411 C   0  0  0  0  0  0  0  0  0  0  0  0
    1.8707   -3.5212  -10.3588 C   0  0  0  0  0  0  0  0  0  0  0  0
    3.9600   -1.6490   -2.6572 C   0  0  0  0  0  0  0  0  0  0  0  0
    3.6955   -2.2222   -1.4280 C   0  0  0  0  0  0  0  0  0  0  0  0
    4.2502   -3.4041   -1.1201 F   0  0  0  0  0  0  0  0  0  0  0  0
    2.8100   -1.6431   -0.5135 C   0  0  0  0  0  0  0  0  0  0  0  0
    2.5529   -2.3007    0.6310 F   0  0  0  0  0  0  0  0  0  0  0  0
    2.1733   -0.4421   -0.7698 C   0  0  0  0  0  0  0  0  0  0  0  0
    2.4523    0.1899   -2.0135 C   0  0  0  0  0  0  0  0  0  0  0  0
    1.9206    1.3958   -2.2638 N   0  0  0  0  0  0  0  0  0  0  0  0
    2.2201    2.0114   -3.3804 C   0  0  0  0  0  0  0  0  0  0  0  0
    1.6445    3.3864   -3.5382 C   0  0  0  0  0  0  0  0  0  0  0  0
    2.6179    4.4305   -2.9841 C   0  0  0  0  0  0  0  0  0  0  0  0
    3.1243    1.4267   -4.3090 C   0  0  0  0  0  0  0  0  0  0  0  0
    3.6810    0.2672   -4.0582 N   0  0  0  0  0  0  0  0  0  0  0  0
    3.3497   -0.3936   -2.9373 C   0  0  0  0  0  0  0  0  0  0  0  0
    3.4758    2.0482   -5.6264 C   0  0  0  0  0  0  0  0  0  0  0  0
    2.4459    1.6258   -6.6781 C   0  0  0  0  0  0  0  0  0  0  0  0
    1.3109    0.1979    0.1944 C   0  0  0  0  0  0  0  0  0  0  0  0
    1.5894    0.4545    1.5279 C   0  0  0  0  0  0  0  0  0  0  0  0
    2.7859    0.1953    2.1647 N   0  0  0  0  0  0  0  0  0  0  0  0
    3.9837    0.1704    1.4355 C   0  0  0  0  0  0  0  0  0  0  0  0
    4.2201    1.1092    0.4339 C   0  0  0  0  0  0  0  0  0  0  0  0
    5.3102    0.9855   -0.4042 C   0  0  0  0  0  0  0  0  0  0  0  0
    6.1927   -0.0759   -0.2438 C   0  0  0  0  0  0  0  0  0  0  0  0
    7.5462   -0.4066   -1.3232 S   0  0  0  0  0  0  0  0  0  0  0  0
    7.2038    0.6228   -2.7768 C   0  0  0  0  0  0  0  0  0  0  0  0
    6.0134   -0.9562    0.8228 C   0  0  0  0  0  0  0  0  0  0  0  0
    4.9233   -0.8367    1.6552 C   0  0  0  0  0  0  0  0  0  0  0  0
    2.7774   -0.0830    3.5385 C   0  0  0  0  0  0  0  0  0  0  0  0
    3.7642    0.4372    4.3691 C   0  0  0  0  0  0  0  0  0  0  0  0
    3.7154    0.2281    5.7338 C   0  0  0  0  0  0  0  0  0  0  0  0
    2.6722   -0.5012    6.2886 C   0  0  0  0  0  0  0  0  0  0  0  0
    2.4672   -0.7843    8.0188 S   0  0  0  0  0  0  0  0  0  0  0  0
    3.7905    0.1960    8.7832 C   0  0  0  0  0  0  0  0  0  0  0  0
    1.7084   -1.0635    5.4546 C   0  0  0  0  0  0  0  0  0  0  0  0
    1.7630   -0.8641    4.0943 C   0  0  0  0  0  0  0  0  0  0  0  0
    0.4987    1.1167    2.1458 C   0  0  0  0  0  0  0  0  0  0  0  0
    0.1911    1.6530    3.7571 S   0  0  0  0  0  0  0  0  0  0  0  0
   -1.3898    2.2329    3.2768 C   0  0  0  0  0  0  0  0  0  0  0  0
   -1.6869    1.9535    1.9442 C   0  0  0  0  0  0  0  0  0  0  0  0
   -2.9360    2.0931    1.3650 N   0  0  0  0  0  0  0  0  0  0  0  0
   -3.0506    2.3034   -0.0124 C   0  0  0  0  0  0  0  0  0  0  0  0
   -4.0762    1.6931   -0.7366 C   0  0  0  0  0  0  0  0  0  0  0  0
   -4.1731    1.8809   -2.0965 C   0  0  0  0  0  0  0  0  0  0  0  0
   -3.2484    2.6781   -2.7654 C   0  0  0  0  0  0  0  0  0  0  0  0
   -3.4394    2.8517   -4.5150 S   0  0  0  0  0  0  0  0  0  0  0  0
   -1.7272    3.1199   -5.0668 C   0  0  0  0  0  0  0  0  0  0  0  0
   -2.2474    3.3151   -2.0460 C   0  0  0  0  0  0  0  0  0  0  0  0
   -2.1482    3.1283   -0.6814 C   0  0  0  0  0  0  0  0  0  0  0  0
   -4.0920    1.8876    2.1393 C   0  0  0  0  0  0  0  0  0  0  0  0
   -4.1261    0.9093    3.1288 C   0  0  0  0  0  0  0  0  0  0  0  0
   -5.2166    0.7861    3.9649 C   0  0  0  0  0  0  0  0  0  0  0  0
   -6.3095    1.6291    3.8077 C   0  0  0  0  0  0  0  0  0  0  0  0
   -7.7272    1.6031    4.8523 S   0  0  0  0  0  0  0  0  0  0  0  0
   -7.5184    0.0819    5.8173 C   0  0  0  0  0  0  0  0  0  0  0  0
   -6.3048    2.5718    2.7817 C   0  0  0  0  0  0  0  0  0  0  0  0
   -5.2081    2.7050    1.9600 C   0  0  0  0  0  0  0  0  0  0  0  0
   -0.5762    1.3506    1.3004 C   0  0  0  0  0  0  0  0  0  0  0  0
   -0.2414    0.8260   -0.3151 S   0  0  0  0  0  0  0  0  0  0  0  0
   -2.2262    2.8281    4.2761 C   0  0  0  0  0  0  0  0  0  0  0  0
   -3.1794    3.8055    4.0141 C   0  0  0  0  0  0  0  0  0  0  0  0
   -4.0852    4.2342    4.9773 C   0  0  0  0  0  0  0  0  0  0  0  0
   -4.1257    3.7083    6.2636 C   0  0  0  0  0  0  0  0  0  0  0  0
   -3.0723    2.8258    6.6136 C   0  0  0  0  0  0  0  0  0  0  0  0
   -2.7824    2.3377    7.8172 N   0  0  0  0  0  0  0  0  0  0  0  0
   -1.4782    1.4039    7.7039 S   0  0  0  0  0  0  0  0  0  0  0  0
   -1.1999    1.5871    6.1319 N   0  0  0  0  0  0  0  0  0  0  0  0
   -2.1225    2.4003    5.6241 C   0  0  0  0  0  0  0  0  0  0  0  0
   -5.1400    4.1051    7.1944 C   0  0  0  0  0  0  0  0  0  0  0  0
   -5.6461    3.3496    8.1970 C   0  0  0  0  0  0  0  0  0  0  0  0
   -6.6632    4.0415    9.4505 S   0  0  0  0  0  0  0  0  0  0  0  0
   -6.7115    2.5221   10.3294 C   0  0  0  0  0  0  0  0  0  0  0  0
   -7.4228    2.3259   11.7844 S   0  0  0  0  0  0  0  0  0  0  0  0
   -6.0767    1.5529    9.6234 N   0  0  0  0  0  0  0  0  0  0  0  0
   -6.0046    0.1849   10.0990 C   0  0  0  0  0  0  0  0  0  0  0  0
   -7.3025   -0.5725    9.8480 C   0  0  0  0  0  0  0  0  0  0  0  0
   -5.5183    1.9079    8.4061 C   0  0  0  0  0  0  0  0  0  0  0  0
   -5.0757    1.0843    7.6319 O   0  0  0  0  0  0  0  0  0  0  0  0
    5.7668   -2.6677   -3.2623 H   0  0  0  0  0  0  0  0  0  0  0  0
    1.1062   -2.3554   -7.4583 H   0  0  0  0  0  0  0  0  0  0  0  0
    5.7731   -3.8580   -8.7334 H   0  0  0  0  0  0  0  0  0  0  0  0
    3.8377   -3.4774  -11.5365 H   0  0  0  0  0  0  0  0  0  0  0  0
    4.0576   -6.0721  -10.9792 H   0  0  0  0  0  0  0  0  0  0  0  0
    2.6893   -5.8155  -13.2071 H   0  0  0  0  0  0  0  0  0  0  0  0
    0.2307   -5.0257  -12.5819 H   0  0  0  0  0  0  0  0  0  0  0  0
    0.0849   -4.7975   -9.9687 H   0  0  0  0  0  0  0  0  0  0  0  0
    2.3814   -5.7060   -8.9102 H   0  0  0  0  0  0  0  0  0  0  0  0
    1.7110   -6.8837  -10.0612 H   0  0  0  0  0  0  0  0  0  0  0  0
    1.4265   -2.7021  -10.9210 H   0  0  0  0  0  0  0  0  0  0  0  0
    0.7224    3.4240   -2.9577 H   0  0  0  0  0  0  0  0  0  0  0  0
    1.4232    3.5996   -4.5839 H   0  0  0  0  0  0  0  0  0  0  0  0
    3.5642    4.4087   -3.5206 H   0  0  0  0  0  0  0  0  0  0  0  0
    2.1919    5.4267   -3.0758 H   0  0  0  0  0  0  0  0  0  0  0  0
    2.8146    4.2323   -1.9333 H   0  0  0  0  0  0  0  0  0  0  0  0
    3.5099    3.1350   -5.5536 H   0  0  0  0  0  0  0  0  0  0  0  0
    4.4593    1.6812   -5.9237 H   0  0  0  0  0  0  0  0  0  0  0  0
    2.7167    2.0278   -7.6513 H   0  0  0  0  0  0  0  0  0  0  0  0
    2.4085    0.5412   -6.7453 H   0  0  0  0  0  0  0  0  0  0  0  0
    1.4528    1.9853   -6.4162 H   0  0  0  0  0  0  0  0  0  0  0  0
    3.5251    1.9239    0.2913 H   0  0  0  0  0  0  0  0  0  0  0  0
    5.4579    1.7166   -1.1834 H   0  0  0  0  0  0  0  0  0  0  0  0
    7.3704    1.6715   -2.5468 H   0  0  0  0  0  0  0  0  0  0  0  0
    6.1895    0.4492   -3.1265 H   0  0  0  0  0  0  0  0  0  0  0  0
    7.9142    0.2898   -3.5273 H   0  0  0  0  0  0  0  0  0  0  0  0
    6.7222   -1.7573    0.9635 H   0  0  0  0  0  0  0  0  0  0  0  0
    4.7622   -1.5488    2.4500 H   0  0  0  0  0  0  0  0  0  0  0  0
    4.5672    1.0203    3.9425 H   0  0  0  0  0  0  0  0  0  0  0  0
    4.4906    0.6521    6.3513 H   0  0  0  0  0  0  0  0  0  0  0  0
    3.6902    1.2383    8.4950 H   0  0  0  0  0  0  0  0  0  0  0  0
    4.7617   -0.2009    8.5023 H   0  0  0  0  0  0  0  0  0  0  0  0
    3.6488    0.0937    9.8546 H   0  0  0  0  0  0  0  0  0  0  0  0
    0.9175   -1.6543    5.8895 H   0  0  0  0  0  0  0  0  0  0  0  0
    1.0231   -1.3131    3.4494 H   0  0  0  0  0  0  0  0  0  0  0  0
   -4.7834    1.0570   -0.2266 H   0  0  0  0  0  0  0  0  0  0  0  0
   -4.9575    1.3994   -2.6595 H   0  0  0  0  0  0  0  0  0  0  0  0
   -1.0801    2.4032   -4.5704 H   0  0  0  0  0  0  0  0  0  0  0  0
   -1.4161    4.1407   -4.8637 H   0  0  0  0  0  0  0  0  0  0  0  0
   -1.7297    2.9455   -6.1384 H   0  0  0  0  0  0  0  0  0  0  0  0
   -1.5488    3.9723   -2.5392 H   0  0  0  0  0  0  0  0  0  0  0  0
   -1.3739    3.6357   -0.1256 H   0  0  0  0  0  0  0  0  0  0  0  0
   -3.2812    0.2498    3.2597 H   0  0  0  0  0  0  0  0  0  0  0  0
   -5.1941    0.0424    4.7435 H   0  0  0  0  0  0  0  0  0  0  0  0
   -6.6368    0.1658    6.4473 H   0  0  0  0  0  0  0  0  0  0  0  0
   -8.4144   -0.0019    6.4251 H   0  0  0  0  0  0  0  0  0  0  0  0
   -7.4457   -0.7685    5.1457 H   0  0  0  0  0  0  0  0  0  0  0  0
   -7.1646    3.2109    2.6522 H   0  0  0  0  0  0  0  0  0  0  0  0
   -5.2023    3.4531    1.1810 H   0  0  0  0  0  0  0  0  0  0  0  0
   -3.2221    4.2432    3.0293 H   0  0  0  0  0  0  0  0  0  0  0  0
   -4.8303    4.9643    4.6970 H   0  0  0  0  0  0  0  0  0  0  0  0
   -5.5197    5.1142    7.0880 H   0  0  0  0  0  0  0  0  0  0  0  0
   -5.7870    0.2132   11.1696 H   0  0  0  0  0  0  0  0  0  0  0  0
   -5.1770   -0.2842    9.5619 H   0  0  0  0  0  0  0  0  0  0  0  0
   -7.2019   -1.5912   10.2110 H   0  0  0  0  0  0  0  0  0  0  0  0
   -7.5278   -0.6003    8.7848 H   0  0  0  0  0  0  0  0  0  0  0  0
   -8.1256   -0.0955   10.3741 H   0  0  0  0  0  0  0  0  0  0  0  0
  1  2  2  0  0  0  0
  2  3  1  0  0  0  0
  3  4  2  0  0  0  0
  3  5  1  0  0  0  0
  5  6  2  0  0  0  0
  6  7  1  0  0  0  0
  7  8  2  0  0  0  0
  8  9  1  0  0  0  0
  9 10  2  0  0  0  0
 10 11  1  0  0  0  0
 11 12  2  0  0  0  0
 12 13  1  0  0  0  0
 13 14  3  0  0  0  0
 12 15  1  0  0  0  0
 15 16  3  0  0  0  0
  8 17  1  0  0  0  0
 17 18  1  0  0  0  0
 18 19  1  0  0  0  0
 19 20  2  0  0  0  0
 20 21  1  0  0  0  0
 21 22  1  0  0  0  0
 21 23  1  0  0  0  0
  1 24  1  0  0  0  0
 24 25  2  0  0  0  0
 25 26  1  0  0  0  0
 25 27  1  0  0  0  0
 27 28  1  0  0  0  0
 27 29  2  0  0  0  0
 29 30  1  0  0  0  0
 30 31  2  0  0  0  0
 31 32  1  0  0  0  0
 32 33  1  0  0  0  0
 33 34  1  0  0  0  0
 32 35  2  0  0  0  0
 35 36  1  0  0  0  0
 36 37  2  0  0  0  0
 35 38  1  0  0  0  0
 38 39  1  0  0  0  0
 29 40  1  0  0  0  0
 40 41  2  0  0  0  0
 41 42  1  0  0  0  0
 42 43  1  0  0  0  0
 43 44  2  0  0  0  0
 44 45  1  0  0  0  0
 45 46  2  0  0  0  0
 46 47  1  0  0  0  0
 47 48  1  0  0  0  0
 46 49  1  0  0  0  0
 49 50  2  0  0  0  0
 42 51  1  0  0  0  0
 51 52  2  0  0  0  0
 52 53  1  0  0  0  0
 53 54  2  0  0  0  0
 54 55  1  0  0  0  0
 55 56  1  0  0  0  0
 54 57  1  0  0  0  0
 57 58  2  0  0  0  0
 41 59  1  0  0  0  0
 59 60  1  0  0  0  0
 60 61  1  0  0  0  0
 61 62  2  0  0  0  0
 62 63  1  0  0  0  0
 63 64  1  0  0  0  0
 64 65  2  0  0  0  0
 65 66  1  0  0  0  0
 66 67  2  0  0  0  0
 67 68  1  0  0  0  0
 68 69  1  0  0  0  0
 67 70  1  0  0  0  0
 70 71  2  0  0  0  0
 63 72  1  0  0  0  0
 72 73  2  0  0  0  0
 73 74  1  0  0  0  0
 74 75  2  0  0  0  0
 75 76  1  0  0  0  0
 76 77  1  0  0  0  0
 75 78  1  0  0  0  0
 78 79  2  0  0  0  0
 62 80  1  0  0  0  0
 80 81  1  0  0  0  0
 61 82  1  0  0  0  0
 82 83  2  0  0  0  0
 83 84  1  0  0  0  0
 84 85  2  0  0  0  0
 85 86  1  0  0  0  0
 86 87  2  0  0  0  0
 87 88  1  0  0  0  0
 88 89  1  0  0  0  0
 89 90  2  0  0  0  0
 85 91  1  0  0  0  0
 91 92  2  0  0  0  0
 92 93  1  0  0  0  0
 93 94  1  0  0  0  0
 94 95  2  0  0  0  0
 94 96  1  0  0  0  0
 96 97  1  0  0  0  0
 97 98  1  0  0  0  0
 96 99  1  0  0  0  0
 99100  2  0  0  0  0
 11  2  1  0  0  0  0
 23 17  1  0  0  0  0
 37 24  1  0  0  0  0
 81 40  1  0  0  0  0
 90 82  1  0  0  0  0
 99 92  1  0  0  0  0
 10  5  1  0  0  0  0
 22 18  1  0  0  0  0
 37 30  1  0  0  0  0
 50 43  1  0  0  0  0
 58 51  1  0  0  0  0
 80 59  2  0  0  0  0
 90 86  1  0  0  0  0
 23  7  1  0  0  0  0
 71 64  1  0  0  0  0
 79 72  1  0  0  0  0
  1101  1  0  0  0  0
  6102  1  0  0  0  0
  9103  1  0  0  0  0
 17104  1  0  0  0  0
 18105  1  0  0  0  0
 19106  1  0  0  0  0
 20107  1  0  0  0  0
 21108  1  0  0  0  0
 22109  1  0  0  0  0
 22110  1  0  0  0  0
 23111  1  0  0  0  0
 33112  1  0  0  0  0
 33113  1  0  0  0  0
 34114  1  0  0  0  0
 34115  1  0  0  0  0
 34116  1  0  0  0  0
 38117  1  0  0  0  0
 38118  1  0  0  0  0
 39119  1  0  0  0  0
 39120  1  0  0  0  0
 39121  1  0  0  0  0
 44122  1  0  0  0  0
 45123  1  0  0  0  0
 48124  1  0  0  0  0
 48125  1  0  0  0  0
 48126  1  0  0  0  0
 49127  1  0  0  0  0
 50128  1  0  0  0  0
 52129  1  0  0  0  0
 53130  1  0  0  0  0
 56131  1  0  0  0  0
 56132  1  0  0  0  0
 56133  1  0  0  0  0
 57134  1  0  0  0  0
 58135  1  0  0  0  0
 65136  1  0  0  0  0
 66137  1  0  0  0  0
 69138  1  0  0  0  0
 69139  1  0  0  0  0
 69140  1  0  0  0  0
 70141  1  0  0  0  0
 71142  1  0  0  0  0
 73143  1  0  0  0  0
 74144  1  0  0  0  0
 77145  1  0  0  0  0
 77146  1  0  0  0  0
 77147  1  0  0  0  0
 78148  1  0  0  0  0
 79149  1  0  0  0  0
 83150  1  0  0  0  0
 84151  1  0  0  0  0
 91152  1  0  0  0  0
 97153  1  0  0  0  0
 97154  1  0  0  0  0
 98155  1  0  0  0  0
 98156  1  0  0  0  0
 98157  1  0  0  0  0
M  END
