179

C          6.43940        0.42400        7.79440
C          6.68560       -0.91120        7.99610
C          6.15900       -2.01320        7.18440
O          5.45180       -1.93640        6.19430
C          6.65360       -3.25610        7.80210
C          6.39640       -4.55960        7.38400
C          6.98540       -5.52350        8.16680
C          7.76860       -5.21300        9.28590
C          8.02960       -3.93100        9.70860
C          7.44420       -2.93360        8.92290
C          7.49250       -1.47730        9.05690
C          8.19310       -0.79700       10.02180
C          8.96930       -1.40780       11.02820
N          9.62270       -1.82610       11.87530
C          8.26010        0.60410       10.16340
N          8.37600        1.73130       10.35740
C          8.03910       -6.66380        9.59960
C          9.42970       -7.20670        9.20890
C          9.23840       -8.70600        9.18210
C          8.49920       -8.99950        8.12000
C          8.17820       -7.70340        7.41120
C          9.46350       -6.91810        7.70250
C          7.16780       -7.00990        8.34960
C          5.66410        1.07120        6.82470
S          4.75520        0.32680        5.52530
C          4.20940        1.86800        5.01260
C          3.32100        2.20590        3.96590
C          2.96240        3.53830        3.80240
Ge         3.97650        4.62120        5.10360
C          2.87850        5.61620        6.45010
C          2.16450        6.81950        5.85590
C          5.36890        5.75320        4.20480
C          6.34300        6.36770        5.19820
C          4.69770        2.92450        5.79330
C          5.51330        2.46460        6.80270
C          2.03540        3.70920        2.77610
C          1.68940        2.52920        2.15200
S          2.54420        1.16970        2.83020
C          0.69490        2.32990        1.14230
C         -0.58080        2.87080        1.11180
N         -1.14510        3.65570        2.10610
C         -0.83950        3.42890        3.45250
C         -0.78080        4.49400        4.34760
C         -0.40970        4.29280        5.66240
C         -0.06950        3.02130        6.10230
S          0.52120        2.67790        7.73390
C         -0.17750        4.04070        8.71780
C         -0.15820        1.94680        5.22190
C         -0.55510        2.14400        3.91880
C         -2.08330        4.63040        1.73820
C         -1.88540        5.40080        0.59150
C         -2.82280        6.33440        0.21130
C         -3.97500        6.52940        0.96990
S         -5.10460        7.75110        0.38010
C         -6.49650        7.66050        1.54200
C         -4.16840        5.77660        2.12070
C         -3.23270        4.83320        2.49630
C         -1.28250        2.44050       -0.04020
S         -2.88410        2.70070       -0.63400
C         -2.58060        1.61740       -1.99340
C         -1.31140        1.04560       -1.94070
N         -0.82090        0.05030       -2.76540
C         -1.66630       -0.93980       -3.28200
C         -1.49230       -1.40460       -4.58500
C         -2.41610       -2.25300       -5.16250
C         -3.53080       -2.65750       -4.44040
S         -4.84790       -3.61560       -5.11670
C         -4.20540       -4.16730       -6.71950
C         -3.66300       -2.26590       -3.10860
C         -2.74110       -1.42190       -2.53290
C          0.54930        0.02820       -3.06330
C          1.23970        1.21270       -3.30180
C          2.59290        1.19730       -3.57990
C          3.27670       -0.00930       -3.63240
S          4.99870       -0.16200       -3.98170
C          5.57700        1.55460       -4.10080
C          2.58450       -1.19920       -3.40750
C          1.23890       -1.18320       -3.12330
C         -0.57890        1.55380       -0.83740
S          0.99380        1.22930       -0.19410
C         -3.64140        1.40920       -2.91620
S         -3.35930        1.00670       -4.58760
C         -5.04500        0.73610       -4.82340
C         -5.69790        0.14800       -5.92050
C         -7.09210       -0.00910       -5.82090
Ge        -7.69970        0.69480       -4.08150
C         -8.48200       -0.72530       -2.89990
C         -7.46950       -1.81270       -2.57650
C         -8.77650        2.37930       -4.25830
C         -8.11210        3.38270       -5.18820
C         -5.79850        1.06190       -3.69680
C         -4.99830        1.45360       -2.63310
C         -7.60330       -0.65620       -6.91730
C         -6.63500       -1.03650       -7.86470
S         -5.03320       -0.55080       -7.33440
C         -6.96350       -1.67340       -9.05760
C         -6.15610       -2.17110      -10.06260
C         -4.70470       -2.29610      -10.00590
O         -3.94930       -1.95590       -9.10730
C         -4.30450       -2.98840      -11.24940
C         -3.04040       -3.35500      -11.65870
C         -2.93340       -4.00600      -12.88070
Br        -1.21610       -4.53880      -13.50020
C         -4.04770       -4.27930      -13.66000
C         -5.31580       -3.90510      -13.23650
C         -5.44910       -3.25410      -12.02010
C         -6.62030       -2.74200      -11.30570
C         -7.90830       -2.78220      -11.78140
C         -8.27610       -3.35570      -13.01530
N         -8.64300       -3.80870      -14.00500
C         -9.04310       -2.25400      -11.13350
N        -10.01690       -1.84520      -10.68000
H          6.89850        1.11360        8.49250
H          5.78050       -4.75230        6.51950
H          8.63030       -3.71220       10.57530
H          7.70680       -7.00750       10.57730
H         10.25140       -6.82840        9.81080
H          9.60100       -9.37080        9.94400
H          8.12090       -9.95840        7.81750
H          7.86050       -7.77820        6.37460
H         10.33360       -7.35850        7.21840
H          9.40380       -5.86060        7.45200
H          6.25590       -7.58670        8.49370
H          2.16420        4.90980        6.86680
H          3.53820        5.92860        7.25970
H          2.88210        7.53490        5.45920
H          1.56580        7.32680        6.61170
H          1.50840        6.51030        5.04500
H          5.90410        5.12420        3.49380
H          4.86750        6.53470        3.63390
H          7.09470        6.96100        4.68070
H          5.82200        7.01550        5.90040
H          6.85080        5.59020        5.76480
H          5.99880        3.09550        7.52800
H          1.62900        4.66090        2.48120
H         -1.01530        5.49140        4.00520
H         -0.37230        5.13880        6.32950
H          0.37140        4.96240        8.54660
H         -1.22840        4.15860        8.47310
H         -0.06850        3.74000        9.75500
H          0.08510        0.95580        5.57270
H         -0.64230        1.29920        3.25270
H         -0.99060        5.26180        0.00290
H         -2.67280        6.92800       -0.67730
H         -6.17100        7.94340        2.53890
H         -7.22680        8.37620        1.17760
H         -6.92250        6.66160        1.53230
H         -5.04820        5.90490        2.73010
H         -3.39630        4.23980        3.38380
H         -0.65240       -1.05560       -5.16620
H         -2.27680       -2.55150       -6.18810
H         -4.03930       -3.31600       -7.37380
H         -3.29150       -4.73430       -6.56780
H         -4.97480       -4.81050       -7.13680
H         -4.50530       -2.62480       -2.53800
H         -2.86130       -1.11130       -1.50570
H          0.71000        2.15390       -3.27790
H          3.09580        2.13310       -3.76130
H          5.37540        2.07750       -3.17050
H          6.64850        1.49010       -4.26310
H          5.10700        2.05010       -4.94530
H          3.12240       -2.13370       -3.44970
H          0.71090       -2.10650       -2.93780
H         -9.34550       -1.15100       -3.41020
H         -8.84310       -0.25850       -1.98360
H         -6.62690       -1.39220       -2.03110
H         -7.92450       -2.58940       -1.96460
H         -7.08940       -2.27240       -3.48750
H         -8.90460        2.81080       -3.26580
H         -9.76700        2.11720       -4.62930
H         -8.71290        4.28660       -5.26810
H         -7.12700        3.65660       -4.81500
H         -7.99280        2.96060       -6.18420
H         -5.36790        1.70820       -1.65450
H         -8.64740       -0.87530       -7.06370
H         -8.03140       -1.79110       -9.19710
H         -2.17610       -3.13910      -11.04990
H         -3.92760       -4.78840      -14.60390
H         -6.16670       -4.13010      -13.85770
