187

C          7.42660       -3.06810       -1.77070
C          8.23650       -3.02840       -2.88380
C          7.80890       -2.50620       -4.19040
O          6.73870       -1.99670       -4.47090
C          8.89130       -2.85390       -5.13570
C          8.93260       -2.58590       -6.50020
C         10.06740       -3.04330       -7.12800
C         11.08190       -3.72940       -6.45020
C         11.05200       -4.00250       -5.10190
C          9.91150       -3.53540       -4.44490
C          9.53950       -3.61640       -3.03330
C         10.35690       -4.02440       -2.00780
C         10.00250       -3.94790       -0.64650
N          9.78450       -3.88580        0.47970
C         11.67020       -4.49950       -2.18180
N         12.74640       -4.89170       -2.27050
C         11.90260       -3.91810       -7.70200
C         11.87960       -5.31230       -8.37580
C         10.56270       -5.94770       -8.00470
C          9.60310       -5.29540       -8.64710
C         10.25410       -4.20710       -9.46440
C         11.58010       -4.89580       -9.82470
C         10.77240       -3.15030       -8.45800
C          6.33150       -2.23400       -1.52240
C          6.03210       -0.92990       -1.96580
N          6.87220       -0.08370       -2.63250
C          6.33160        0.96690       -3.40100
C          6.85430        2.24940       -3.28200
C          6.32530        3.29270       -4.01730
C          5.26470        3.06200       -4.88360
S          4.49690        4.31130       -5.86290
C          5.35180        5.83920       -5.38210
C          4.75600        1.77070       -5.02030
C          5.28230        0.73100       -4.28820
C          8.26580       -0.20790       -2.57280
C          8.91320       -0.51560       -1.37430
C         10.27440       -0.70750       -1.35160
C         11.02510       -0.60470       -2.52470
S         12.74300       -0.96800       -2.39740
C         13.25270       -1.21220       -4.12260
C         10.39580       -0.22860       -3.70390
C          9.02850       -0.02930       -3.72500
C          4.75300       -0.53400       -1.50920
S          3.82010        0.91760       -1.66920
C          2.54810        0.23070       -0.67050
C          2.87210       -1.02840       -0.18240
N          2.12440       -1.74400        0.74090
C          1.43490       -1.08280        1.76410
C          0.20060       -1.56410        2.21020
C         -0.55390       -0.82600        3.09520
C         -0.10420        0.41190        3.55010
S         -1.20870        1.33560        4.57040
C         -0.45740        2.98650        4.61880
C          1.16060        0.85010        3.18180
C          1.92400        0.10430        2.30570
C          2.10840       -3.14420        0.65280
C          2.17010       -3.92730        1.80070
C          2.15920       -5.30540        1.71360
C          2.09670       -5.92380        0.47190
S          2.07740       -7.67210        0.23370
C          2.24670       -8.34660        1.90980
C          2.03580       -5.14190       -0.68010
C          2.03640       -3.76840       -0.59260
C          4.12110       -1.45700       -0.68720
S          5.08360       -2.86430       -0.43550
C          1.36180        0.97090       -0.39450
Se        -0.35370        0.21010       -0.45690
C         -1.06830        1.81270        0.25560
C         -0.04170        2.75220        0.37130
C          0.02670        4.10530        0.81570
C          1.27740        4.61980        0.80600
C          1.70210        5.99800        1.17490
C          2.13860        6.79030       -0.05890
S          2.48540        3.47670        0.24030
C          1.24870        2.28180       -0.00820
C         -2.41500        1.96460        0.68370
C         -3.56990        1.24480        0.35170
C         -3.53670        0.01770       -0.50320
C         -3.23590       -1.22350        0.34090
C         -4.70750        1.76120        0.98450
C         -4.40470        2.80310        1.86390
S         -2.75250        3.23700        1.84620
C         -5.55310        3.19000        2.57380
C         -6.63580        2.41290        2.13720
C         -6.20860        1.50180        1.00310
C         -6.52380        0.02040        1.26540
C         -8.00020       -0.32020        1.42800
C         -6.90280        2.08440       -0.25290
C         -6.57030        1.43020       -1.58610
C         -7.81430        2.73510        2.77760
C         -7.64940        3.72380        3.74730
S         -5.97650        4.29810        3.80030
C         -8.54530        4.32920        4.63910
C         -9.84630        4.02860        4.96170
C        -10.64770        2.84960        4.57420
O        -10.40490        1.99630        3.74110
C        -11.84690        2.87550        5.43340
C        -12.85770        1.91850        5.47720
C        -13.84780        2.19270        6.38940
C        -13.82950        3.33180        7.20490
C        -12.83860        4.28410        7.16990
C        -11.82650        4.02840        6.24070
C        -10.62880        4.79750        5.91160
C        -10.35440        6.06040        6.37320
C         -9.26080        6.86410        5.98810
N         -8.42030        7.59980        5.71790
C        -11.16930        6.77220        7.27740
N        -11.77700        7.41320        8.01170
C        -15.12760        2.96670        7.88060
C        -16.40490        3.72660        7.44590
C        -16.17100        4.17990        6.02630
C        -16.18990        3.10480        5.24990
C        -16.43710        1.90500        6.13060
C        -17.34470        2.53570        7.19870
C        -15.15050        1.69990        6.96820
H          7.60380       -3.83920       -1.03040
H          8.12550       -2.06120       -6.98770
H         11.83280       -4.54460       -4.59370
H         12.89910       -3.47960       -7.69240
H         12.76840       -5.91250       -8.20040
H         10.46220       -6.74410       -7.29080
H          8.54070       -5.43760       -8.57660
H          9.66280       -3.80110      -10.28120
H         12.32220       -4.21720      -10.24350
H         11.44520       -5.74830      -10.48880
H         11.03150       -2.20980       -8.94120
H          7.67530        2.43090       -2.60370
H          6.74660        4.27770       -3.89870
H          6.40250        5.78060       -5.65080
H          4.87180        6.63150       -5.94800
H          5.22330        6.01590       -4.31830
H          3.94600        1.59740       -5.71180
H          4.91400       -0.27510       -4.41070
H          8.34280       -0.61740       -0.46380
H         10.77340       -0.95880       -0.42850
H         12.56400       -1.89550       -4.61190
H         14.24120       -1.65760       -4.07100
H         13.30330       -0.25960       -4.64230
H         10.95550       -0.10340       -4.61670
H          8.54010        0.24930       -4.64670
H         -0.17270       -2.50420        1.83140
H         -1.51810       -1.18490        3.42180
H         -1.20190        3.63320        5.07250
H          0.44080        2.97400        5.22960
H         -0.24590        3.32050        3.60680
H          1.56280        1.77500        3.56270
H          2.90390        0.45960        2.02220
H          2.23120       -3.45150        2.76820
H          2.20940       -5.88210        2.62270
H          2.26690       -9.42510        1.78860
H          1.39220       -8.06050        2.51560
H          3.17820       -8.00780        2.35240
H          1.98170       -5.62750       -1.64220
H          1.97480       -3.16830       -1.48880
H         -0.82720        4.68550        1.11380
H          0.86890        6.50510        1.66560
H          2.53690        5.94630        1.87890
H          2.45230        7.79050        0.22840
H          2.97040        6.29140       -0.55110
H          1.31640        6.87190       -0.76590
H         -2.76810        0.12560       -1.27950
H         -4.49290       -0.11670       -1.00360
H         -2.30360       -1.09850        0.89080
H         -3.14680       -2.09750       -0.29980
H         -4.02970       -1.39610        1.06240
H         -5.99260       -0.27070        2.17550
H         -6.12090       -0.56860        0.44180
H         -8.43080        0.17420        2.29250
H         -8.57060       -0.04430        0.54540
H         -8.10260       -1.39410        1.57080
H         -7.97890        2.02880       -0.08350
H         -6.63810        3.14360       -0.31090
H         -7.18220        1.88140       -2.36460
H         -6.78320        0.36430       -1.57180
H         -5.52760        1.58820       -1.84800
H         -8.77680        2.29880        2.59110
H         -8.10580        5.15640        5.18470
H        -12.82780        1.05170        4.83550
H        -12.83640        5.15050        7.80960
H        -15.07930        2.81800        8.95760
H        -16.73590        4.48990        8.14500
H        -15.96380        5.19700        5.74940
H        -16.00140        3.04400        4.19400
H        -16.79860        1.00940        5.63180
H        -18.31330        2.83820        6.80340
H        -17.48580        1.90500        8.07550
H        -15.12070        0.72420        7.44990
