
  xtb     02112223093D
 energy: -403.187696978441 gnorm: 0.000509448832 xtb: 6.4.1 (unknown)
248274  0     0  0            999 V2000
    8.1185   -7.4444    3.7070 C   0  0  0  0  0  0  0  0  0  0  0  0
    9.3977   -7.0973    4.0509 C   0  0  0  0  0  0  0  0  0  0  0  0
   10.0659   -5.7786    3.9765 C   0  0  0  0  0  0  0  0  0  0  0  0
    9.5812   -4.6730    3.8246 O   0  0  0  0  0  0  0  0  0  0  0  0
   11.5077   -6.0480    4.1252 C   0  0  0  0  0  0  0  0  0  0  0  0
   12.5387   -5.1143    4.0354 C   0  0  0  0  0  0  0  0  0  0  0  0
   13.7923   -5.6481    4.2088 C   0  0  0  0  0  0  0  0  0  0  0  0
   14.0058   -7.0110    4.4564 C   0  0  0  0  0  0  0  0  0  0  0  0
   12.9979   -7.9403    4.5549 C   0  0  0  0  0  0  0  0  0  0  0  0
   11.7127   -7.4169    4.3802 C   0  0  0  0  0  0  0  0  0  0  0  0
   10.4101   -8.0751    4.4204 C   0  0  0  0  0  0  0  0  0  0  0  0
   10.1912   -9.3674    4.8217 C   0  0  0  0  0  0  0  0  0  0  0  0
   11.2117  -10.2696    5.1887 C   0  0  0  0  0  0  0  0  0  0  0  0
   11.9880  -11.0583    5.4953 N   0  0  0  0  0  0  0  0  0  0  0  0
    8.9304   -9.9810    4.9854 C   0  0  0  0  0  0  0  0  0  0  0  0
    7.9539  -10.5558    5.1748 N   0  0  0  0  0  0  0  0  0  0  0  0
   15.5042   -6.8473    4.5160 C   0  0  0  0  0  0  0  0  0  0  0  0
   16.2984   -7.3007    3.2728 C   0  0  0  0  0  0  0  0  0  0  0  0
   17.6270   -6.5937    3.4148 C   0  0  0  0  0  0  0  0  0  0  0  0
   17.4248   -5.3035    3.1798 C   0  0  0  0  0  0  0  0  0  0  0  0
   15.9558   -5.1168    2.8753 C   0  0  0  0  0  0  0  0  0  0  0  0
   15.6619   -6.4465    2.1688 C   0  0  0  0  0  0  0  0  0  0  0  0
   15.2661   -5.3279    4.2401 C   0  0  0  0  0  0  0  0  0  0  0  0
    7.0172   -6.6562    3.3175 C   0  0  0  0  0  0  0  0  0  0  0  0
    6.8172   -5.2964    3.3355 C   0  0  0  0  0  0  0  0  0  0  0  0
    5.5654   -4.8904    2.8452 C   0  0  0  0  0  0  0  0  0  0  0  0
    5.0704   -3.5662    2.7185 C   0  0  0  0  0  0  0  0  0  0  0  0
    5.8975   -2.4106    2.9571 C   0  0  0  0  0  0  0  0  0  0  0  0
    5.5472   -1.1642    3.4157 C   0  0  0  0  0  0  0  0  0  0  0  0
    6.6196   -0.2654    3.4925 C   0  0  0  0  0  0  0  0  0  0  0  0
    7.8036   -0.8159    3.0757 C   0  0  0  0  0  0  0  0  0  0  0  0
    9.3522   -0.0159    3.0729 S   0  0  0  0  0  0  0  0  0  0  0  0
   10.5128   -1.4119    2.8351 C   0  0  0  0  0  0  0  0  0  0  0  0
   10.7298   -1.7419    1.3710 C   0  0  0  0  0  0  0  0  0  0  0  0
    7.5961   -2.4535    2.5617 S   0  0  0  0  0  0  0  0  0  0  0  0
    3.7496   -3.4518    2.3010 C   0  0  0  0  0  0  0  0  0  0  0  0
    2.9546   -4.5537    1.9026 C   0  0  0  0  0  0  0  0  0  0  0  0
    3.4683   -5.8652    1.9714 C   0  0  0  0  0  0  0  0  0  0  0  0
    2.6748   -6.9982    1.5464 C   0  0  0  0  0  0  0  0  0  0  0  0
    1.9233   -7.1429    0.4134 C   0  0  0  0  0  0  0  0  0  0  0  0
    1.2667   -8.3811    0.3268 C   0  0  0  0  0  0  0  0  0  0  0  0
    1.5007   -9.1841    1.4085 C   0  0  0  0  0  0  0  0  0  0  0  0
    0.7866  -10.7552    1.6543 S   0  0  0  0  0  0  0  0  0  0  0  0
    1.5190  -11.2793    3.2427 C   0  0  0  0  0  0  0  0  0  0  0  0
    2.9460  -11.7686    3.0953 C   0  0  0  0  0  0  0  0  0  0  0  0
    2.5658   -8.4223    2.5440 S   0  0  0  0  0  0  0  0  0  0  0  0
    4.7524   -5.9988    2.4825 C   0  0  0  0  0  0  0  0  0  0  0  0
    5.5920   -7.5021    2.7160 S   0  0  0  0  0  0  0  0  0  0  0  0
    1.6596   -4.1687    1.4889 C   0  0  0  0  0  0  0  0  0  0  0  0
    1.4232   -2.8253    1.5908 C   0  0  0  0  0  0  0  0  0  0  0  0
    2.8528   -1.9665    2.1494 S   0  0  0  0  0  0  0  0  0  0  0  0
    0.2791   -2.0358    1.3025 C   0  0  0  0  0  0  0  0  0  0  0  0
   -0.9836   -2.3477    0.7960 C   0  0  0  0  0  0  0  0  0  0  0  0
   -1.5355   -3.6025    0.6143 N   0  0  0  0  0  0  0  0  0  0  0  0
   -1.3554   -4.6480    1.5239 C   0  0  0  0  0  0  0  0  0  0  0  0
   -1.0202   -4.4099    2.8557 C   0  0  0  0  0  0  0  0  0  0  0  0
   -0.7748   -5.4588    3.7198 C   0  0  0  0  0  0  0  0  0  0  0  0
   -0.8741   -6.7692    3.2739 C   0  0  0  0  0  0  0  0  0  0  0  0
   -0.5633   -8.1707    4.3023 S   0  0  0  0  0  0  0  0  0  0  0  0
    0.5365   -7.4972    5.5825 C   0  0  0  0  0  0  0  0  0  0  0  0
   -1.2579   -7.0161    1.9581 C   0  0  0  0  0  0  0  0  0  0  0  0
   -1.4867   -5.9714    1.0915 C   0  0  0  0  0  0  0  0  0  0  0  0
   -2.4931   -3.7461   -0.4121 C   0  0  0  0  0  0  0  0  0  0  0  0
   -3.7438   -4.2937   -0.1474 C   0  0  0  0  0  0  0  0  0  0  0  0
   -4.6814   -4.4237   -1.1528 C   0  0  0  0  0  0  0  0  0  0  0  0
   -4.3845   -3.9983   -2.4417 C   0  0  0  0  0  0  0  0  0  0  0  0
   -5.4881   -4.1424   -3.8074 S   0  0  0  0  0  0  0  0  0  0  0  0
   -7.0658   -4.6173   -3.0482 C   0  0  0  0  0  0  0  0  0  0  0  0
   -3.1331   -3.4456   -2.7083 C   0  0  0  0  0  0  0  0  0  0  0  0
   -2.1955   -3.3235   -1.7073 C   0  0  0  0  0  0  0  0  0  0  0  0
   -1.6946   -1.1618    0.4811 C   0  0  0  0  0  0  0  0  0  0  0  0
   -3.2259   -0.8389   -0.2565 S   0  0  0  0  0  0  0  0  0  0  0  0
   -2.9614    0.8965   -0.1057 C   0  0  0  0  0  0  0  0  0  0  0  0
   -1.7791    1.1908    0.5671 C   0  0  0  0  0  0  0  0  0  0  0  0
   -1.3777    2.4561    0.9712 N   0  0  0  0  0  0  0  0  0  0  0  0
   -2.2714    3.3184    1.6189 C   0  0  0  0  0  0  0  0  0  0  0  0
   -3.4389    2.8516    2.2160 C   0  0  0  0  0  0  0  0  0  0  0  0
   -4.3107    3.7213    2.8420 C   0  0  0  0  0  0  0  0  0  0  0  0
   -4.0211    5.0763    2.9033 C   0  0  0  0  0  0  0  0  0  0  0  0
   -5.0487    6.2808    3.6853 S   0  0  0  0  0  0  0  0  0  0  0  0
   -6.5296    5.3469    4.1632 C   0  0  0  0  0  0  0  0  0  0  0  0
   -2.8409    5.5439    2.3291 C   0  0  0  0  0  0  0  0  0  0  0  0
   -1.9836    4.6826    1.6845 C   0  0  0  0  0  0  0  0  0  0  0  0
    0.0103    2.6540    1.0911 C   0  0  0  0  0  0  0  0  0  0  0  0
    0.8411    2.2878    0.0346 C   0  0  0  0  0  0  0  0  0  0  0  0
    2.2143    2.3110    0.1783 C   0  0  0  0  0  0  0  0  0  0  0  0
    2.7779    2.7055    1.3842 C   0  0  0  0  0  0  0  0  0  0  0  0
    4.5180    2.6580    1.6922 S   0  0  0  0  0  0  0  0  0  0  0  0
    5.0559    1.2728    0.6469 C   0  0  0  0  0  0  0  0  0  0  0  0
    1.9529    3.1537    2.4124 C   0  0  0  0  0  0  0  0  0  0  0  0
    0.5832    3.1265    2.2717 C   0  0  0  0  0  0  0  0  0  0  0  0
   -1.0529    0.0126    0.8413 C   0  0  0  0  0  0  0  0  0  0  0  0
    0.4886   -0.3024    1.5411 S   0  0  0  0  0  0  0  0  0  0  0  0
   -3.7937    1.7944   -0.8156 C   0  0  0  0  0  0  0  0  0  0  0  0
   -5.0280    1.5136   -1.3939 C   0  0  0  0  0  0  0  0  0  0  0  0
   -5.7594    0.3520   -1.1845 N   0  0  0  0  0  0  0  0  0  0  0  0
   -6.0585   -0.0884    0.1061 C   0  0  0  0  0  0  0  0  0  0  0  0
   -6.1573    0.8112    1.1644 C   0  0  0  0  0  0  0  0  0  0  0  0
   -6.4269    0.3546    2.4398 C   0  0  0  0  0  0  0  0  0  0  0  0
   -6.6103   -0.9975    2.6992 C   0  0  0  0  0  0  0  0  0  0  0  0
   -6.9261   -1.4839    4.0808 C   0  0  0  0  0  0  0  0  0  0  0  0
   -6.5148   -1.8887    1.6358 C   0  0  0  0  0  0  0  0  0  0  0  0
   -6.2405   -1.4482    0.3585 C   0  0  0  0  0  0  0  0  0  0  0  0
   -6.3284   -0.2599   -2.3143 C   0  0  0  0  0  0  0  0  0  0  0  0
   -5.5875   -0.3502   -3.4906 C   0  0  0  0  0  0  0  0  0  0  0  0
   -6.1440   -0.9114   -4.6197 C   0  0  0  0  0  0  0  0  0  0  0  0
   -7.4432   -1.4076   -4.6083 C   0  0  0  0  0  0  0  0  0  0  0  0
   -8.0252   -2.0176   -5.8452 C   0  0  0  0  0  0  0  0  0  0  0  0
   -8.1703   -1.3237   -3.4286 C   0  0  0  0  0  0  0  0  0  0  0  0
   -7.6281   -0.7532   -2.2925 C   0  0  0  0  0  0  0  0  0  0  0  0
   -5.4290    2.5493   -2.2630 C   0  0  0  0  0  0  0  0  0  0  0  0
   -6.7897    2.7621   -3.2989 S   0  0  0  0  0  0  0  0  0  0  0  0
   -6.1590    4.3287   -3.8393 C   0  0  0  0  0  0  0  0  0  0  0  0
   -4.8776    4.5924   -3.3031 C   0  0  0  0  0  0  0  0  0  0  0  0
   -4.0039    5.5448   -3.7269 N   0  0  0  0  0  0  0  0  0  0  0  0
   -4.0683    6.1542   -4.9888 C   0  0  0  0  0  0  0  0  0  0  0  0
   -3.8002    7.5159   -5.1044 C   0  0  0  0  0  0  0  0  0  0  0  0
   -3.8978    8.1426   -6.3327 C   0  0  0  0  0  0  0  0  0  0  0  0
   -4.2491    7.4340   -7.4735 C   0  0  0  0  0  0  0  0  0  0  0  0
   -4.4084    8.1150   -8.7961 C   0  0  0  0  0  0  0  0  0  0  0  0
   -4.4626    6.0621   -7.3573 C   0  0  0  0  0  0  0  0  0  0  0  0
   -4.3759    5.4261   -6.1372 C   0  0  0  0  0  0  0  0  0  0  0  0
   -2.9132    5.9083   -2.8997 C   0  0  0  0  0  0  0  0  0  0  0  0
   -3.1290    6.4213   -1.6276 C   0  0  0  0  0  0  0  0  0  0  0  0
   -2.0487    6.7892   -0.8481 C   0  0  0  0  0  0  0  0  0  0  0  0
   -0.7464    6.6254   -1.3020 C   0  0  0  0  0  0  0  0  0  0  0  0
    0.4289    6.9748   -0.4408 C   0  0  0  0  0  0  0  0  0  0  0  0
   -0.5466    6.1190   -2.5824 C   0  0  0  0  0  0  0  0  0  0  0  0
   -1.6159    5.7747   -3.3836 C   0  0  0  0  0  0  0  0  0  0  0  0
   -4.5272    3.6017   -2.3577 C   0  0  0  0  0  0  0  0  0  0  0  0
   -3.1687    3.3649   -1.3053 S   0  0  0  0  0  0  0  0  0  0  0  0
   -6.9583    5.0669   -4.7100 C   0  0  0  0  0  0  0  0  0  0  0  0
   -6.8803    6.4310   -4.9128 C   0  0  0  0  0  0  0  0  0  0  0  0
   -6.3794    7.3805   -3.9094 C   0  0  0  0  0  0  0  0  0  0  0  0
   -5.9372    7.1262   -2.8028 O   0  0  0  0  0  0  0  0  0  0  0  0
   -6.6411    8.7258   -4.4632 C   0  0  0  0  0  0  0  0  0  0  0  0
   -6.3512    9.9488   -3.8684 C   0  0  0  0  0  0  0  0  0  0  0  0
   -6.7036   11.0388   -4.6292 C   0  0  0  0  0  0  0  0  0  0  0  0
   -7.3098   10.9204   -5.8848 C   0  0  0  0  0  0  0  0  0  0  0  0
   -7.6050    9.7165   -6.4815 C   0  0  0  0  0  0  0  0  0  0  0  0
   -7.2476    8.5981   -5.7273 C   0  0  0  0  0  0  0  0  0  0  0  0
   -7.3797    7.1738   -6.0321 C   0  0  0  0  0  0  0  0  0  0  0  0
   -7.7544    6.6399   -7.2431 C   0  0  0  0  0  0  0  0  0  0  0  0
   -7.7301    5.2629   -7.5362 C   0  0  0  0  0  0  0  0  0  0  0  0
   -7.7050    4.1590   -7.8552 N   0  0  0  0  0  0  0  0  0  0  0  0
   -8.1237    7.3988   -8.3671 C   0  0  0  0  0  0  0  0  0  0  0  0
   -8.4163    7.9634   -9.3249 N   0  0  0  0  0  0  0  0  0  0  0  0
   -7.4048   12.4149   -6.0695 C   0  0  0  0  0  0  0  0  0  0  0  0
   -8.7827   13.0852   -5.8454 C   0  0  0  0  0  0  0  0  0  0  0  0
   -9.5371   12.2040   -4.8813 C   0  0  0  0  0  0  0  0  0  0  0  0
   -8.9594   12.3166   -3.6928 C   0  0  0  0  0  0  0  0  0  0  0  0
   -7.8037   13.2762   -3.8321 C   0  0  0  0  0  0  0  0  0  0  0  0
   -8.3673   14.2252   -4.9017 C   0  0  0  0  0  0  0  0  0  0  0  0
   -6.7248   12.5471   -4.6703 C   0  0  0  0  0  0  0  0  0  0  0  0
    7.9061   -8.5072    3.6828 H   0  0  0  0  0  0  0  0  0  0  0  0
   12.3285   -4.0725    3.8481 H   0  0  0  0  0  0  0  0  0  0  0  0
   13.1799   -8.9844    4.7460 H   0  0  0  0  0  0  0  0  0  0  0  0
   15.9757   -7.1394    5.4522 H   0  0  0  0  0  0  0  0  0  0  0  0
   16.3298   -8.3759    3.1201 H   0  0  0  0  0  0  0  0  0  0  0  0
   18.5360   -7.0799    3.7163 H   0  0  0  0  0  0  0  0  0  0  0  0
   18.1309   -4.4967    3.2459 H   0  0  0  0  0  0  0  0  0  0  0  0
   15.6759   -4.2021    2.3593 H   0  0  0  0  0  0  0  0  0  0  0  0
   16.1924   -6.5355    1.2223 H   0  0  0  0  0  0  0  0  0  0  0  0
   14.6025   -6.6415    2.0121 H   0  0  0  0  0  0  0  0  0  0  0  0
   15.5804   -4.6065    4.9920 H   0  0  0  0  0  0  0  0  0  0  0  0
    7.5642   -4.6310    3.7216 H   0  0  0  0  0  0  0  0  0  0  0  0
    4.5559   -0.9117    3.7452 H   0  0  0  0  0  0  0  0  0  0  0  0
    6.5364    0.7441    3.8506 H   0  0  0  0  0  0  0  0  0  0  0  0
   11.4384   -1.0724    3.3006 H   0  0  0  0  0  0  0  0  0  0  0  0
   10.1179   -2.2673    3.3838 H   0  0  0  0  0  0  0  0  0  0  0  0
   11.4413   -2.5606    1.2835 H   0  0  0  0  0  0  0  0  0  0  0  0
   11.1204   -0.8784    0.8370 H   0  0  0  0  0  0  0  0  0  0  0  0
    9.7977   -2.0503    0.9037 H   0  0  0  0  0  0  0  0  0  0  0  0
    1.8790   -6.3957   -0.3589 H   0  0  0  0  0  0  0  0  0  0  0  0
    0.6429   -8.6787   -0.4958 H   0  0  0  0  0  0  0  0  0  0  0  0
    1.4407  -10.4322    3.9236 H   0  0  0  0  0  0  0  0  0  0  0  0
    0.8623  -12.0775    3.5880 H   0  0  0  0  0  0  0  0  0  0  0  0
    3.3228  -12.0923    4.0630 H   0  0  0  0  0  0  0  0  0  0  0  0
    3.5943  -10.9778    2.7253 H   0  0  0  0  0  0  0  0  0  0  0  0
    2.9904  -12.6075    2.4045 H   0  0  0  0  0  0  0  0  0  0  0  0
    0.9389   -4.8790    1.1388 H   0  0  0  0  0  0  0  0  0  0  0  0
   -0.9502   -3.3963    3.2195 H   0  0  0  0  0  0  0  0  0  0  0  0
   -0.5125   -5.2399    4.7425 H   0  0  0  0  0  0  0  0  0  0  0  0
    0.9588   -8.3557    6.0955 H   0  0  0  0  0  0  0  0  0  0  0  0
    1.3269   -6.9218    5.1096 H   0  0  0  0  0  0  0  0  0  0  0  0
   -0.0257   -6.8920    6.2877 H   0  0  0  0  0  0  0  0  0  0  0  0
   -1.3535   -8.0361    1.6200 H   0  0  0  0  0  0  0  0  0  0  0  0
   -1.7503   -6.1733    0.0643 H   0  0  0  0  0  0  0  0  0  0  0  0
   -3.9815   -4.6175    0.8550 H   0  0  0  0  0  0  0  0  0  0  0  0
   -5.6399   -4.8571   -0.9169 H   0  0  0  0  0  0  0  0  0  0  0  0
   -6.9935   -5.6118   -2.6175 H   0  0  0  0  0  0  0  0  0  0  0  0
   -7.3510   -3.8772   -2.3065 H   0  0  0  0  0  0  0  0  0  0  0  0
   -7.7881   -4.6196   -3.8581 H   0  0  0  0  0  0  0  0  0  0  0  0
   -2.9081   -3.1205   -3.7121 H   0  0  0  0  0  0  0  0  0  0  0  0
   -1.2252   -2.8981   -1.9176 H   0  0  0  0  0  0  0  0  0  0  0  0
   -3.6717    1.7972    2.2050 H   0  0  0  0  0  0  0  0  0  0  0  0
   -5.2052    3.3213    3.2910 H   0  0  0  0  0  0  0  0  0  0  0  0
   -6.2783    4.6040    4.9151 H   0  0  0  0  0  0  0  0  0  0  0  0
   -7.2126    6.0781    4.5844 H   0  0  0  0  0  0  0  0  0  0  0  0
   -6.9761    4.8885    3.2855 H   0  0  0  0  0  0  0  0  0  0  0  0
   -2.6123    6.5962    2.3987 H   0  0  0  0  0  0  0  0  0  0  0  0
   -1.0821    5.0546    1.2250 H   0  0  0  0  0  0  0  0  0  0  0  0
    0.3989    1.9592   -0.8947 H   0  0  0  0  0  0  0  0  0  0  0  0
    2.8365    2.0057   -0.6479 H   0  0  0  0  0  0  0  0  0  0  0  0
    6.0442    0.9993    1.0031 H   0  0  0  0  0  0  0  0  0  0  0  0
    5.1118    1.5783   -0.3939 H   0  0  0  0  0  0  0  0  0  0  0  0
    4.3693    0.4419    0.7803 H   0  0  0  0  0  0  0  0  0  0  0  0
    2.3992    3.4864    3.3366 H   0  0  0  0  0  0  0  0  0  0  0  0
   -0.0507    3.4294    3.0915 H   0  0  0  0  0  0  0  0  0  0  0  0
   -6.0257    1.8676    0.9798 H   0  0  0  0  0  0  0  0  0  0  0  0
   -6.5041    1.0641    3.2518 H   0  0  0  0  0  0  0  0  0  0  0  0
   -8.0056   -1.5738    4.2083 H   0  0  0  0  0  0  0  0  0  0  0  0
   -6.5549   -0.7911    4.8324 H   0  0  0  0  0  0  0  0  0  0  0  0
   -6.4864   -2.4634    4.2560 H   0  0  0  0  0  0  0  0  0  0  0  0
   -6.6460   -2.9463    1.8152 H   0  0  0  0  0  0  0  0  0  0  0  0
   -6.1396   -2.1523   -0.4535 H   0  0  0  0  0  0  0  0  0  0  0  0
   -4.5722    0.0191   -3.5061 H   0  0  0  0  0  0  0  0  0  0  0  0
   -5.5604   -0.9780   -5.5257 H   0  0  0  0  0  0  0  0  0  0  0  0
   -7.3914   -2.8303   -6.1982 H   0  0  0  0  0  0  0  0  0  0  0  0
   -9.0244   -2.4041   -5.6595 H   0  0  0  0  0  0  0  0  0  0  0  0
   -8.0846   -1.2738   -6.6386 H   0  0  0  0  0  0  0  0  0  0  0  0
   -9.1837   -1.6987   -3.3973 H   0  0  0  0  0  0  0  0  0  0  0  0
   -8.2132   -0.6786   -1.3874 H   0  0  0  0  0  0  0  0  0  0  0  0
   -3.5336    8.0798   -4.2232 H   0  0  0  0  0  0  0  0  0  0  0  0
   -3.7120    9.2048   -6.3992 H   0  0  0  0  0  0  0  0  0  0  0  0
   -4.0226    9.1305   -8.7606 H   0  0  0  0  0  0  0  0  0  0  0  0
   -5.4626    8.1590   -9.0718 H   0  0  0  0  0  0  0  0  0  0  0  0
   -3.8875    7.5645   -9.5773 H   0  0  0  0  0  0  0  0  0  0  0  0
   -4.7104    5.4860   -8.2370 H   0  0  0  0  0  0  0  0  0  0  0  0
   -4.5518    4.3629   -6.0715 H   0  0  0  0  0  0  0  0  0  0  0  0
   -4.1415    6.5546   -1.2802 H   0  0  0  0  0  0  0  0  0  0  0  0
   -2.2264    7.2169    0.1261 H   0  0  0  0  0  0  0  0  0  0  0  0
    0.1127    7.4861    0.4649 H   0  0  0  0  0  0  0  0  0  0  0  0
    1.1236    7.6164   -0.9802 H   0  0  0  0  0  0  0  0  0  0  0  0
    0.9686    6.0699   -0.1575 H   0  0  0  0  0  0  0  0  0  0  0  0
    0.4605    5.9962   -2.9539 H   0  0  0  0  0  0  0  0  0  0  0  0
   -1.4564    5.3930   -4.3818 H   0  0  0  0  0  0  0  0  0  0  0  0
   -7.7277    4.5088   -5.2301 H   0  0  0  0  0  0  0  0  0  0  0  0
   -5.8849    9.9978   -2.8965 H   0  0  0  0  0  0  0  0  0  0  0  0
   -8.0804    9.6391   -7.4453 H   0  0  0  0  0  0  0  0  0  0  0  0
   -6.8811   12.8243   -6.9315 H   0  0  0  0  0  0  0  0  0  0  0  0
   -9.3065   13.3563   -6.7583 H   0  0  0  0  0  0  0  0  0  0  0  0
  -10.3513   11.5638   -5.1667 H   0  0  0  0  0  0  0  0  0  0  0  0
   -9.1942   11.7888   -2.7870 H   0  0  0  0  0  0  0  0  0  0  0  0
   -7.4361   13.7219   -2.9112 H   0  0  0  0  0  0  0  0  0  0  0  0
   -7.6184   14.8909   -5.3290 H   0  0  0  0  0  0  0  0  0  0  0  0
   -9.2156   14.8072   -4.5443 H   0  0  0  0  0  0  0  0  0  0  0  0
   -5.7564   13.0420   -4.6199 H   0  0  0  0  0  0  0  0  0  0  0  0
  1  2  2  0  0  0  0
  2  3  1  0  0  0  0
  3  4  2  0  0  0  0
  3  5  1  0  0  0  0
  5  6  2  0  0  0  0
  6  7  1  0  0  0  0
  7  8  2  0  0  0  0
  8  9  1  0  0  0  0
  9 10  2  0  0  0  0
 10 11  1  0  0  0  0
 11 12  2  0  0  0  0
 12 13  1  0  0  0  0
 13 14  3  0  0  0  0
 12 15  1  0  0  0  0
 15 16  3  0  0  0  0
  8 17  1  0  0  0  0
 17 18  1  0  0  0  0
 18 19  1  0  0  0  0
 19 20  2  0  0  0  0
 20 21  1  0  0  0  0
 21 22  1  0  0  0  0
 21 23  1  0  0  0  0
  1 24  1  0  0  0  0
 24 25  2  0  0  0  0
 25 26  1  0  0  0  0
 26 27  2  0  0  0  0
 27 28  1  0  0  0  0
 28 29  2  0  0  0  0
 29 30  1  0  0  0  0
 30 31  2  0  0  0  0
 31 32  1  0  0  0  0
 32 33  1  0  0  0  0
 33 34  1  0  0  0  0
 31 35  1  0  0  0  0
 27 36  1  0  0  0  0
 36 37  2  0  0  0  0
 37 38  1  0  0  0  0
 38 39  1  0  0  0  0
 39 40  2  0  0  0  0
 40 41  1  0  0  0  0
 41 42  2  0  0  0  0
 42 43  1  0  0  0  0
 43 44  1  0  0  0  0
 44 45  1  0  0  0  0
 42 46  1  0  0  0  0
 38 47  2  0  0  0  0
 47 48  1  0  0  0  0
 37 49  1  0  0  0  0
 49 50  2  0  0  0  0
 50 51  1  0  0  0  0
 50 52  1  0  0  0  0
 52 53  2  0  0  0  0
 53 54  1  0  0  0  0
 54 55  1  0  0  0  0
 55 56  2  0  0  0  0
 56 57  1  0  0  0  0
 57 58  2  0  0  0  0
 58 59  1  0  0  0  0
 59 60  1  0  0  0  0
 58 61  1  0  0  0  0
 61 62  2  0  0  0  0
 54 63  1  0  0  0  0
 63 64  2  0  0  0  0
 64 65  1  0  0  0  0
 65 66  2  0  0  0  0
 66 67  1  0  0  0  0
 67 68  1  0  0  0  0
 66 69  1  0  0  0  0
 69 70  2  0  0  0  0
 53 71  1  0  0  0  0
 71 72  1  0  0  0  0
 72 73  1  0  0  0  0
 73 74  2  0  0  0  0
 74 75  1  0  0  0  0
 75 76  1  0  0  0  0
 76 77  2  0  0  0  0
 77 78  1  0  0  0  0
 78 79  2  0  0  0  0
 79 80  1  0  0  0  0
 80 81  1  0  0  0  0
 79 82  1  0  0  0  0
 82 83  2  0  0  0  0
 75 84  1  0  0  0  0
 84 85  2  0  0  0  0
 85 86  1  0  0  0  0
 86 87  2  0  0  0  0
 87 88  1  0  0  0  0
 88 89  1  0  0  0  0
 87 90  1  0  0  0  0
 90 91  2  0  0  0  0
 74 92  1  0  0  0  0
 92 93  1  0  0  0  0
 73 94  1  0  0  0  0
 94 95  2  0  0  0  0
 95 96  1  0  0  0  0
 96 97  1  0  0  0  0
 97 98  2  0  0  0  0
 98 99  1  0  0  0  0
 99100  2  0  0  0  0
100101  1  0  0  0  0
100102  1  0  0  0  0
102103  2  0  0  0  0
 96104  1  0  0  0  0
104105  2  0  0  0  0
105106  1  0  0  0  0
106107  2  0  0  0  0
107108  1  0  0  0  0
107109  1  0  0  0  0
109110  2  0  0  0  0
 95111  1  0  0  0  0
111112  1  0  0  0  0
112113  1  0  0  0  0
113114  2  0  0  0  0
114115  1  0  0  0  0
115116  1  0  0  0  0
116117  2  0  0  0  0
117118  1  0  0  0  0
118119  2  0  0  0  0
119120  1  0  0  0  0
119121  1  0  0  0  0
121122  2  0  0  0  0
115123  1  0  0  0  0
123124  2  0  0  0  0
124125  1  0  0  0  0
125126  2  0  0  0  0
126127  1  0  0  0  0
126128  1  0  0  0  0
128129  2  0  0  0  0
114130  1  0  0  0  0
130131  1  0  0  0  0
113132  1  0  0  0  0
132133  2  0  0  0  0
133134  1  0  0  0  0
134135  2  0  0  0  0
134136  1  0  0  0  0
136137  2  0  0  0  0
137138  1  0  0  0  0
138139  2  0  0  0  0
139140  1  0  0  0  0
140141  2  0  0  0  0
141142  1  0  0  0  0
142143  2  0  0  0  0
143144  1  0  0  0  0
144145  3  0  0  0  0
143146  1  0  0  0  0
146147  3  0  0  0  0
139148  1  0  0  0  0
148149  1  0  0  0  0
149150  1  0  0  0  0
150151  2  0  0  0  0
151152  1  0  0  0  0
152153  1  0  0  0  0
152154  1  0  0  0  0
 11  2  1  0  0  0  0
 23 17  1  0  0  0  0
 48 24  1  0  0  0  0
 93 52  1  0  0  0  0
131 94  1  0  0  0  0
142133  1  0  0  0  0
154148  1  0  0  0  0
 10  5  1  0  0  0  0
 22 18  1  0  0  0  0
 47 26  1  0  0  0  0
 62 55  1  0  0  0  0
 70 63  1  0  0  0  0
 92 71  2  0  0  0  0
103 97  1  0  0  0  0
110104  1  0  0  0  0
130111  2  0  0  0  0
141136  1  0  0  0  0
153149  1  0  0  0  0
 23  7  1  0  0  0  0
 35 28  1  0  0  0  0
 51 36  1  0  0  0  0
 83 76  1  0  0  0  0
 91 84  1  0  0  0  0
122116  1  0  0  0  0
129123  1  0  0  0  0
154138  1  0  0  0  0
 46 39  1  0  0  0  0
  1155  1  0  0  0  0
  6156  1  0  0  0  0
  9157  1  0  0  0  0
 17158  1  0  0  0  0
 18159  1  0  0  0  0
 19160  1  0  0  0  0
 20161  1  0  0  0  0
 21162  1  0  0  0  0
 22163  1  0  0  0  0
 22164  1  0  0  0  0
 23165  1  0  0  0  0
 25166  1  0  0  0  0
 29167  1  0  0  0  0
 30168  1  0  0  0  0
 33169  1  0  0  0  0
 33170  1  0  0  0  0
 34171  1  0  0  0  0
 34172  1  0  0  0  0
 34173  1  0  0  0  0
 40174  1  0  0  0  0
 41175  1  0  0  0  0
 44176  1  0  0  0  0
 44177  1  0  0  0  0
 45178  1  0  0  0  0
 45179  1  0  0  0  0
 45180  1  0  0  0  0
 49181  1  0  0  0  0
 56182  1  0  0  0  0
 57183  1  0  0  0  0
 60184  1  0  0  0  0
 60185  1  0  0  0  0
 60186  1  0  0  0  0
 61187  1  0  0  0  0
 62188  1  0  0  0  0
 64189  1  0  0  0  0
 65190  1  0  0  0  0
 68191  1  0  0  0  0
 68192  1  0  0  0  0
 68193  1  0  0  0  0
 69194  1  0  0  0  0
 70195  1  0  0  0  0
 77196  1  0  0  0  0
 78197  1  0  0  0  0
 81198  1  0  0  0  0
 81199  1  0  0  0  0
 81200  1  0  0  0  0
 82201  1  0  0  0  0
 83202  1  0  0  0  0
 85203  1  0  0  0  0
 86204  1  0  0  0  0
 89205  1  0  0  0  0
 89206  1  0  0  0  0
 89207  1  0  0  0  0
 90208  1  0  0  0  0
 91209  1  0  0  0  0
 98210  1  0  0  0  0
 99211  1  0  0  0  0
101212  1  0  0  0  0
101213  1  0  0  0  0
101214  1  0  0  0  0
102215  1  0  0  0  0
103216  1  0  0  0  0
105217  1  0  0  0  0
106218  1  0  0  0  0
108219  1  0  0  0  0
108220  1  0  0  0  0
108221  1  0  0  0  0
109222  1  0  0  0  0
110223  1  0  0  0  0
117224  1  0  0  0  0
118225  1  0  0  0  0
120226  1  0  0  0  0
120227  1  0  0  0  0
120228  1  0  0  0  0
121229  1  0  0  0  0
122230  1  0  0  0  0
124231  1  0  0  0  0
125232  1  0  0  0  0
127233  1  0  0  0  0
127234  1  0  0  0  0
127235  1  0  0  0  0
128236  1  0  0  0  0
129237  1  0  0  0  0
132238  1  0  0  0  0
137239  1  0  0  0  0
140240  1  0  0  0  0
148241  1  0  0  0  0
149242  1  0  0  0  0
150243  1  0  0  0  0
151244  1  0  0  0  0
152245  1  0  0  0  0
153246  1  0  0  0  0
153247  1  0  0  0  0
154248  1  0  0  0  0
M  END
