
  xtb     02072222063D
 energy: -358.320500664642 gnorm: 0.000488668613 xtb: 6.4.1 (unknown)
216240  0     0  0            999 V2000
    3.6628    4.0396   -6.7195 C   0  0  0  0  0  0  0  0  0  0  0  0
    4.6314    3.9535   -7.6745 C   0  0  0  0  0  0  0  0  0  0  0  0
    5.1220    2.7905   -8.4568 C   0  0  0  0  0  0  0  0  0  0  0  0
    4.9483    1.6045   -8.2645 O   0  0  0  0  0  0  0  0  0  0  0  0
    5.8941    3.3571   -9.5787 C   0  0  0  0  0  0  0  0  0  0  0  0
    6.4497    2.6496  -10.6435 C   0  0  0  0  0  0  0  0  0  0  0  0
    7.0898    3.4406  -11.5662 C   0  0  0  0  0  0  0  0  0  0  0  0
    7.1682    4.8351  -11.4438 C   0  0  0  0  0  0  0  0  0  0  0  0
    6.6294    5.5440  -10.3974 C   0  0  0  0  0  0  0  0  0  0  0  0
    5.9793    4.7554   -9.4419 C   0  0  0  0  0  0  0  0  0  0  0  0
    5.2912    5.1361   -8.2151 C   0  0  0  0  0  0  0  0  0  0  0  0
    5.3457    6.3757   -7.6354 C   0  0  0  0  0  0  0  0  0  0  0  0
    4.7898    6.7494   -6.3967 C   0  0  0  0  0  0  0  0  0  0  0  0
    4.4260    7.1838   -5.3955 N   0  0  0  0  0  0  0  0  0  0  0  0
    6.0473    7.4751   -8.1756 C   0  0  0  0  0  0  0  0  0  0  0  0
    6.5954    8.4143   -8.5443 N   0  0  0  0  0  0  0  0  0  0  0  0
    7.9381    4.9849  -12.7323 C   0  0  0  0  0  0  0  0  0  0  0  0
    9.4556    5.2354  -12.6051 C   0  0  0  0  0  0  0  0  0  0  0  0
    9.9984    4.8622  -13.9656 C   0  0  0  0  0  0  0  0  0  0  0  0
    9.9267    3.5421  -14.0804 C   0  0  0  0  0  0  0  0  0  0  0  0
    9.3343    3.0009  -12.7992 C   0  0  0  0  0  0  0  0  0  0  0  0
    9.9055    4.0117  -11.7965 C   0  0  0  0  0  0  0  0  0  0  0  0
    7.8533    3.4305  -12.8672 C   0  0  0  0  0  0  0  0  0  0  0  0
    2.8909    3.0743   -6.0069 C   0  0  0  0  0  0  0  0  0  0  0  0
    3.0412    1.6916   -6.0573 C   0  0  0  0  0  0  0  0  0  0  0  0
    2.3696    0.8484   -5.1843 C   0  0  0  0  0  0  0  0  0  0  0  0
    1.5439    1.3462   -4.1895 C   0  0  0  0  0  0  0  0  0  0  0  0
    1.2264    2.7335   -4.2163 C   0  0  0  0  0  0  0  0  0  0  0  0
    0.3143    3.2167   -3.3564 N   0  0  0  0  0  0  0  0  0  0  0  0
    0.0667    4.5040   -3.3502 C   0  0  0  0  0  0  0  0  0  0  0  0
   -0.8149    4.9950   -2.2823 C   0  0  0  0  0  0  0  0  0  0  0  0
   -2.0105    4.3403   -2.0054 C   0  0  0  0  0  0  0  0  0  0  0  0
   -2.8185    4.7748   -0.9717 C   0  0  0  0  0  0  0  0  0  0  0  0
   -2.4273    5.8470   -0.1875 C   0  0  0  0  0  0  0  0  0  0  0  0
   -1.2303    6.4926   -0.4492 C   0  0  0  0  0  0  0  0  0  0  0  0
   -0.4299    6.0779   -1.4962 C   0  0  0  0  0  0  0  0  0  0  0  0
    0.6777    5.3659   -4.3128 C   0  0  0  0  0  0  0  0  0  0  0  0
    1.5784    4.8992   -5.1475 N   0  0  0  0  0  0  0  0  0  0  0  0
    1.8979    3.5962   -5.1146 C   0  0  0  0  0  0  0  0  0  0  0  0
    0.3009    6.7756   -4.4556 C   0  0  0  0  0  0  0  0  0  0  0  0
   -1.0285    7.1814   -4.3489 C   0  0  0  0  0  0  0  0  0  0  0  0
   -1.3602    8.5140   -4.5014 C   0  0  0  0  0  0  0  0  0  0  0  0
   -0.3753    9.4546   -4.7577 C   0  0  0  0  0  0  0  0  0  0  0  0
    0.9453    9.0544   -4.8796 C   0  0  0  0  0  0  0  0  0  0  0  0
    1.2832    7.7219   -4.7374 C   0  0  0  0  0  0  0  0  0  0  0  0
    1.0896    0.5409   -3.0879 C   0  0  0  0  0  0  0  0  0  0  0  0
    1.0915    0.9015   -1.7486 C   0  0  0  0  0  0  0  0  0  0  0  0
    1.6424    2.0614   -1.2233 N   0  0  0  0  0  0  0  0  0  0  0  0
    1.0318    2.6618   -0.1199 C   0  0  0  0  0  0  0  0  0  0  0  0
   -0.3487    2.5697    0.0618 C   0  0  0  0  0  0  0  0  0  0  0  0
   -0.9450    3.1281    1.1697 C   0  0  0  0  0  0  0  0  0  0  0  0
   -0.1814    3.8109    2.1098 C   0  0  0  0  0  0  0  0  0  0  0  0
   -1.0389    4.4875    3.4992 S   0  0  0  0  0  0  0  0  0  0  0  0
    0.1085    5.7466    4.1316 C   0  0  0  0  0  0  0  0  0  0  0  0
    1.1915    3.9126    1.9346 C   0  0  0  0  0  0  0  0  0  0  0  0
    1.7915    3.3374    0.8327 C   0  0  0  0  0  0  0  0  0  0  0  0
    2.7665    2.6368   -1.8325 C   0  0  0  0  0  0  0  0  0  0  0  0
    2.9049    4.0204   -1.9309 C   0  0  0  0  0  0  0  0  0  0  0  0
    3.9612    4.5802   -2.6227 C   0  0  0  0  0  0  0  0  0  0  0  0
    4.9148    3.7630   -3.2146 C   0  0  0  0  0  0  0  0  0  0  0  0
    6.2699    4.3868   -4.1635 S   0  0  0  0  0  0  0  0  0  0  0  0
    6.5763    6.0028   -3.3888 C   0  0  0  0  0  0  0  0  0  0  0  0
    4.8102    2.3821   -3.0806 C   0  0  0  0  0  0  0  0  0  0  0  0
    3.7549    1.8258   -2.3931 C   0  0  0  0  0  0  0  0  0  0  0  0
    0.5769   -0.1493   -0.9504 C   0  0  0  0  0  0  0  0  0  0  0  0
    0.2227   -0.3157    0.7287 S   0  0  0  0  0  0  0  0  0  0  0  0
   -0.3539   -1.9643    0.4729 C   0  0  0  0  0  0  0  0  0  0  0  0
   -0.2764   -2.3515   -0.8594 C   0  0  0  0  0  0  0  0  0  0  0  0
   -0.6539   -3.5629   -1.4114 N   0  0  0  0  0  0  0  0  0  0  0  0
   -1.7710   -4.2805   -0.9712 C   0  0  0  0  0  0  0  0  0  0  0  0
   -2.8954   -3.6281   -0.4637 C   0  0  0  0  0  0  0  0  0  0  0  0
   -3.9562   -4.3552    0.0286 C   0  0  0  0  0  0  0  0  0  0  0  0
   -3.9346   -5.7482    0.0038 C   0  0  0  0  0  0  0  0  0  0  0  0
   -5.3246   -6.5844    0.6975 S   0  0  0  0  0  0  0  0  0  0  0  0
   -5.2340   -8.2394   -0.0462 C   0  0  0  0  0  0  0  0  0  0  0  0
   -2.8331   -6.4024   -0.5328 C   0  0  0  0  0  0  0  0  0  0  0  0
   -1.7622   -5.6741   -1.0111 C   0  0  0  0  0  0  0  0  0  0  0  0
    0.0993   -4.0460   -2.4949 C   0  0  0  0  0  0  0  0  0  0  0  0
    1.4885   -3.9603   -2.4757 C   0  0  0  0  0  0  0  0  0  0  0  0
    2.2392   -4.3992   -3.5491 C   0  0  0  0  0  0  0  0  0  0  0  0
    1.6086   -4.9408   -4.6604 C   0  0  0  0  0  0  0  0  0  0  0  0
    2.4572   -5.5336   -6.0896 S   0  0  0  0  0  0  0  0  0  0  0  0
    4.1670   -4.9743   -5.8432 C   0  0  0  0  0  0  0  0  0  0  0  0
    0.2183   -5.0485   -4.6742 C   0  0  0  0  0  0  0  0  0  0  0  0
   -0.5293   -4.6042   -3.6081 C   0  0  0  0  0  0  0  0  0  0  0  0
    0.2537   -1.2980   -1.6523 C   0  0  0  0  0  0  0  0  0  0  0  0
    0.5746   -1.1156   -3.3426 S   0  0  0  0  0  0  0  0  0  0  0  0
   -0.8438   -2.6196    1.6384 C   0  0  0  0  0  0  0  0  0  0  0  0
   -1.2867   -1.9807    2.7635 C   0  0  0  0  0  0  0  0  0  0  0  0
   -1.7065   -2.8461    3.7970 C   0  0  0  0  0  0  0  0  0  0  0  0
   -2.2442   -2.5065    5.0594 C   0  0  0  0  0  0  0  0  0  0  0  0
   -2.4032   -1.1331    5.4832 C   0  0  0  0  0  0  0  0  0  0  0  0
   -1.5915   -0.0658    5.2022 C   0  0  0  0  0  0  0  0  0  0  0  0
   -2.0245    1.1888    5.6722 C   0  0  0  0  0  0  0  0  0  0  0  0
   -3.2110    1.1664    6.3455 C   0  0  0  0  0  0  0  0  0  0  0  0
   -4.0653    2.5020    7.0844 S   0  0  0  0  0  0  0  0  0  0  0  0
   -3.7576    3.8497    5.8839 C   0  0  0  0  0  0  0  0  0  0  0  0
   -4.3537    3.5466    4.5255 C   0  0  0  0  0  0  0  0  0  0  0  0
   -3.9282   -0.5648    6.4604 Se  0  0  0  0  0  2  0  0  0  0  0  0
   -2.6497   -3.5786    5.8470 C   0  0  0  0  0  0  0  0  0  0  0  0
   -2.6307   -4.9305    5.4262 C   0  0  0  0  0  0  0  0  0  0  0  0
   -2.1575   -5.2582    4.1335 C   0  0  0  0  0  0  0  0  0  0  0  0
   -2.3230   -6.5757    3.5763 C   0  0  0  0  0  0  0  0  0  0  0  0
   -3.3821   -7.4224    3.7828 C   0  0  0  0  0  0  0  0  0  0  0  0
   -3.3492   -8.6359    3.0751 C   0  0  0  0  0  0  0  0  0  0  0  0
   -2.2556   -8.8045    2.2710 C   0  0  0  0  0  0  0  0  0  0  0  0
   -2.0491  -10.1695    1.1916 S   0  0  0  0  0  0  0  0  0  0  0  0
   -0.2766  -10.0411    0.7785 C   0  0  0  0  0  0  0  0  0  0  0  0
    0.6091  -10.4505    1.9369 C   0  0  0  0  0  0  0  0  0  0  0  0
   -1.1150   -7.3051    2.3350 Se  0  0  0  0  0  2  0  0  0  0  0  0
   -1.6208   -4.2033    3.4020 C   0  0  0  0  0  0  0  0  0  0  0  0
   -0.8991   -4.3577    1.8262 S   0  0  0  0  0  0  0  0  0  0  0  0
   -3.0794   -5.8025    6.4413 C   0  0  0  0  0  0  0  0  0  0  0  0
   -3.4897   -5.1643    7.5816 C   0  0  0  0  0  0  0  0  0  0  0  0
   -3.2431   -3.4291    7.4716 S   0  0  0  0  0  0  0  0  0  0  0  0
   -3.9891   -5.7722    8.7645 C   0  0  0  0  0  0  0  0  0  0  0  0
   -4.7372   -5.1944    9.7374 C   0  0  0  0  0  0  0  0  0  0  0  0
   -4.8012   -5.7872   11.1014 C   0  0  0  0  0  0  0  0  0  0  0  0
   -4.4897   -6.9124   11.4201 O   0  0  0  0  0  0  0  0  0  0  0  0
   -5.2569   -4.6879   11.9746 C   0  0  0  0  0  0  0  0  0  0  0  0
   -5.3408   -4.6959   13.3662 C   0  0  0  0  0  0  0  0  0  0  0  0
   -5.7748   -3.5102   13.9081 C   0  0  0  0  0  0  0  0  0  0  0  0
   -6.0945   -2.3890   13.1293 C   0  0  0  0  0  0  0  0  0  0  0  0
   -6.0211   -2.3648   11.7572 C   0  0  0  0  0  0  0  0  0  0  0  0
   -5.5918   -3.5657   11.1860 C   0  0  0  0  0  0  0  0  0  0  0  0
   -5.4380   -3.9253    9.7811 C   0  0  0  0  0  0  0  0  0  0  0  0
   -6.0711   -3.3272    8.7245 C   0  0  0  0  0  0  0  0  0  0  0  0
   -6.1407   -3.9171    7.4435 C   0  0  0  0  0  0  0  0  0  0  0  0
   -6.2713   -4.4070    6.4135 N   0  0  0  0  0  0  0  0  0  0  0  0
   -6.7944   -2.1211    8.8105 C   0  0  0  0  0  0  0  0  0  0  0  0
   -7.3798   -1.1336    8.8244 N   0  0  0  0  0  0  0  0  0  0  0  0
   -6.4493   -1.5538   14.3342 C   0  0  0  0  0  0  0  0  0  0  0  0
   -7.9541   -1.3552   14.6138 C   0  0  0  0  0  0  0  0  0  0  0  0
   -7.9997   -0.9349   16.0651 C   0  0  0  0  0  0  0  0  0  0  0  0
   -7.7012   -1.9970   16.8024 C   0  0  0  0  0  0  0  0  0  0  0  0
   -7.4487   -3.1531   15.8616 C   0  0  0  0  0  0  0  0  0  0  0  0
   -8.4397   -2.8047   14.7436 C   0  0  0  0  0  0  0  0  0  0  0  0
   -6.0974   -2.8045   15.2021 C   0  0  0  0  0  0  0  0  0  0  0  0
    3.3854    5.0464   -6.4242 H   0  0  0  0  0  0  0  0  0  0  0  0
    6.3559    1.5767  -10.7041 H   0  0  0  0  0  0  0  0  0  0  0  0
    6.6867    6.6172  -10.3237 H   0  0  0  0  0  0  0  0  0  0  0  0
    7.4676    5.6004  -13.4967 H   0  0  0  0  0  0  0  0  0  0  0  0
    9.7242    6.2161  -12.2222 H   0  0  0  0  0  0  0  0  0  0  0  0
   10.3157    5.5771  -14.7019 H   0  0  0  0  0  0  0  0  0  0  0  0
   10.1720    2.9345  -14.9317 H   0  0  0  0  0  0  0  0  0  0  0  0
    9.4937    1.9457  -12.5940 H   0  0  0  0  0  0  0  0  0  0  0  0
    9.4647    3.9495  -10.8033 H   0  0  0  0  0  0  0  0  0  0  0  0
   10.9895    3.9461  -11.7186 H   0  0  0  0  0  0  0  0  0  0  0  0
    7.3272    3.0096  -13.7222 H   0  0  0  0  0  0  0  0  0  0  0  0
    3.7420    1.2648   -6.7557 H   0  0  0  0  0  0  0  0  0  0  0  0
    2.5642   -0.2140   -5.2171 H   0  0  0  0  0  0  0  0  0  0  0  0
   -2.3003    3.4998   -2.6185 H   0  0  0  0  0  0  0  0  0  0  0  0
   -3.7531    4.2715   -0.7717 H   0  0  0  0  0  0  0  0  0  0  0  0
   -3.0525    6.1777    0.6284 H   0  0  0  0  0  0  0  0  0  0  0  0
   -0.9207    7.3273    0.1626 H   0  0  0  0  0  0  0  0  0  0  0  0
    0.5014    6.5870   -1.7010 H   0  0  0  0  0  0  0  0  0  0  0  0
   -1.8042    6.4514   -4.1701 H   0  0  0  0  0  0  0  0  0  0  0  0
   -2.3932    8.8196   -4.4226 H   0  0  0  0  0  0  0  0  0  0  0  0
   -0.6394   10.4957   -4.8705 H   0  0  0  0  0  0  0  0  0  0  0  0
    1.7158    9.7811   -5.0902 H   0  0  0  0  0  0  0  0  0  0  0  0
    2.3097    7.4032   -4.8355 H   0  0  0  0  0  0  0  0  0  0  0  0
   -0.9512    2.0758   -0.6834 H   0  0  0  0  0  0  0  0  0  0  0  0
   -2.0114    3.0499    1.3134 H   0  0  0  0  0  0  0  0  0  0  0  0
    0.4514    6.3654    3.3080 H   0  0  0  0  0  0  0  0  0  0  0  0
   -0.4632    6.3450    4.8343 H   0  0  0  0  0  0  0  0  0  0  0  0
    0.9433    5.2776    4.6450 H   0  0  0  0  0  0  0  0  0  0  0  0
    1.8087    4.4215    2.6580 H   0  0  0  0  0  0  0  0  0  0  0  0
    2.8630    3.4024    0.7149 H   0  0  0  0  0  0  0  0  0  0  0  0
    2.1570    4.6603   -1.4862 H   0  0  0  0  0  0  0  0  0  0  0  0
    4.0192    5.6526   -2.7206 H   0  0  0  0  0  0  0  0  0  0  0  0
    6.5653    5.8865   -2.3096 H   0  0  0  0  0  0  0  0  0  0  0  0
    7.5618    6.3120   -3.7229 H   0  0  0  0  0  0  0  0  0  0  0  0
    5.8326    6.7223   -3.7216 H   0  0  0  0  0  0  0  0  0  0  0  0
    5.5660    1.7522   -3.5232 H   0  0  0  0  0  0  0  0  0  0  0  0
    3.6890    0.7532   -2.2893 H   0  0  0  0  0  0  0  0  0  0  0  0
   -2.9270   -2.5488   -0.4447 H   0  0  0  0  0  0  0  0  0  0  0  0
   -4.8181   -3.8515    0.4385 H   0  0  0  0  0  0  0  0  0  0  0  0
   -6.1835   -8.7133    0.1820 H   0  0  0  0  0  0  0  0  0  0  0  0
   -4.4242   -8.8151    0.3920 H   0  0  0  0  0  0  0  0  0  0  0  0
   -5.1148   -8.1459   -1.1212 H   0  0  0  0  0  0  0  0  0  0  0  0
   -2.7928   -7.4801   -0.5696 H   0  0  0  0  0  0  0  0  0  0  0  0
   -0.8969   -6.1898   -1.4007 H   0  0  0  0  0  0  0  0  0  0  0  0
    1.9851   -3.5477   -1.6094 H   0  0  0  0  0  0  0  0  0  0  0  0
    3.3131   -4.3186   -3.5004 H   0  0  0  0  0  0  0  0  0  0  0  0
    4.1829   -3.8997   -5.6886 H   0  0  0  0  0  0  0  0  0  0  0  0
    4.6199   -5.5023   -5.0089 H   0  0  0  0  0  0  0  0  0  0  0  0
    4.6903   -5.2229   -6.7613 H   0  0  0  0  0  0  0  0  0  0  0  0
   -0.2651   -5.4731   -5.5405 H   0  0  0  0  0  0  0  0  0  0  0  0
   -1.6063   -4.6750   -3.6322 H   0  0  0  0  0  0  0  0  0  0  0  0
   -1.3657   -0.9104    2.8118 H   0  0  0  0  0  0  0  0  0  0  0  0
   -0.6416   -0.1777    4.7070 H   0  0  0  0  0  0  0  0  0  0  0  0
   -1.4561    2.0881    5.5077 H   0  0  0  0  0  0  0  0  0  0  0  0
   -2.6840    4.0179    5.8219 H   0  0  0  0  0  0  0  0  0  0  0  0
   -4.2310    4.7177    6.3413 H   0  0  0  0  0  0  0  0  0  0  0  0
   -4.1788    4.3858    3.8562 H   0  0  0  0  0  0  0  0  0  0  0  0
   -5.4241    3.3731    4.6088 H   0  0  0  0  0  0  0  0  0  0  0  0
   -3.8871    2.6630    4.0952 H   0  0  0  0  0  0  0  0  0  0  0  0
   -4.2206   -7.1482    4.3995 H   0  0  0  0  0  0  0  0  0  0  0  0
   -4.1291   -9.3743    3.1490 H   0  0  0  0  0  0  0  0  0  0  0  0
   -0.0939   -9.0047    0.4742 H   0  0  0  0  0  0  0  0  0  0  0  0
   -0.1422  -10.6990   -0.0795 H   0  0  0  0  0  0  0  0  0  0  0  0
    1.6543  -10.3892    1.6420 H   0  0  0  0  0  0  0  0  0  0  0  0
    0.3887  -11.4708    2.2422 H   0  0  0  0  0  0  0  0  0  0  0  0
    0.4516   -9.7894    2.7897 H   0  0  0  0  0  0  0  0  0  0  0  0
   -3.1069   -6.8725    6.3421 H   0  0  0  0  0  0  0  0  0  0  0  0
   -3.6766   -6.7957    8.9456 H   0  0  0  0  0  0  0  0  0  0  0  0
   -5.0782   -5.5756   13.9326 H   0  0  0  0  0  0  0  0  0  0  0  0
   -6.2551   -1.4963   11.1634 H   0  0  0  0  0  0  0  0  0  0  0  0
   -5.8669   -0.6445   14.4697 H   0  0  0  0  0  0  0  0  0  0  0  0
   -8.4681   -0.7160   13.9014 H   0  0  0  0  0  0  0  0  0  0  0  0
   -8.1833    0.0715   16.3929 H   0  0  0  0  0  0  0  0  0  0  0  0
   -7.5857   -2.0551   17.8689 H   0  0  0  0  0  0  0  0  0  0  0  0
   -7.5037   -4.1514   16.2875 H   0  0  0  0  0  0  0  0  0  0  0  0
   -9.4742   -2.8637   15.0778 H   0  0  0  0  0  0  0  0  0  0  0  0
   -8.3153   -3.3968   13.8390 H   0  0  0  0  0  0  0  0  0  0  0  0
   -5.2812   -2.7292   15.9185 H   0  0  0  0  0  0  0  0  0  0  0  0
  1  2  2  0  0  0  0
  2  3  1  0  0  0  0
  3  4  2  0  0  0  0
  3  5  1  0  0  0  0
  5  6  2  0  0  0  0
  6  7  1  0  0  0  0
  7  8  2  0  0  0  0
  8  9  1  0  0  0  0
  9 10  2  0  0  0  0
 10 11  1  0  0  0  0
 11 12  2  0  0  0  0
 12 13  1  0  0  0  0
 13 14  3  0  0  0  0
 12 15  1  0  0  0  0
 15 16  3  0  0  0  0
  8 17  1  0  0  0  0
 17 18  1  0  0  0  0
 18 19  1  0  0  0  0
 19 20  2  0  0  0  0
 20 21  1  0  0  0  0
 21 22  1  0  0  0  0
 21 23  1  0  0  0  0
  1 24  1  0  0  0  0
 24 25  2  0  0  0  0
 25 26  1  0  0  0  0
 26 27  2  0  0  0  0
 27 28  1  0  0  0  0
 28 29  2  0  0  0  0
 29 30  1  0  0  0  0
 30 31  1  0  0  0  0
 31 32  2  0  0  0  0
 32 33  1  0  0  0  0
 33 34  2  0  0  0  0
 34 35  1  0  0  0  0
 35 36  2  0  0  0  0
 30 37  2  0  0  0  0
 37 38  1  0  0  0  0
 38 39  2  0  0  0  0
 37 40  1  0  0  0  0
 40 41  2  0  0  0  0
 41 42  1  0  0  0  0
 42 43  2  0  0  0  0
 43 44  1  0  0  0  0
 44 45  2  0  0  0  0
 27 46  1  0  0  0  0
 46 47  2  0  0  0  0
 47 48  1  0  0  0  0
 48 49  1  0  0  0  0
 49 50  2  0  0  0  0
 50 51  1  0  0  0  0
 51 52  2  0  0  0  0
 52 53  1  0  0  0  0
 53 54  1  0  0  0  0
 52 55  1  0  0  0  0
 55 56  2  0  0  0  0
 48 57  1  0  0  0  0
 57 58  2  0  0  0  0
 58 59  1  0  0  0  0
 59 60  2  0  0  0  0
 60 61  1  0  0  0  0
 61 62  1  0  0  0  0
 60 63  1  0  0  0  0
 63 64  2  0  0  0  0
 47 65  1  0  0  0  0
 65 66  1  0  0  0  0
 66 67  1  0  0  0  0
 67 68  2  0  0  0  0
 68 69  1  0  0  0  0
 69 70  1  0  0  0  0
 70 71  2  0  0  0  0
 71 72  1  0  0  0  0
 72 73  2  0  0  0  0
 73 74  1  0  0  0  0
 74 75  1  0  0  0  0
 73 76  1  0  0  0  0
 76 77  2  0  0  0  0
 69 78  1  0  0  0  0
 78 79  2  0  0  0  0
 79 80  1  0  0  0  0
 80 81  2  0  0  0  0
 81 82  1  0  0  0  0
 82 83  1  0  0  0  0
 81 84  1  0  0  0  0
 84 85  2  0  0  0  0
 68 86  1  0  0  0  0
 86 87  1  0  0  0  0
 67 88  1  0  0  0  0
 88 89  2  0  0  0  0
 89 90  1  0  0  0  0
 90 91  2  0  0  0  0
 91 92  1  0  0  0  0
 92 93  2  0  0  0  0
 93 94  1  0  0  0  0
 94 95  2  0  0  0  0
 95 96  1  0  0  0  0
 96 97  1  0  0  0  0
 97 98  1  0  0  0  0
 95 99  1  0  0  0  0
 91100  1  0  0  0  0
100101  2  0  0  0  0
101102  1  0  0  0  0
102103  1  0  0  0  0
103104  2  0  0  0  0
104105  1  0  0  0  0
105106  2  0  0  0  0
106107  1  0  0  0  0
107108  1  0  0  0  0
108109  1  0  0  0  0
106110  1  0  0  0  0
102111  2  0  0  0  0
111112  1  0  0  0  0
101113  1  0  0  0  0
113114  2  0  0  0  0
114115  1  0  0  0  0
114116  1  0  0  0  0
116117  2  0  0  0  0
117118  1  0  0  0  0
118119  2  0  0  0  0
118120  1  0  0  0  0
120121  2  0  0  0  0
121122  1  0  0  0  0
122123  2  0  0  0  0
123124  1  0  0  0  0
124125  2  0  0  0  0
125126  1  0  0  0  0
126127  2  0  0  0  0
127128  1  0  0  0  0
128129  3  0  0  0  0
127130  1  0  0  0  0
130131  3  0  0  0  0
123132  1  0  0  0  0
132133  1  0  0  0  0
133134  1  0  0  0  0
134135  2  0  0  0  0
135136  1  0  0  0  0
136137  1  0  0  0  0
136138  1  0  0  0  0
 11  2  1  0  0  0  0
 23 17  1  0  0  0  0
 39 24  1  0  0  0  0
 45 40  1  0  0  0  0
 87 46  1  0  0  0  0
112 88  1  0  0  0  0
126117  1  0  0  0  0
138132  1  0  0  0  0
 10  5  1  0  0  0  0
 22 18  1  0  0  0  0
 39 28  1  0  0  0  0
 56 49  1  0  0  0  0
 64 57  1  0  0  0  0
 86 65  2  0  0  0  0
111 90  1  0  0  0  0
125120  1  0  0  0  0
137133  1  0  0  0  0
 23  7  1  0  0  0  0
 36 31  1  0  0  0  0
 77 70  1  0  0  0  0
 85 78  1  0  0  0  0
 99 92  1  0  0  0  0
115100  1  0  0  0  0
138122  1  0  0  0  0
110103  1  0  0  0  0
  1139  1  0  0  0  0
  6140  1  0  0  0  0
  9141  1  0  0  0  0
 17142  1  0  0  0  0
 18143  1  0  0  0  0
 19144  1  0  0  0  0
 20145  1  0  0  0  0
 21146  1  0  0  0  0
 22147  1  0  0  0  0
 22148  1  0  0  0  0
 23149  1  0  0  0  0
 25150  1  0  0  0  0
 26151  1  0  0  0  0
 32152  1  0  0  0  0
 33153  1  0  0  0  0
 34154  1  0  0  0  0
 35155  1  0  0  0  0
 36156  1  0  0  0  0
 41157  1  0  0  0  0
 42158  1  0  0  0  0
 43159  1  0  0  0  0
 44160  1  0  0  0  0
 45161  1  0  0  0  0
 50162  1  0  0  0  0
 51163  1  0  0  0  0
 54164  1  0  0  0  0
 54165  1  0  0  0  0
 54166  1  0  0  0  0
 55167  1  0  0  0  0
 56168  1  0  0  0  0
 58169  1  0  0  0  0
 59170  1  0  0  0  0
 62171  1  0  0  0  0
 62172  1  0  0  0  0
 62173  1  0  0  0  0
 63174  1  0  0  0  0
 64175  1  0  0  0  0
 71176  1  0  0  0  0
 72177  1  0  0  0  0
 75178  1  0  0  0  0
 75179  1  0  0  0  0
 75180  1  0  0  0  0
 76181  1  0  0  0  0
 77182  1  0  0  0  0
 79183  1  0  0  0  0
 80184  1  0  0  0  0
 83185  1  0  0  0  0
 83186  1  0  0  0  0
 83187  1  0  0  0  0
 84188  1  0  0  0  0
 85189  1  0  0  0  0
 89190  1  0  0  0  0
 93191  1  0  0  0  0
 94192  1  0  0  0  0
 97193  1  0  0  0  0
 97194  1  0  0  0  0
 98195  1  0  0  0  0
 98196  1  0  0  0  0
 98197  1  0  0  0  0
104198  1  0  0  0  0
105199  1  0  0  0  0
108200  1  0  0  0  0
108201  1  0  0  0  0
109202  1  0  0  0  0
109203  1  0  0  0  0
109204  1  0  0  0  0
113205  1  0  0  0  0
116206  1  0  0  0  0
121207  1  0  0  0  0
124208  1  0  0  0  0
132209  1  0  0  0  0
133210  1  0  0  0  0
134211  1  0  0  0  0
135212  1  0  0  0  0
136213  1  0  0  0  0
137214  1  0  0  0  0
137215  1  0  0  0  0
138216  1  0  0  0  0
M  END
