221

C         -7.95460       -1.11250       -0.80220
C         -8.66470       -1.87780        0.09520
C         -8.21370       -2.17540        1.46500
O         -7.15880       -1.85330        1.98060
C         -9.35730       -2.83680        2.12780
C         -9.41340       -3.30820        3.43520
C        -10.60850       -3.90360        3.76550
C        -11.67270       -4.01800        2.86320
C        -11.63210       -3.55250        1.56980
C        -10.42620       -2.94540        1.21670
C        -10.00320       -2.37490       -0.05890
C        -10.69150       -2.45310       -1.24520
C        -10.15450       -2.07340       -2.49030
N         -9.77050       -1.84630       -3.54990
C        -11.97760       -3.00450       -1.39510
N        -13.01900       -3.44210       -1.60560
C        -12.55610       -4.71450        3.86780
C        -13.67250       -3.88390        4.54720
C        -13.20840       -2.44870        4.53270
C        -12.20000       -2.34050        5.38730
C        -11.96430       -3.70090        5.99560
C        -13.40330       -4.24050        6.01790
C        -11.36910       -4.58810        4.87420
C         -6.56820       -0.92370       -0.80470
C         -5.51700       -1.72640       -0.31630
N         -5.62580       -3.01250        0.13570
C         -4.66060       -3.52950        1.01880
C         -4.17950       -2.76230        2.07870
C         -3.21800       -3.27230        2.92090
C         -2.72710       -4.56310        2.73050
S         -1.46470       -5.09370        3.84070
C         -1.23890       -6.85240        3.44140
C         -3.23230       -5.34340        1.69860
C         -4.18810       -4.82620        0.84610
C         -6.67280       -3.85250       -0.26750
C         -7.29260       -4.69440        0.65840
C         -8.37180       -5.46340        0.28330
C         -8.85310       -5.42110       -1.02460
S        -10.29310       -6.37320       -1.36550
C        -10.68220       -5.99110       -3.09540
C         -8.19150       -4.63970       -1.96680
C         -7.11660       -3.86300       -1.58810
C         -4.27240       -1.06960       -0.47860
S         -2.62660       -1.50900       -0.15130
C         -2.07890        0.01980       -0.79040
C         -3.10260        0.77400       -1.35240
N         -2.91590        1.91430       -2.11200
C         -1.77150        2.02740       -2.91530
C         -1.29260        0.92210       -3.61830
C         -0.12280        1.00400       -4.34410
C          0.58740        2.19720       -4.38600
S          2.13320        2.34490       -5.23860
C          1.82160        1.39530       -6.76210
C          0.09970        3.31160       -3.71310
C         -1.07200        3.23180       -2.99070
C         -3.85700        2.94920       -2.05490
C         -4.52140        3.23810       -0.86260
C         -5.46340        4.24020       -0.81910
C         -5.75910        4.98460       -1.95940
S         -6.98350        6.24160       -1.77730
C         -7.11770        6.96980       -3.43460
C         -5.09000        4.70920       -3.14470
C         -4.15120        3.69760       -3.19060
C         -4.35300        0.15070       -1.13880
S         -5.96960        0.54630       -1.58850
C         -0.68850        0.36840       -0.70630
C         -0.25670        1.66450       -0.47450
F         -1.15480        2.63100       -0.19450
C          1.09340        2.00930       -0.44560
F          1.40980        3.31140       -0.32080
C          2.09650        1.06100       -0.55380
C          1.69050       -0.28000       -0.79230
N          2.62430       -1.23050       -0.93100
C          2.26150       -2.48070       -1.09500
C          3.38650       -3.46590       -1.21250
C          3.62330       -4.19290        0.11270
C          0.88330       -2.82970       -1.13840
N         -0.03900       -1.90170       -1.03300
C          0.31950       -0.62550       -0.84690
C          0.37220       -4.23050       -1.28960
C         -0.28380       -4.69630        0.01150
C          3.48510        1.38270       -0.37500
C          4.04040        2.25190        0.55710
N          3.36350        2.81960        1.61520
C          2.23950        2.18660        2.16380
C          1.11600        2.92930        2.51780
C         -0.06060        2.29720        2.87120
C         -0.13270        0.91050        2.87280
S         -1.62700        0.01280        3.15420
C         -2.90770        1.21670        2.69070
C          1.02040        0.16580        2.63160
C          2.19550        0.79600        2.29080
C          3.81450        4.05530        2.10640
C          3.96330        4.25430        3.47580
C          4.52300        5.42480        3.94310
C          4.93660        6.40280        3.04850
S          5.76730        7.86400        3.61830
C          7.08330        7.07590        4.60160
C          4.72220        6.23890        1.68790
C          4.16350        5.06940        1.21730
C          5.43240        2.40140        0.33660
S          6.66920        3.33510        1.10030
C          7.86040        2.70660       -0.04340
C          7.30390        1.72240       -0.90280
N          7.99070        0.98100       -1.82660
C          7.24580        0.44850       -2.90120
C          7.24730       -0.92140       -3.14800
C          6.38460       -1.44730       -4.08840
C          5.52940       -0.60700       -4.78380
S          4.24880       -1.31370       -5.80710
C          2.97760       -1.34700       -4.49980
C          5.59280        0.76620       -4.61510
C          6.45330        1.29450       -3.67340
C          9.31320        0.53820       -1.65340
C         10.12750        0.36870       -2.77340
C         11.42560       -0.06480       -2.62500
C         11.94430       -0.32710       -1.35860
S         13.62700       -0.84590       -1.29110
C         14.02340       -0.82160        0.48100
C         11.12640       -0.18400       -0.24340
C          9.81990        0.23560       -0.39190
C          5.91870        1.60090       -0.69190
S          4.67580        0.59840       -1.37700
C          9.15120        3.20240       -0.19210
C          9.86100        4.11440        0.55980
C          9.44420        4.71790        1.82660
O          8.36790        4.61380        2.39300
C         10.61080        5.48000        2.31490
C         10.75040        6.21510        3.47590
C         11.95610        6.85550        3.71670
C         12.99090        6.74650        2.79640
Cl        14.48200        7.55070        3.11080
C         12.86520        6.00540        1.62460
C         11.66150        5.36570        1.38780
C         11.21080        4.53440        0.26900
C         11.95710        4.24000       -0.84650
C         13.30330        4.62100       -1.02040
N         14.40520        4.87810       -1.21680
C         11.49940        3.54740       -1.98440
N         11.19920        3.02350       -2.96320
H         -8.50210       -0.56280       -1.55910
H         -8.56930       -3.20590        4.09990
H        -12.45870       -3.64380        0.88480
H        -12.88970       -5.71400        3.59570
H        -14.67130       -4.06940        4.16140
H        -13.61010       -1.69600        3.87980
H        -11.59050       -1.47950        5.59080
H        -11.40830       -3.71940        6.92950
H        -13.46320       -5.30850        6.22320
H        -14.04660       -3.69660        6.70810
H        -10.92960       -5.50570        5.26100
H         -4.59440       -1.78260        2.24920
H         -2.83600       -2.67690        3.73510
H         -2.18330       -7.37830        3.54300
H         -0.52830       -7.22810        4.17080
H         -0.83070       -6.96100        2.44090
H         -2.88340       -6.35040        1.53750
H         -4.56730       -5.43130        0.03560
H         -6.93320       -4.72230        1.67570
H         -8.87200       -6.08990        1.00560
H        -11.61570       -6.50570       -3.30050
H        -10.82200       -4.92180       -3.22220
H         -9.89940       -6.36910       -3.74650
H         -8.50980       -4.61740       -2.99600
H         -6.62290       -3.24930       -2.32650
H         -1.83540       -0.01090       -3.58280
H          0.23390        0.13560       -4.87580
H          1.97230        0.33360       -6.59540
H          2.54340        1.75170       -7.49010
H          0.81260        1.60100       -7.10390
H          0.65380        4.23660       -3.74970
H         -1.44090        4.09530       -2.45820
H         -4.28650        2.68070        0.03130
H         -5.97870        4.46450        0.10210
H         -6.16940        7.41280       -3.72490
H         -7.87480        7.74330       -3.35210
H         -7.43830        6.21510       -4.14680
H         -5.29480        5.26700       -4.04390
H         -3.64360        3.48100       -4.11900
H          3.18070       -4.19070       -2.00260
H          4.28580       -2.90440       -1.47360
H          2.75320       -4.77680        0.40080
H          3.83180       -3.47210        0.89960
H          4.47460       -4.86290        0.02180
H         -0.38560       -4.23100       -2.07550
H          1.17260       -4.91210       -1.57330
H          0.43520       -4.70920        0.82790
H         -0.68830       -5.69740       -0.11610
H         -1.09260       -4.02150        0.27930
H          1.15430        4.00700        2.46590
H         -0.92400        2.89660        3.11080
H         -3.05800        1.93900        3.48800
H         -2.61830        1.70970        1.76780
H         -3.81770        0.64350        2.54160
H          0.97310       -0.91080        2.69460
H          3.07840        0.21110        2.07980
H          3.66010        3.47860        4.16360
H          4.65540        5.56960        5.00410
H          6.69920        6.76070        5.56750
H          7.85170        7.83050        4.73840
H          7.46590        6.22930        4.03820
H          5.01360        7.02230        1.00590
H          4.00490        4.92460        0.15920
H          7.89150       -1.56850       -2.57150
H          6.34540       -2.51210       -4.26090
H          3.34000       -1.93910       -3.66560
H          2.09110       -1.80600       -4.92600
H          2.77030       -0.33280       -4.16920
H          4.94620        1.41230       -5.18830
H          6.48970        2.36000       -3.50480
H          9.74100        0.59520       -3.75430
H         12.06120       -0.18200       -3.48800
H         15.08770       -1.02610        0.54310
H         13.47030       -1.59690        1.00330
H         13.81280        0.16150        0.89170
H         11.49030       -0.40750        0.74650
H          9.18960        0.33570        0.47940
H          9.67700        2.79710       -1.04680
H          9.93460        6.28510        4.17810
H         12.09880        7.43930        4.61220
H         13.69340        5.94600        0.93820
