
  xtb     02152222153D
 energy: -288.684219086568 gnorm: 0.000798560636 xtb: 6.4.1 (unknown)
171189  0     0  0            999 V2000
   -3.7419    1.3139    1.0135 C   0  0  0  0  0  0  0  0  0  0  0  0
   -4.7059    2.2791    1.1868 C   0  0  0  0  0  0  0  0  0  0  0  0
   -4.4775    3.6963    1.4734 C   0  0  0  0  0  0  0  0  0  0  0  0
   -3.4072    4.2680    1.6164 O   0  0  0  0  0  0  0  0  0  0  0  0
   -5.8060    4.3313    1.5107 C   0  0  0  0  0  0  0  0  0  0  0  0
   -6.0930    5.6656    1.7864 C   0  0  0  0  0  0  0  0  0  0  0  0
   -7.4319    5.9713    1.7399 C   0  0  0  0  0  0  0  0  0  0  0  0
   -8.4147    5.0180    1.4456 C   0  0  0  0  0  0  0  0  0  0  0  0
   -8.1457    3.6948    1.1852 C   0  0  0  0  0  0  0  0  0  0  0  0
   -6.7892    3.3629    1.2231 C   0  0  0  0  0  0  0  0  0  0  0  0
   -6.1275    2.0726    1.0277 C   0  0  0  0  0  0  0  0  0  0  0  0
   -6.7684    0.8883    0.7522 C   0  0  0  0  0  0  0  0  0  0  0  0
   -6.1632   -0.3811    0.6680 C   0  0  0  0  0  0  0  0  0  0  0  0
   -5.7659   -1.4590    0.6120 N   0  0  0  0  0  0  0  0  0  0  0  0
   -8.1544    0.7658    0.5263 C   0  0  0  0  0  0  0  0  0  0  0  0
   -9.2684    0.5878    0.3098 N   0  0  0  0  0  0  0  0  0  0  0  0
   -9.5351    6.0212    1.5589 C   0  0  0  0  0  0  0  0  0  0  0  0
  -10.1526    6.5632    0.2460 C   0  0  0  0  0  0  0  0  0  0  0  0
   -9.0782    6.4614   -0.8078 C   0  0  0  0  0  0  0  0  0  0  0  0
   -8.1481    7.3643   -0.5265 C   0  0  0  0  0  0  0  0  0  0  0  0
   -8.5769    8.0928    0.7231 C   0  0  0  0  0  0  0  0  0  0  0  0
  -10.1026    8.0713    0.5388 C   0  0  0  0  0  0  0  0  0  0  0  0
   -8.4395    7.0833    1.8898 C   0  0  0  0  0  0  0  0  0  0  0  0
   -2.3557    1.3763    1.1522 C   0  0  0  0  0  0  0  0  0  0  0  0
   -1.5161    0.2645    0.9134 C   0  0  0  0  0  0  0  0  0  0  0  0
   -1.8911   -0.9534    0.3991 N   0  0  0  0  0  0  0  0  0  0  0  0
   -2.7514   -1.1136   -0.6974 C   0  0  0  0  0  0  0  0  0  0  0  0
   -3.4344   -2.3210   -0.8526 C   0  0  0  0  0  0  0  0  0  0  0  0
   -4.2163   -2.5382   -1.9635 C   0  0  0  0  0  0  0  0  0  0  0  0
   -4.3484   -1.5516   -2.9381 C   0  0  0  0  0  0  0  0  0  0  0  0
   -5.3381   -1.9577   -4.3423 S   0  0  0  0  0  0  0  0  0  0  0  0
   -5.6011   -0.3621   -5.1659 C   0  0  0  0  0  0  0  0  0  0  0  0
   -3.6866   -0.3410   -2.7779 C   0  0  0  0  0  0  0  0  0  0  0  0
   -2.8908   -0.1269   -1.6697 C   0  0  0  0  0  0  0  0  0  0  0  0
   -1.1089   -2.0674    0.7772 C   0  0  0  0  0  0  0  0  0  0  0  0
   -0.4787   -2.8463   -0.1878 C   0  0  0  0  0  0  0  0  0  0  0  0
    0.3381   -3.8941    0.1834 C   0  0  0  0  0  0  0  0  0  0  0  0
    0.5462   -4.1667    1.5285 C   0  0  0  0  0  0  0  0  0  0  0  0
    1.6394   -5.4444    2.0711 S   0  0  0  0  0  0  0  0  0  0  0  0
    2.8546   -5.5296    0.7235 C   0  0  0  0  0  0  0  0  0  0  0  0
   -0.1250   -3.4244    2.4959 C   0  0  0  0  0  0  0  0  0  0  0  0
   -0.9438   -2.3796    2.1248 C   0  0  0  0  0  0  0  0  0  0  0  0
   -0.1862    0.5578    1.2544 C   0  0  0  0  0  0  0  0  0  0  0  0
    1.2753   -0.3583    1.1521 S   0  0  0  0  0  0  0  0  0  0  0  0
    2.1946    1.0652    1.5907 C   0  0  0  0  0  0  0  0  0  0  0  0
    1.4032    2.1565    1.9095 C   0  0  0  0  0  0  0  0  0  0  0  0
    1.8929    3.3209    2.4540 N   0  0  0  0  0  0  0  0  0  0  0  0
    3.1002    3.3006    3.1718 C   0  0  0  0  0  0  0  0  0  0  0  0
    3.4106    2.2306    4.0081 C   0  0  0  0  0  0  0  0  0  0  0  0
    4.6418    2.1551    4.6261 C   0  0  0  0  0  0  0  0  0  0  0  0
    5.5829    3.1559    4.4247 C   0  0  0  0  0  0  0  0  0  0  0  0
    7.2087    3.1136    5.1155 S   0  0  0  0  0  0  0  0  0  0  0  0
    7.4296    1.3598    5.5393 C   0  0  0  0  0  0  0  0  0  0  0  0
    5.2493    4.2622    3.6475 C   0  0  0  0  0  0  0  0  0  0  0  0
    4.0207    4.3367    3.0276 C   0  0  0  0  0  0  0  0  0  0  0  0
    1.1673    4.5122    2.3071 C   0  0  0  0  0  0  0  0  0  0  0  0
    0.5668    4.8171    1.0891 C   0  0  0  0  0  0  0  0  0  0  0  0
   -0.2429    5.9277    0.9676 C   0  0  0  0  0  0  0  0  0  0  0  0
   -0.4587    6.7489    2.0648 C   0  0  0  0  0  0  0  0  0  0  0  0
   -1.5557    8.1312    2.0022 S   0  0  0  0  0  0  0  0  0  0  0  0
   -2.7838    7.5595    0.7879 C   0  0  0  0  0  0  0  0  0  0  0  0
    0.2048    6.4924    3.2611 C   0  0  0  0  0  0  0  0  0  0  0  0
    1.0114    5.3825    3.3843 C   0  0  0  0  0  0  0  0  0  0  0  0
    0.0282    1.8606    1.6906 C   0  0  0  0  0  0  0  0  0  0  0  0
   -1.4404    2.7771    1.7246 S   0  0  0  0  0  0  0  0  0  0  0  0
    3.6241    0.9042    1.4756 C   0  0  0  0  0  0  0  0  0  0  0  0
    4.4547    1.7533    0.7675 C   0  0  0  0  0  0  0  0  0  0  0  0
    3.9936    2.9421    0.3382 F   0  0  0  0  0  0  0  0  0  0  0  0
    5.7161    1.3362    0.3169 C   0  0  0  0  0  0  0  0  0  0  0  0
    6.3997    2.1542   -0.5018 F   0  0  0  0  0  0  0  0  0  0  0  0
    6.1810    0.0560    0.5474 C   0  0  0  0  0  0  0  0  0  0  0  0
    5.4393   -0.7630    1.4411 C   0  0  0  0  0  0  0  0  0  0  0  0
    5.9072   -1.9715    1.7944 N   0  0  0  0  0  0  0  0  0  0  0  0
    5.2048   -2.7133    2.6108 C   0  0  0  0  0  0  0  0  0  0  0  0
    5.7823   -4.0517    2.9554 C   0  0  0  0  0  0  0  0  0  0  0  0
    6.7949   -3.9253    4.0963 C   0  0  0  0  0  0  0  0  0  0  0  0
    3.9921   -2.2232    3.1823 C   0  0  0  0  0  0  0  0  0  0  0  0
    3.5075   -1.0661    2.8090 N   0  0  0  0  0  0  0  0  0  0  0  0
    4.1877   -0.3247    1.9223 C   0  0  0  0  0  0  0  0  0  0  0  0
    3.2439   -2.9686    4.2429 C   0  0  0  0  0  0  0  0  0  0  0  0
    2.1943   -2.1000    4.9246 C   0  0  0  0  0  0  0  0  0  0  0  0
    7.1291   -0.6180   -0.3284 C   0  0  0  0  0  0  0  0  0  0  0  0
    8.3766   -0.3825   -0.8684 C   0  0  0  0  0  0  0  0  0  0  0  0
    8.6112   -1.4310   -1.7674 C   0  0  0  0  0  0  0  0  0  0  0  0
    7.4768   -2.2374   -1.7430 C   0  0  0  0  0  0  0  0  0  0  0  0
    6.6105   -1.7337   -0.8495 O   0  0  0  0  0  0  0  0  0  0  0  0
    7.0832   -3.3000   -2.5957 C   0  0  0  0  0  0  0  0  0  0  0  0
    5.8262   -3.8140   -2.7161 C   0  0  0  0  0  0  0  0  0  0  0  0
    4.6053   -3.4430   -1.9468 C   0  0  0  0  0  0  0  0  0  0  0  0
    4.5005   -3.0713   -0.7975 O   0  0  0  0  0  0  0  0  0  0  0  0
    3.4776   -3.7418   -2.8496 C   0  0  0  0  0  0  0  0  0  0  0  0
    2.1557   -3.3324   -2.6882 C   0  0  0  0  0  0  0  0  0  0  0  0
    1.3114   -3.7635   -3.6834 C   0  0  0  0  0  0  0  0  0  0  0  0
    1.7552   -4.5404   -4.7637 C   0  0  0  0  0  0  0  0  0  0  0  0
    3.0599   -4.9388   -4.9407 C   0  0  0  0  0  0  0  0  0  0  0  0
    3.9357   -4.5110   -3.9364 C   0  0  0  0  0  0  0  0  0  0  0  0
    5.3811   -4.6789   -3.8024 C   0  0  0  0  0  0  0  0  0  0  0  0
    6.1633   -5.5219   -4.5428 C   0  0  0  0  0  0  0  0  0  0  0  0
    7.5494   -5.7031   -4.3469 C   0  0  0  0  0  0  0  0  0  0  0  0
    8.6733   -5.9054   -4.2307 N   0  0  0  0  0  0  0  0  0  0  0  0
    5.6709   -6.3637   -5.5624 C   0  0  0  0  0  0  0  0  0  0  0  0
    5.3265   -7.0700   -6.3988 N   0  0  0  0  0  0  0  0  0  0  0  0
    0.3859   -4.5823   -5.3964 C   0  0  0  0  0  0  0  0  0  0  0  0
   -0.4223   -5.8871   -5.2353 C   0  0  0  0  0  0  0  0  0  0  0  0
   -1.8445   -5.4657   -5.5299 C   0  0  0  0  0  0  0  0  0  0  0  0
   -2.2674   -4.7276   -4.5117 C   0  0  0  0  0  0  0  0  0  0  0  0
   -1.1393   -4.6420   -3.5083 C   0  0  0  0  0  0  0  0  0  0  0  0
   -0.4974   -6.0204   -3.7092 C   0  0  0  0  0  0  0  0  0  0  0  0
   -0.1091   -3.7169   -4.1918 C   0  0  0  0  0  0  0  0  0  0  0  0
   -4.1007    0.3320    0.7316 H   0  0  0  0  0  0  0  0  0  0  0  0
   -5.3083    6.3669    2.0220 H   0  0  0  0  0  0  0  0  0  0  0  0
   -8.9155    2.9726    0.9711 H   0  0  0  0  0  0  0  0  0  0  0  0
  -10.2885    5.8120    2.3156 H   0  0  0  0  0  0  0  0  0  0  0  0
  -11.1174    6.1337   -0.0097 H   0  0  0  0  0  0  0  0  0  0  0  0
   -9.0766    5.7268   -1.5917 H   0  0  0  0  0  0  0  0  0  0  0  0
   -7.2137    7.5348   -1.0289 H   0  0  0  0  0  0  0  0  0  0  0  0
   -8.1079    9.0568    0.9020 H   0  0  0  0  0  0  0  0  0  0  0  0
  -10.6518    8.3577    1.4347 H   0  0  0  0  0  0  0  0  0  0  0  0
  -10.4337    8.6755   -0.3045 H   0  0  0  0  0  0  0  0  0  0  0  0
   -8.4765    7.5670    2.8639 H   0  0  0  0  0  0  0  0  0  0  0  0
   -3.3506   -3.0827   -0.0938 H   0  0  0  0  0  0  0  0  0  0  0  0
   -4.7459   -3.4704   -2.0812 H   0  0  0  0  0  0  0  0  0  0  0  0
   -6.0002    0.3539   -4.4536 H   0  0  0  0  0  0  0  0  0  0  0  0
   -6.3305   -0.5525   -5.9470 H   0  0  0  0  0  0  0  0  0  0  0  0
   -4.6750   -0.0067   -5.6088 H   0  0  0  0  0  0  0  0  0  0  0  0
   -3.7656    0.4390   -3.5182 H   0  0  0  0  0  0  0  0  0  0  0  0
   -2.3638    0.8102   -1.5653 H   0  0  0  0  0  0  0  0  0  0  0  0
   -0.6183   -2.6095   -1.2321 H   0  0  0  0  0  0  0  0  0  0  0  0
    0.8164   -4.4876   -0.5789 H   0  0  0  0  0  0  0  0  0  0  0  0
    2.4284   -6.0312   -0.1409 H   0  0  0  0  0  0  0  0  0  0  0  0
    3.1941   -4.5280    0.4737 H   0  0  0  0  0  0  0  0  0  0  0  0
    3.6827   -6.1167    1.1087 H   0  0  0  0  0  0  0  0  0  0  0  0
    0.0067   -3.6717    3.5372 H   0  0  0  0  0  0  0  0  0  0  0  0
   -1.4503   -1.7892    2.8736 H   0  0  0  0  0  0  0  0  0  0  0  0
    2.6914    1.4413    4.1663 H   0  0  0  0  0  0  0  0  0  0  0  0
    4.8537    1.3106    5.2621 H   0  0  0  0  0  0  0  0  0  0  0  0
    8.4876    1.2387    5.7507 H   0  0  0  0  0  0  0  0  0  0  0  0
    7.1464    0.7428    4.6910 H   0  0  0  0  0  0  0  0  0  0  0  0
    6.8497    1.1067    6.4223 H   0  0  0  0  0  0  0  0  0  0  0  0
    5.9745    5.0502    3.5161 H   0  0  0  0  0  0  0  0  0  0  0  0
    3.7784    5.1802    2.3995 H   0  0  0  0  0  0  0  0  0  0  0  0
    0.7428    4.1806    0.2348 H   0  0  0  0  0  0  0  0  0  0  0  0
   -0.7043    6.1420    0.0174 H   0  0  0  0  0  0  0  0  0  0  0  0
   -3.6730    8.1609    0.9521 H   0  0  0  0  0  0  0  0  0  0  0  0
   -2.9883    6.5082    0.9720 H   0  0  0  0  0  0  0  0  0  0  0  0
   -2.4211    7.7193   -0.2238 H   0  0  0  0  0  0  0  0  0  0  0  0
    0.0568    7.1562    4.0989 H   0  0  0  0  0  0  0  0  0  0  0  0
    1.5017    5.1655    4.3217 H   0  0  0  0  0  0  0  0  0  0  0  0
    6.2955   -4.4295    2.0702 H   0  0  0  0  0  0  0  0  0  0  0  0
    4.9891   -4.7459    3.2333 H   0  0  0  0  0  0  0  0  0  0  0  0
    7.5962   -3.2502    3.8066 H   0  0  0  0  0  0  0  0  0  0  0  0
    7.2235   -4.8978    4.3247 H   0  0  0  0  0  0  0  0  0  0  0  0
    6.3245   -3.5360    4.9969 H   0  0  0  0  0  0  0  0  0  0  0  0
    3.9501   -3.3521    4.9824 H   0  0  0  0  0  0  0  0  0  0  0  0
    2.7597   -3.8334    3.7783 H   0  0  0  0  0  0  0  0  0  0  0  0
    1.6456   -2.6831    5.6601 H   0  0  0  0  0  0  0  0  0  0  0  0
    1.5002   -1.7070    4.1880 H   0  0  0  0  0  0  0  0  0  0  0  0
    2.6668   -1.2599    5.4281 H   0  0  0  0  0  0  0  0  0  0  0  0
    9.0268    0.4365   -0.6391 H   0  0  0  0  0  0  0  0  0  0  0  0
    9.4801   -1.5770   -2.3768 H   0  0  0  0  0  0  0  0  0  0  0  0
    7.8471   -3.6212   -3.2909 H   0  0  0  0  0  0  0  0  0  0  0  0
    1.8720   -2.7097   -1.8538 H   0  0  0  0  0  0  0  0  0  0  0  0
    3.3888   -5.5127   -5.7911 H   0  0  0  0  0  0  0  0  0  0  0  0
    0.3193   -4.1641   -6.3990 H   0  0  0  0  0  0  0  0  0  0  0  0
   -0.0349   -6.7340   -5.7945 H   0  0  0  0  0  0  0  0  0  0  0  0
   -2.3595   -5.6936   -6.4442 H   0  0  0  0  0  0  0  0  0  0  0  0
   -3.2039   -4.2125   -4.4046 H   0  0  0  0  0  0  0  0  0  0  0  0
   -1.4174   -4.3614   -2.4963 H   0  0  0  0  0  0  0  0  0  0  0  0
   -1.1546   -6.8300   -3.3975 H   0  0  0  0  0  0  0  0  0  0  0  0
    0.4734   -6.1336   -3.2285 H   0  0  0  0  0  0  0  0  0  0  0  0
   -0.5043   -2.7224   -4.3934 H   0  0  0  0  0  0  0  0  0  0  0  0
  1  2  2  0  0  0  0
  2  3  1  0  0  0  0
  3  4  2  0  0  0  0
  3  5  1  0  0  0  0
  5  6  2  0  0  0  0
  6  7  1  0  0  0  0
  7  8  2  0  0  0  0
  8  9  1  0  0  0  0
  9 10  2  0  0  0  0
 10 11  1  0  0  0  0
 11 12  2  0  0  0  0
 12 13  1  0  0  0  0
 13 14  3  0  0  0  0
 12 15  1  0  0  0  0
 15 16  3  0  0  0  0
  8 17  1  0  0  0  0
 17 18  1  0  0  0  0
 18 19  1  0  0  0  0
 19 20  2  0  0  0  0
 20 21  1  0  0  0  0
 21 22  1  0  0  0  0
 21 23  1  0  0  0  0
  1 24  1  0  0  0  0
 24 25  2  0  0  0  0
 25 26  1  0  0  0  0
 26 27  1  0  0  0  0
 27 28  2  0  0  0  0
 28 29  1  0  0  0  0
 29 30  2  0  0  0  0
 30 31  1  0  0  0  0
 31 32  1  0  0  0  0
 30 33  1  0  0  0  0
 33 34  2  0  0  0  0
 26 35  1  0  0  0  0
 35 36  2  0  0  0  0
 36 37  1  0  0  0  0
 37 38  2  0  0  0  0
 38 39  1  0  0  0  0
 39 40  1  0  0  0  0
 38 41  1  0  0  0  0
 41 42  2  0  0  0  0
 25 43  1  0  0  0  0
 43 44  1  0  0  0  0
 44 45  1  0  0  0  0
 45 46  2  0  0  0  0
 46 47  1  0  0  0  0
 47 48  1  0  0  0  0
 48 49  2  0  0  0  0
 49 50  1  0  0  0  0
 50 51  2  0  0  0  0
 51 52  1  0  0  0  0
 52 53  1  0  0  0  0
 51 54  1  0  0  0  0
 54 55  2  0  0  0  0
 47 56  1  0  0  0  0
 56 57  2  0  0  0  0
 57 58  1  0  0  0  0
 58 59  2  0  0  0  0
 59 60  1  0  0  0  0
 60 61  1  0  0  0  0
 59 62  1  0  0  0  0
 62 63  2  0  0  0  0
 46 64  1  0  0  0  0
 64 65  1  0  0  0  0
 45 66  1  0  0  0  0
 66 67  2  0  0  0  0
 67 68  1  0  0  0  0
 67 69  1  0  0  0  0
 69 70  1  0  0  0  0
 69 71  2  0  0  0  0
 71 72  1  0  0  0  0
 72 73  2  0  0  0  0
 73 74  1  0  0  0  0
 74 75  1  0  0  0  0
 75 76  1  0  0  0  0
 74 77  2  0  0  0  0
 77 78  1  0  0  0  0
 78 79  2  0  0  0  0
 77 80  1  0  0  0  0
 80 81  1  0  0  0  0
 71 82  1  0  0  0  0
 82 83  2  0  0  0  0
 83 84  1  0  0  0  0
 84 85  2  0  0  0  0
 85 86  1  0  0  0  0
 85 87  1  0  0  0  0
 87 88  2  0  0  0  0
 88 89  1  0  0  0  0
 89 90  2  0  0  0  0
 89 91  1  0  0  0  0
 91 92  2  0  0  0  0
 92 93  1  0  0  0  0
 93 94  2  0  0  0  0
 94 95  1  0  0  0  0
 95 96  2  0  0  0  0
 96 97  1  0  0  0  0
 97 98  2  0  0  0  0
 98 99  1  0  0  0  0
 99100  3  0  0  0  0
 98101  1  0  0  0  0
101102  3  0  0  0  0
 94103  1  0  0  0  0
103104  1  0  0  0  0
104105  1  0  0  0  0
105106  2  0  0  0  0
106107  1  0  0  0  0
107108  1  0  0  0  0
107109  1  0  0  0  0
 11  2  1  0  0  0  0
 23 17  1  0  0  0  0
 65 24  1  0  0  0  0
 79 66  1  0  0  0  0
 86 82  1  0  0  0  0
 97 88  1  0  0  0  0
109103  1  0  0  0  0
 10  5  1  0  0  0  0
 22 18  1  0  0  0  0
 34 27  1  0  0  0  0
 42 35  1  0  0  0  0
 64 43  2  0  0  0  0
 79 72  1  0  0  0  0
 96 91  1  0  0  0  0
108104  1  0  0  0  0
 23  7  1  0  0  0  0
 55 48  1  0  0  0  0
 63 56  1  0  0  0  0
109 93  1  0  0  0  0
  1110  1  0  0  0  0
  6111  1  0  0  0  0
  9112  1  0  0  0  0
 17113  1  0  0  0  0
 18114  1  0  0  0  0
 19115  1  0  0  0  0
 20116  1  0  0  0  0
 21117  1  0  0  0  0
 22118  1  0  0  0  0
 22119  1  0  0  0  0
 23120  1  0  0  0  0
 28121  1  0  0  0  0
 29122  1  0  0  0  0
 32123  1  0  0  0  0
 32124  1  0  0  0  0
 32125  1  0  0  0  0
 33126  1  0  0  0  0
 34127  1  0  0  0  0
 36128  1  0  0  0  0
 37129  1  0  0  0  0
 40130  1  0  0  0  0
 40131  1  0  0  0  0
 40132  1  0  0  0  0
 41133  1  0  0  0  0
 42134  1  0  0  0  0
 49135  1  0  0  0  0
 50136  1  0  0  0  0
 53137  1  0  0  0  0
 53138  1  0  0  0  0
 53139  1  0  0  0  0
 54140  1  0  0  0  0
 55141  1  0  0  0  0
 57142  1  0  0  0  0
 58143  1  0  0  0  0
 61144  1  0  0  0  0
 61145  1  0  0  0  0
 61146  1  0  0  0  0
 62147  1  0  0  0  0
 63148  1  0  0  0  0
 75149  1  0  0  0  0
 75150  1  0  0  0  0
 76151  1  0  0  0  0
 76152  1  0  0  0  0
 76153  1  0  0  0  0
 80154  1  0  0  0  0
 80155  1  0  0  0  0
 81156  1  0  0  0  0
 81157  1  0  0  0  0
 81158  1  0  0  0  0
 83159  1  0  0  0  0
 84160  1  0  0  0  0
 87161  1  0  0  0  0
 92162  1  0  0  0  0
 95163  1  0  0  0  0
103164  1  0  0  0  0
104165  1  0  0  0  0
105166  1  0  0  0  0
106167  1  0  0  0  0
107168  1  0  0  0  0
108169  1  0  0  0  0
108170  1  0  0  0  0
109171  1  0  0  0  0
M  END
