142

C          6.25920       -0.97130        1.07990
C          6.09760       -2.16730        1.72880
C          4.85210       -2.51670        2.44470
O          3.83420       -1.85700        2.51440
C          5.12750       -3.80170        3.11390
C          4.25580       -4.53350        3.91690
C          4.78430       -5.70960        4.39120
C          6.08850       -6.12820        4.09550
C          6.96040       -5.41670        3.30740
C          6.43920       -4.21880        2.80980
C          7.04940       -3.23290        1.92210
C          8.25820       -3.36190        1.28400
C          8.73500       -2.45450        0.31750
N          9.14860       -1.77490       -0.51190
C          9.14360       -4.44560        1.44500
N          9.91330       -5.29470        1.52010
C          5.95100       -7.39540        4.90260
C          6.62740       -7.41010        6.28950
C          5.93580       -8.53970        7.01800
C          4.70080       -8.14320        7.29780
C          4.53710       -6.73890        6.76290
C          5.96130       -6.20880        6.97280
C          4.49650       -6.92910        5.23160
C          5.17480       -0.18860        0.76790
C          4.15740        0.36200        0.37540
C          3.02770        0.96510       -0.10610
C          1.75510        0.39330       -0.26070
N          1.43930       -0.92320       -0.07490
C          0.09090       -1.29570        0.13380
C         -0.67410       -0.71440        1.13930
C         -1.97670       -1.12640        1.35510
C         -2.52550       -2.13350        0.57080
S         -4.15370       -2.76920        0.78020
C         -4.60160       -2.25470        2.46290
C         -1.76470       -2.70150       -0.45150
C         -0.47090       -2.28890       -0.66800
C          2.37350       -1.96720       -0.15650
C          3.42410       -1.94080       -1.07040
C          4.34730       -2.96530       -1.11490
C          4.22080       -4.05460       -0.26220
S          5.37720       -5.38640       -0.17640
C          6.60190       -4.99970       -1.45990
C          3.12350       -4.12620        0.59320
C          2.21800       -3.09120        0.65530
C          0.83620        1.37380       -0.71170
S         -0.87130        1.36690       -0.99570
C         -0.80100        3.05590       -1.50890
C          0.48910        3.59170       -1.43910
N          0.79680        4.89170       -1.73340
C          2.06530        5.24860       -2.20760
C          2.63470        6.46450       -1.82720
C          3.88200        6.81700       -2.28740
C          4.59300        5.96680       -3.13490
S          6.18560        6.52150       -3.64740
C          6.88470        5.09280       -4.52280
C          4.01910        4.76790       -3.53470
C          2.76370        4.41630       -3.07810
C         -0.20010        5.88440       -1.60580
C         -0.94310        5.97620       -0.43470
C         -1.97560        6.88520       -0.33210
C         -2.27400        7.71720       -1.40330
S         -3.62460        8.85160       -1.40890
C         -4.65000        8.28480       -0.02210
C         -1.48500        7.67250       -2.55130
C         -0.45380        6.76470       -2.65360
C          1.40180        2.61670       -0.97480
S          3.09420        2.65270       -0.62820
C         -1.96740        3.68570       -1.85920
C         -3.06010        4.17150       -2.10860
C         -4.31570        4.65490       -2.38620
C         -5.46310        4.02560       -1.99200
C         -6.77390        4.30870       -2.62540
O         -7.06070        5.26630       -3.30870
C         -7.62540        3.14960       -2.28020
C         -8.91190        2.87920       -2.73920
C         -9.43420        1.69360       -2.27850
C         -8.72640        0.82740       -1.43420
C         -7.45940        1.08310       -0.96640
C         -6.91910        2.29160       -1.41000
C         -5.63160        2.90520       -1.09940
C         -4.84520        2.60670       -0.01510
C         -3.79120        3.41430        0.45440
N         -2.99000        4.06060        0.96420
C         -5.09720        1.55960        0.88830
N         -5.23930        0.74110        1.68210
C         -9.85090       -0.17580       -1.38750
C        -10.72430       -0.21730       -0.10960
C        -10.65530        1.16090        0.50020
C        -11.32810        1.98690       -0.28990
C        -11.86430        1.18230       -1.44800
C        -12.12140       -0.16170       -0.74770
C        -10.64390        0.79380       -2.31960
H          7.23440       -0.62370        0.76520
H          3.25720       -4.17640        4.11550
H          7.96010       -5.75130        3.08550
H          6.08790       -8.32360        4.35130
H          7.71350       -7.43540        6.26630
H          6.38260       -9.49970        7.19890
H          3.91020       -8.70570        7.75900
H          3.71870       -6.15190        7.17140
H          6.15610       -5.25620        6.48380
H          6.22290       -6.13760        8.02740
H          3.66440       -7.54840        4.90140
H         -0.24130        0.05170        1.76550
H         -2.55490       -0.65640        2.13420
H         -3.79960       -2.52250        3.14390
H         -5.50030       -2.81230        2.70820
H         -4.81010       -1.18950        2.48060
H         -2.20350       -3.47320       -1.06490
H          0.12160       -2.73800       -1.45130
H          3.52530       -1.11460       -1.75760
H          5.15910       -2.90140       -1.82140
H          7.35010       -5.78370       -1.39160
H          7.06400       -4.03520       -1.26840
H          6.13160       -5.02120       -2.43860
H          3.01080       -4.99040        1.22980
H          1.39370       -3.13910        1.34900
H          2.09250        7.12120       -1.16400
H          4.32910        7.75270       -1.98940
H          6.87760        4.22370       -3.87200
H          6.33340        4.90720       -5.44020
H          7.90760        5.36840       -4.75990
H          4.53090        4.10160       -4.20980
H          2.31420        3.49410       -3.41640
H         -0.73300        5.31820        0.39370
H         -2.54040        6.92230        0.58410
H         -4.18600        8.54790        0.92410
H         -5.59680        8.80580       -0.12480
H         -4.80480        7.21260       -0.09900
H         -1.70640        8.34270       -3.36750
H          0.14350        6.71500       -3.55180
H         -4.40580        5.53020       -3.01920
H         -9.42130        3.56370       -3.39930
H         -6.91550        0.40650       -0.32720
H         -9.61820       -1.16940       -1.76520
H        -10.50980       -1.04850        0.55670
H        -10.09250        1.39670        1.38440
H        -11.44060        3.05130       -0.19730
H        -12.68940        1.62550       -1.99920
H        -12.31560       -0.98090       -1.43870
H        -12.91990       -0.10590       -0.00940
H        -10.93650        0.43150       -3.30330
