
  xtb     02062210583D
 energy: -283.279922362162 gnorm: 0.000992479979 xtb: 6.4.1 (unknown)
160179  0     0  0            999 V2000
   -2.8619    6.8450    2.7111 C   0  0  0  0  0  0  0  0  0  0  0  0
   -2.0704    7.8891    2.3423 C   0  0  0  0  0  0  0  0  0  0  0  0
   -1.0221    7.8258    1.2910 C   0  0  0  0  0  0  0  0  0  0  0  0
   -0.6690    6.8616    0.6437 O   0  0  0  0  0  0  0  0  0  0  0  0
   -0.5981    9.2205    1.0703 C   0  0  0  0  0  0  0  0  0  0  0  0
    0.3596    9.6658    0.1621 C   0  0  0  0  0  0  0  0  0  0  0  0
    0.5379   11.0282    0.1574 C   0  0  0  0  0  0  0  0  0  0  0  0
   -0.1949   11.8908    0.9842 C   0  0  0  0  0  0  0  0  0  0  0  0
   -1.1504   11.4672    1.8768 C   0  0  0  0  0  0  0  0  0  0  0  0
   -1.3374   10.0821    1.9067 C   0  0  0  0  0  0  0  0  0  0  0  0
   -2.2295    9.2753    2.7312 C   0  0  0  0  0  0  0  0  0  0  0  0
   -2.9909    9.7250    3.7796 C   0  0  0  0  0  0  0  0  0  0  0  0
   -3.7141    8.8861    4.6519 C   0  0  0  0  0  0  0  0  0  0  0  0
   -4.2912    8.2608    5.4237 N   0  0  0  0  0  0  0  0  0  0  0  0
   -3.1086   11.0771    4.1609 C   0  0  0  0  0  0  0  0  0  0  0  0
   -3.2516   12.1588    4.5189 N   0  0  0  0  0  0  0  0  0  0  0  0
    0.5048   13.1184    0.4577 C   0  0  0  0  0  0  0  0  0  0  0  0
    1.6008   13.7573    1.3463 C   0  0  0  0  0  0  0  0  0  0  0  0
    2.1526   12.6503    2.2102 C   0  0  0  0  0  0  0  0  0  0  0  0
    2.8474   11.8346    1.4285 C   0  0  0  0  0  0  0  0  0  0  0  0
    2.7776   12.3752    0.0216 C   0  0  0  0  0  0  0  0  0  0  0  0
    2.7317   13.8836    0.3130 C   0  0  0  0  0  0  0  0  0  0  0  0
    1.3222   12.1574   -0.4621 C   0  0  0  0  0  0  0  0  0  0  0  0
   -2.5298    5.4671    2.5230 C   0  0  0  0  0  0  0  0  0  0  0  0
   -3.4907    4.5047    2.2304 C   0  0  0  0  0  0  0  0  0  0  0  0
   -3.1711    3.1669    2.0576 C   0  0  0  0  0  0  0  0  0  0  0  0
   -4.1519    2.3611    1.5936 F   0  0  0  0  0  0  0  0  0  0  0  0
   -1.8967    2.6321    2.2573 C   0  0  0  0  0  0  0  0  0  0  0  0
   -0.8963    3.6065    2.5260 C   0  0  0  0  0  0  0  0  0  0  0  0
   -1.1971    5.0004    2.6685 C   0  0  0  0  0  0  0  0  0  0  0  0
   -0.1144    5.7085    2.9829 N   0  0  0  0  0  0  0  0  0  0  0  0
    1.1606    4.7345    3.0248 S   0  0  0  0  0  0  0  0  0  0  0  0
    0.3984    3.3543    2.7001 N   0  0  0  0  0  0  0  0  0  0  0  0
   -1.5285    1.2608    2.1641 C   0  0  0  0  0  0  0  0  0  0  0  0
   -2.2766    0.0803    2.2849 C   0  0  0  0  0  0  0  0  0  0  0  0
   -3.5335   -0.0564    2.8176 N   0  0  0  0  0  0  0  0  0  0  0  0
   -4.0766    0.8244    3.7594 C   0  0  0  0  0  0  0  0  0  0  0  0
   -5.4615    1.0010    3.8158 C   0  0  0  0  0  0  0  0  0  0  0  0
   -6.0071    1.9535    4.6444 C   0  0  0  0  0  0  0  0  0  0  0  0
   -5.1883    2.7539    5.4400 C   0  0  0  0  0  0  0  0  0  0  0  0
   -5.9602    4.0360    6.3723 S   0  0  0  0  0  0  0  0  0  0  0  0
   -4.6021    5.2100    6.6461 C   0  0  0  0  0  0  0  0  0  0  0  0
   -3.8201    2.5155    5.4581 C   0  0  0  0  0  0  0  0  0  0  0  0
   -3.2720    1.5574    4.6287 C   0  0  0  0  0  0  0  0  0  0  0  0
   -4.2497   -1.2254    2.4784 C   0  0  0  0  0  0  0  0  0  0  0  0
   -4.4670   -1.5464    1.1394 C   0  0  0  0  0  0  0  0  0  0  0  0
   -5.0534   -2.7465    0.8052 C   0  0  0  0  0  0  0  0  0  0  0  0
   -5.4279   -3.6474    1.8003 C   0  0  0  0  0  0  0  0  0  0  0  0
   -6.0673   -5.1963    1.2546 S   0  0  0  0  0  0  0  0  0  0  0  0
   -6.2060   -6.1716    2.7797 C   0  0  0  0  0  0  0  0  0  0  0  0
   -5.2754   -3.2976    3.1360 C   0  0  0  0  0  0  0  0  0  0  0  0
   -4.6920   -2.0919    3.4711 C   0  0  0  0  0  0  0  0  0  0  0  0
   -1.5038   -1.0341    1.8643 C   0  0  0  0  0  0  0  0  0  0  0  0
   -1.8134   -2.7297    1.6988 S   0  0  0  0  0  0  0  0  0  0  0  0
   -0.1831   -3.0005    1.0961 C   0  0  0  0  0  0  0  0  0  0  0  0
    0.5949   -1.8370    1.1444 C   0  0  0  0  0  0  0  0  0  0  0  0
    1.9464   -1.7083    0.8857 N   0  0  0  0  0  0  0  0  0  0  0  0
    2.3761   -0.4114    0.5209 C   0  0  0  0  0  0  0  0  0  0  0  0
    3.2882    0.2913    1.3072 C   0  0  0  0  0  0  0  0  0  0  0  0
    3.5023    1.6324    1.0763 C   0  0  0  0  0  0  0  0  0  0  0  0
    2.8171    2.2865    0.0564 C   0  0  0  0  0  0  0  0  0  0  0  0
    2.9403    4.0470   -0.0364 S   0  0  0  0  0  0  0  0  0  0  0  0
    1.2781    4.4848   -0.6315 C   0  0  0  0  0  0  0  0  0  0  0  0
    2.0215    1.5552   -0.8169 C   0  0  0  0  0  0  0  0  0  0  0  0
    1.7983    0.2133   -0.5811 C   0  0  0  0  0  0  0  0  0  0  0  0
    2.8968   -2.6502    1.2904 C   0  0  0  0  0  0  0  0  0  0  0  0
    4.1291   -2.6919    0.6386 C   0  0  0  0  0  0  0  0  0  0  0  0
    5.0817   -3.6277    0.9856 C   0  0  0  0  0  0  0  0  0  0  0  0
    4.8184   -4.5487    1.9920 C   0  0  0  0  0  0  0  0  0  0  0  0
    5.9473   -5.7974    2.5123 S   0  0  0  0  0  0  0  0  0  0  0  0
    7.2615   -5.7415    1.2615 C   0  0  0  0  0  0  0  0  0  0  0  0
    3.5961   -4.4963    2.6606 C   0  0  0  0  0  0  0  0  0  0  0  0
    2.6470   -3.5606    2.3185 C   0  0  0  0  0  0  0  0  0  0  0  0
   -0.1929   -0.7291    1.5397 C   0  0  0  0  0  0  0  0  0  0  0  0
    0.1558    0.9466    1.7836 S   0  0  0  0  0  0  0  0  0  0  0  0
    0.1040   -4.2949    0.5736 C   0  0  0  0  0  0  0  0  0  0  0  0
    1.2133   -4.6205   -0.2001 C   0  0  0  0  0  0  0  0  0  0  0  0
    1.4167   -5.9031   -0.6979 C   0  0  0  0  0  0  0  0  0  0  0  0
    2.5883   -6.1139   -1.3212 F   0  0  0  0  0  0  0  0  0  0  0  0
    0.5466   -6.9726   -0.5132 C   0  0  0  0  0  0  0  0  0  0  0  0
   -0.5953   -6.6735    0.2722 C   0  0  0  0  0  0  0  0  0  0  0  0
   -0.8203   -5.3557    0.7939 C   0  0  0  0  0  0  0  0  0  0  0  0
   -1.9637   -5.2773    1.4661 N   0  0  0  0  0  0  0  0  0  0  0  0
   -2.6922   -6.7139    1.4331 S   0  0  0  0  0  0  0  0  0  0  0  0
   -1.5880   -7.5066    0.5746 N   0  0  0  0  0  0  0  0  0  0  0  0
    0.7579   -8.2997   -1.0123 C   0  0  0  0  0  0  0  0  0  0  0  0
    1.2584   -8.6010   -2.2376 C   0  0  0  0  0  0  0  0  0  0  0  0
    1.3012   -7.6493   -3.3823 C   0  0  0  0  0  0  0  0  0  0  0  0
    0.9996   -6.4760   -3.3839 O   0  0  0  0  0  0  0  0  0  0  0  0
    1.6594   -8.4643   -4.5582 C   0  0  0  0  0  0  0  0  0  0  0  0
    1.7971   -8.0143   -5.8702 C   0  0  0  0  0  0  0  0  0  0  0  0
    2.1272   -8.9996   -6.7687 C   0  0  0  0  0  0  0  0  0  0  0  0
    2.3016  -10.3390   -6.3934 C   0  0  0  0  0  0  0  0  0  0  0  0
    2.1666  -10.7975   -5.1054 C   0  0  0  0  0  0  0  0  0  0  0  0
    1.8335   -9.8090   -4.1728 C   0  0  0  0  0  0  0  0  0  0  0  0
    1.6172   -9.9162   -2.7343 C   0  0  0  0  0  0  0  0  0  0  0  0
    1.8034  -11.0382   -1.9708 C   0  0  0  0  0  0  0  0  0  0  0  0
    2.1768  -12.2993   -2.4796 C   0  0  0  0  0  0  0  0  0  0  0  0
    2.4656  -13.3544   -2.8288 N   0  0  0  0  0  0  0  0  0  0  0  0
    1.6816  -11.0831   -0.5654 C   0  0  0  0  0  0  0  0  0  0  0  0
    1.6245  -11.2004    0.5754 N   0  0  0  0  0  0  0  0  0  0  0  0
    2.6077  -10.7780   -7.8037 C   0  0  0  0  0  0  0  0  0  0  0  0
    1.4721  -11.4951   -8.5642 C   0  0  0  0  0  0  0  0  0  0  0  0
    1.8744  -11.3702  -10.0160 C   0  0  0  0  0  0  0  0  0  0  0  0
    1.7119  -10.1023  -10.3720 C   0  0  0  0  0  0  0  0  0  0  0  0
    1.1967   -9.3490   -9.1669 C   0  0  0  0  0  0  0  0  0  0  0  0
    0.3519  -10.4483   -8.5100 C   0  0  0  0  0  0  0  0  0  0  0  0
    2.4155   -9.2849   -8.2219 C   0  0  0  0  0  0  0  0  0  0  0  0
   -3.8203    7.0443    3.1754 H   0  0  0  0  0  0  0  0  0  0  0  0
    0.8987    8.9699   -0.4617 H   0  0  0  0  0  0  0  0  0  0  0  0
   -1.7150   12.1421    2.4985 H   0  0  0  0  0  0  0  0  0  0  0  0
   -0.1301   13.8632   -0.0179 H   0  0  0  0  0  0  0  0  0  0  0  0
    1.2914   14.6611    1.8642 H   0  0  0  0  0  0  0  0  0  0  0  0
    1.9396   12.5462    3.2579 H   0  0  0  0  0  0  0  0  0  0  0  0
    3.3309   10.9123    1.6923 H   0  0  0  0  0  0  0  0  0  0  0  0
    3.5400   12.0212   -0.6674 H   0  0  0  0  0  0  0  0  0  0  0  0
    3.6583   14.2569    0.7463 H   0  0  0  0  0  0  0  0  0  0  0  0
    2.4623   14.4853   -0.5539 H   0  0  0  0  0  0  0  0  0  0  0  0
    1.2212   12.2740   -1.5394 H   0  0  0  0  0  0  0  0  0  0  0  0
   -4.5157    4.8018    2.0667 H   0  0  0  0  0  0  0  0  0  0  0  0
   -6.0973    0.4185    3.1671 H   0  0  0  0  0  0  0  0  0  0  0  0
   -7.0737    2.1145    4.6619 H   0  0  0  0  0  0  0  0  0  0  0  0
   -3.9754    4.8799    7.4698 H   0  0  0  0  0  0  0  0  0  0  0  0
   -5.0662    6.1598    6.8913 H   0  0  0  0  0  0  0  0  0  0  0  0
   -4.0263    5.3147    5.7316 H   0  0  0  0  0  0  0  0  0  0  0  0
   -3.1699    3.0744    6.1122 H   0  0  0  0  0  0  0  0  0  0  0  0
   -2.2072    1.3816    4.6589 H   0  0  0  0  0  0  0  0  0  0  0  0
   -4.1557   -0.8546    0.3716 H   0  0  0  0  0  0  0  0  0  0  0  0
   -5.2094   -3.0107   -0.2291 H   0  0  0  0  0  0  0  0  0  0  0  0
   -5.2453   -6.1992    3.2853 H   0  0  0  0  0  0  0  0  0  0  0  0
   -6.9810   -5.7596    3.4195 H   0  0  0  0  0  0  0  0  0  0  0  0
   -6.4870   -7.1712    2.4632 H   0  0  0  0  0  0  0  0  0  0  0  0
   -5.5891   -3.9605    3.9255 H   0  0  0  0  0  0  0  0  0  0  0  0
   -4.5518   -1.8289    4.5092 H   0  0  0  0  0  0  0  0  0  0  0  0
    3.7720   -0.2048    2.1351 H   0  0  0  0  0  0  0  0  0  0  0  0
    4.1582    2.1992    1.7182 H   0  0  0  0  0  0  0  0  0  0  0  0
    1.2455    4.4616   -1.7169 H   0  0  0  0  0  0  0  0  0  0  0  0
    0.5623    3.7878   -0.2065 H   0  0  0  0  0  0  0  0  0  0  0  0
    1.0622    5.4886   -0.2779 H   0  0  0  0  0  0  0  0  0  0  0  0
    1.5471    2.0320   -1.6599 H   0  0  0  0  0  0  0  0  0  0  0  0
    1.1345   -0.3484   -1.2219 H   0  0  0  0  0  0  0  0  0  0  0  0
    4.3347   -1.9873   -0.1539 H   0  0  0  0  0  0  0  0  0  0  0  0
    6.0210   -3.6322    0.4574 H   0  0  0  0  0  0  0  0  0  0  0  0
    7.9172   -6.5759    1.4901 H   0  0  0  0  0  0  0  0  0  0  0  0
    7.8144   -4.8096    1.3368 H   0  0  0  0  0  0  0  0  0  0  0  0
    6.8306   -5.8696    0.2730 H   0  0  0  0  0  0  0  0  0  0  0  0
    3.4026   -5.2020    3.4536 H   0  0  0  0  0  0  0  0  0  0  0  0
    1.7102   -3.5272    2.8528 H   0  0  0  0  0  0  0  0  0  0  0  0
    1.9479   -3.8795   -0.4601 H   0  0  0  0  0  0  0  0  0  0  0  0
    0.4306   -9.0918   -0.3508 H   0  0  0  0  0  0  0  0  0  0  0  0
    1.6553   -6.9732   -6.1148 H   0  0  0  0  0  0  0  0  0  0  0  0
    2.3011  -11.8308   -4.8322 H   0  0  0  0  0  0  0  0  0  0  0  0
    3.5806  -11.2413   -7.9559 H   0  0  0  0  0  0  0  0  0  0  0  0
    1.2432  -12.4941   -8.2036 H   0  0  0  0  0  0  0  0  0  0  0  0
    2.2754  -12.1784  -10.5990 H   0  0  0  0  0  0  0  0  0  0  0  0
    1.9502   -9.6398  -11.3119 H   0  0  0  0  0  0  0  0  0  0  0  0
    0.7159   -8.3929   -9.3562 H   0  0  0  0  0  0  0  0  0  0  0  0
   -0.5041  -10.7299   -9.1212 H   0  0  0  0  0  0  0  0  0  0  0  0
    0.0167  -10.2082   -7.5028 H   0  0  0  0  0  0  0  0  0  0  0  0
    3.2611   -8.7518   -8.6527 H   0  0  0  0  0  0  0  0  0  0  0  0
  1  2  2  0  0  0  0
  2  3  1  0  0  0  0
  3  4  2  0  0  0  0
  3  5  1  0  0  0  0
  5  6  2  0  0  0  0
  6  7  1  0  0  0  0
  7  8  2  0  0  0  0
  8  9  1  0  0  0  0
  9 10  2  0  0  0  0
 10 11  1  0  0  0  0
 11 12  2  0  0  0  0
 12 13  1  0  0  0  0
 13 14  3  0  0  0  0
 12 15  1  0  0  0  0
 15 16  3  0  0  0  0
  8 17  1  0  0  0  0
 17 18  1  0  0  0  0
 18 19  1  0  0  0  0
 19 20  2  0  0  0  0
 20 21  1  0  0  0  0
 21 22  1  0  0  0  0
 21 23  1  0  0  0  0
  1 24  1  0  0  0  0
 24 25  2  0  0  0  0
 25 26  1  0  0  0  0
 26 27  1  0  0  0  0
 26 28  2  0  0  0  0
 28 29  1  0  0  0  0
 29 30  1  0  0  0  0
 30 31  2  0  0  0  0
 31 32  1  0  0  0  0
 32 33  1  0  0  0  0
 28 34  1  0  0  0  0
 34 35  2  0  0  0  0
 35 36  1  0  0  0  0
 36 37  1  0  0  0  0
 37 38  2  0  0  0  0
 38 39  1  0  0  0  0
 39 40  2  0  0  0  0
 40 41  1  0  0  0  0
 41 42  1  0  0  0  0
 40 43  1  0  0  0  0
 43 44  2  0  0  0  0
 36 45  1  0  0  0  0
 45 46  2  0  0  0  0
 46 47  1  0  0  0  0
 47 48  2  0  0  0  0
 48 49  1  0  0  0  0
 49 50  1  0  0  0  0
 48 51  1  0  0  0  0
 51 52  2  0  0  0  0
 35 53  1  0  0  0  0
 53 54  1  0  0  0  0
 54 55  1  0  0  0  0
 55 56  2  0  0  0  0
 56 57  1  0  0  0  0
 57 58  1  0  0  0  0
 58 59  2  0  0  0  0
 59 60  1  0  0  0  0
 60 61  2  0  0  0  0
 61 62  1  0  0  0  0
 62 63  1  0  0  0  0
 61 64  1  0  0  0  0
 64 65  2  0  0  0  0
 57 66  1  0  0  0  0
 66 67  2  0  0  0  0
 67 68  1  0  0  0  0
 68 69  2  0  0  0  0
 69 70  1  0  0  0  0
 70 71  1  0  0  0  0
 69 72  1  0  0  0  0
 72 73  2  0  0  0  0
 56 74  1  0  0  0  0
 74 75  1  0  0  0  0
 55 76  1  0  0  0  0
 76 77  2  0  0  0  0
 77 78  1  0  0  0  0
 78 79  1  0  0  0  0
 78 80  2  0  0  0  0
 80 81  1  0  0  0  0
 81 82  1  0  0  0  0
 82 83  2  0  0  0  0
 83 84  1  0  0  0  0
 84 85  1  0  0  0  0
 80 86  1  0  0  0  0
 86 87  2  0  0  0  0
 87 88  1  0  0  0  0
 88 89  2  0  0  0  0
 88 90  1  0  0  0  0
 90 91  2  0  0  0  0
 91 92  1  0  0  0  0
 92 93  2  0  0  0  0
 93 94  1  0  0  0  0
 94 95  2  0  0  0  0
 95 96  1  0  0  0  0
 96 97  2  0  0  0  0
 97 98  1  0  0  0  0
 98 99  3  0  0  0  0
 97100  1  0  0  0  0
100101  3  0  0  0  0
 93102  1  0  0  0  0
102103  1  0  0  0  0
103104  1  0  0  0  0
104105  2  0  0  0  0
105106  1  0  0  0  0
106107  1  0  0  0  0
106108  1  0  0  0  0
 11  2  1  0  0  0  0
 23 17  1  0  0  0  0
 30 24  1  0  0  0  0
 75 34  1  0  0  0  0
 82 76  1  0  0  0  0
 96 87  1  0  0  0  0
108102  1  0  0  0  0
 10  5  1  0  0  0  0
 22 18  1  0  0  0  0
 33 29  2  0  0  0  0
 44 37  1  0  0  0  0
 52 45  1  0  0  0  0
 74 53  2  0  0  0  0
 85 81  2  0  0  0  0
 95 90  1  0  0  0  0
107103  1  0  0  0  0
 23  7  1  0  0  0  0
 65 58  1  0  0  0  0
 73 66  1  0  0  0  0
108 92  1  0  0  0  0
  1109  1  0  0  0  0
  6110  1  0  0  0  0
  9111  1  0  0  0  0
 17112  1  0  0  0  0
 18113  1  0  0  0  0
 19114  1  0  0  0  0
 20115  1  0  0  0  0
 21116  1  0  0  0  0
 22117  1  0  0  0  0
 22118  1  0  0  0  0
 23119  1  0  0  0  0
 25120  1  0  0  0  0
 38121  1  0  0  0  0
 39122  1  0  0  0  0
 42123  1  0  0  0  0
 42124  1  0  0  0  0
 42125  1  0  0  0  0
 43126  1  0  0  0  0
 44127  1  0  0  0  0
 46128  1  0  0  0  0
 47129  1  0  0  0  0
 50130  1  0  0  0  0
 50131  1  0  0  0  0
 50132  1  0  0  0  0
 51133  1  0  0  0  0
 52134  1  0  0  0  0
 59135  1  0  0  0  0
 60136  1  0  0  0  0
 63137  1  0  0  0  0
 63138  1  0  0  0  0
 63139  1  0  0  0  0
 64140  1  0  0  0  0
 65141  1  0  0  0  0
 67142  1  0  0  0  0
 68143  1  0  0  0  0
 71144  1  0  0  0  0
 71145  1  0  0  0  0
 71146  1  0  0  0  0
 72147  1  0  0  0  0
 73148  1  0  0  0  0
 77149  1  0  0  0  0
 86150  1  0  0  0  0
 91151  1  0  0  0  0
 94152  1  0  0  0  0
102153  1  0  0  0  0
103154  1  0  0  0  0
104155  1  0  0  0  0
105156  1  0  0  0  0
106157  1  0  0  0  0
107158  1  0  0  0  0
107159  1  0  0  0  0
108160  1  0  0  0  0
M  END
