195

C          7.04400        4.01860        2.27660
C          7.44030        3.73060        3.54650
C          8.65900        4.36870        4.09740
O          9.26300        5.30650        3.61530
C          8.97560        3.62300        5.32870
C         10.09540        3.76600        6.14630
C         10.12560        2.89950        7.21260
C          9.12440        1.94700        7.44530
C          8.01040        1.79790        6.65370
C          7.95200        2.68320        5.57510
C          6.90480        2.86160        4.57040
C          5.59160        2.50800        4.74730
C          4.53140        2.96480        3.94120
N          3.61990        3.37110        3.37060
C          5.11470        1.77950        5.85620
N          4.66190        1.20610        6.74180
C          9.80470        1.41520        8.68140
C          9.20920        1.85780       10.03490
C         10.32450        1.59990       11.02180
C         11.27120        2.50430       10.80600
C         10.81120        3.38920        9.66980
C          9.29910        3.38570        9.92860
C         10.91860        2.48070        8.42640
C          6.09250        3.35320        1.47390
C          5.31840        3.91770        0.45330
N          5.31600        5.24880        0.12720
C          4.97280        5.67200       -1.16150
C          4.27700        6.86380       -1.34240
C          3.93680        7.29520       -2.60910
C          4.28660        6.53830       -3.72020
S          3.90190        6.97640       -5.38400
C          2.93050        8.50120       -5.22590
C          5.00080        5.35430       -3.54350
C          5.34640        4.92740       -2.28190
C          5.67140        6.20850        1.10370
C          6.67760        7.13280        0.84410
C          7.14180        7.94810        1.85670
C          6.59830        7.85070        3.13150
S          7.24450        8.77200        4.49490
C          9.03080        8.66950        4.16340
C          5.52000        7.00260        3.36070
C          5.05500        6.18610        2.35240
C          4.45480        2.95230       -0.11360
S          3.18000        3.00970       -1.28280
C          2.79800        1.32850       -0.97520
C          3.68170        0.73190       -0.08000
N          3.70730       -0.61280        0.26140
C          3.83110       -0.95930        1.61480
C          3.25510       -0.15940        2.60270
C          3.35370       -0.51570        3.92890
C          4.02000       -1.68110        4.30040
S          4.05950       -2.06190        6.02030
C          4.57020       -3.80760        6.04720
C          4.61400       -2.46710        3.32150
C          4.52380       -2.10550        1.99270
C          3.51150       -1.58740       -0.72440
C          3.93990       -1.36030       -2.02950
C          3.67570       -2.27090       -3.03320
C          2.98400       -3.43950       -2.74640
S          2.54920       -4.65980       -3.94470
C          3.09170       -3.93920       -5.52010
C          2.59040       -3.69270       -1.43440
C          2.84300       -2.77990       -0.43680
C          4.59220        1.68280        0.42870
S          5.78810        1.62670        1.66970
C          1.62040        0.72850       -1.50450
C          0.95000       -0.31640       -0.93860
C         -0.20640       -0.70860       -1.64500
C         -1.07600       -1.76050       -1.30700
C         -0.75950       -2.63360       -0.16890
C         -0.67330       -4.02770       -0.37330
C         -0.24610       -4.85200        0.62670
C          0.13590       -4.33460        1.88280
C          0.64520       -5.15020        2.91350
C          1.02090       -4.60760        4.11100
C          0.90030       -3.22720        4.33640
C          0.40270       -2.41140        3.35980
C          0.01180       -2.93870        2.11060
C         -0.45900       -2.11640        1.06930
C         -2.16760       -1.93750       -2.13670
C         -2.43120       -1.11460       -3.26480
C         -1.53970       -0.07230       -3.61900
C         -1.77040        0.80050       -4.74610
C         -0.84670        1.41420       -5.55340
C         -1.40770        2.22030       -6.55470
C         -2.77510        2.24290       -6.51450
S         -3.80470        3.11230       -7.62290
C         -5.44590        2.36290       -7.31160
C         -6.17170        3.00430       -6.14530
S         -3.38370        1.27120       -5.21640
C         -0.42850        0.08800       -2.79350
S          0.82540        1.29620       -2.95850
C         -3.62740       -1.49750       -3.90780
C         -4.29000       -2.52750       -3.29870
S         -3.41950       -3.12460       -1.89960
C         -5.56170       -3.07280       -3.66430
C         -6.11720       -4.14940       -2.99050
C         -7.38870       -4.63610       -3.28200
F         -7.78120       -5.73450       -2.62030
C         -8.21760       -4.10270       -4.26020
C         -7.64930       -3.04520       -5.01290
C         -6.34110       -2.51900       -4.72040
N         -6.02970       -1.50910       -5.52990
S         -7.25010       -1.25120       -6.54660
N         -8.24110       -2.39780       -6.01330
C         -9.54100       -4.58000       -4.55660
C        -10.45640       -4.93020       -3.62090
C        -10.37360       -4.54050       -2.18310
O         -9.47360       -3.95180       -1.62690
C        -11.67760       -4.90350       -1.60140
C        -12.08030       -4.70600       -0.28220
C        -13.36030       -5.12840       -0.01850
C        -14.18550       -5.70170       -0.99660
C        -13.80230       -5.90130       -2.30070
C        -12.50040       -5.47940       -2.59130
C        -11.75970       -5.53150       -3.84620
C        -12.18180       -6.11500       -5.01050
C        -11.40380       -6.22540       -6.18330
N        -10.82980       -6.37670       -7.16600
C        -13.44670       -6.71210       -5.19410
N        -14.46020       -7.20390       -5.41580
C        -15.33730       -5.87190       -0.03800
C        -16.50800       -4.86210       -0.13190
C        -15.93250       -3.58950       -0.70220
C        -15.15120       -3.04820        0.22290
C        -15.18440       -3.94510        1.43570
C        -16.62800       -4.46520        1.34830
C        -14.41780       -5.23500        1.05120
H          7.57820        4.84180        1.81470
H         10.85210        4.50320        5.92750
H          7.25020        1.05560        6.83430
H         10.07670        0.36160        8.65950
H          8.23870        1.42790       10.26640
H         10.33470        0.77930       11.71510
H         12.23000        2.58990       11.28290
H         11.30120        4.35440        9.57280
H          8.70820        3.80960        9.11900
H          9.04080        3.87880       10.86420
H         11.93430        2.13810        8.23630
H          3.99590        7.45090       -0.48080
H          3.39340        8.22010       -2.71290
H          2.03590        8.31060       -4.64040
H          3.53630        9.28600       -4.78230
H          2.65590        8.77760       -6.23910
H          5.28690        4.78020       -4.41110
H          5.92170        4.02210       -2.15770
H          7.11970        7.17960       -0.14060
H          7.94420        8.63980        1.65570
H          9.27400        7.65160        3.87130
H          9.31880        9.38140        3.39560
H          9.52240        8.92120        5.09780
H          5.06850        6.97190        4.34020
H          4.24660        5.49510        2.53800
H          2.71980        0.73750        2.32700
H          2.90350        0.09870        4.69340
H          5.62250       -3.90020        5.79380
H          3.94890       -4.37800        5.36350
H          4.40990       -4.14400        7.06670
H          5.15970       -3.36000        3.58010
H          4.99540       -2.71680        1.23780
H          4.47860       -0.45480       -2.26640
H          4.01700       -2.05370       -4.03240
H          2.78260       -4.64430       -6.28550
H          4.17290       -3.83550       -5.53180
H          2.59980       -2.98380       -5.67770
H          2.06210       -4.60580       -1.20960
H          2.50200       -2.98090        0.56780
H          1.24340       -0.76790       -0.01290
H         -0.92210       -4.42990       -1.34400
H         -0.17370       -5.91760        0.46080
H          0.73610       -6.21280        2.73690
H          1.40800       -5.24090        4.89670
H          1.20360       -2.81470        5.28690
H          0.31280       -1.34780        3.52690
H         -0.58230       -1.05990        1.26240
H          0.21190        1.25120       -5.46580
H         -0.83640        2.75700       -7.28920
H         -5.99150        2.51700       -8.24240
H         -5.29270        1.29530       -7.15400
H         -5.61990        2.86240       -5.21950
H         -7.15400        2.55000       -6.03340
H         -6.29690        4.07090       -6.31640
H         -4.01940       -1.04850       -4.79950
H         -5.56240       -4.63210       -2.20010
H         -9.79790       -4.59530       -5.60800
H        -11.41230       -4.26100        0.43850
H        -14.44910       -6.33930       -3.04260
H        -15.68140       -6.89240        0.11740
H        -17.39830       -5.24780       -0.62120
H        -16.10190       -3.25430       -1.70870
H        -14.53690       -2.17040        0.14360
H        -14.86990       -3.49560        2.37400
H        -16.82650       -5.30800        2.00900
H        -17.36780       -3.68390        1.51600
H        -14.16090       -5.83960        1.91880
