
  xtb     02122220363D
 energy: -349.100910028842 gnorm: 0.000819073430 xtb: 6.4.1 (unknown)
200222  0     0  0            999 V2000
    7.7697   -2.3322    4.1014 C   0  0  0  0  0  0  0  0  0  0  0  0
    8.1834   -2.5833    5.3777 C   0  0  0  0  0  0  0  0  0  0  0  0
    7.4479   -2.4070    6.6552 C   0  0  0  0  0  0  0  0  0  0  0  0
    6.2783   -2.1308    6.8316 O   0  0  0  0  0  0  0  0  0  0  0  0
    8.4323   -2.6395    7.7249 C   0  0  0  0  0  0  0  0  0  0  0  0
    8.2034   -2.5304    9.0959 C   0  0  0  0  0  0  0  0  0  0  0  0
    9.3062   -2.7990    9.8690 C   0  0  0  0  0  0  0  0  0  0  0  0
   10.5496   -3.1408    9.3184 C   0  0  0  0  0  0  0  0  0  0  0  0
   10.7885   -3.2497    7.9697 C   0  0  0  0  0  0  0  0  0  0  0  0
    9.6741   -2.9925    7.1632 C   0  0  0  0  0  0  0  0  0  0  0  0
    9.5331   -3.0257    5.7109 C   0  0  0  0  0  0  0  0  0  0  0  0
   10.4974   -3.4621    4.8410 C   0  0  0  0  0  0  0  0  0  0  0  0
   10.3746   -3.5880    3.4398 C   0  0  0  0  0  0  0  0  0  0  0  0
   10.3755   -3.7444    2.3018 N   0  0  0  0  0  0  0  0  0  0  0  0
   11.7810   -3.9031    5.2300 C   0  0  0  0  0  0  0  0  0  0  0  0
   12.8419   -4.2754    5.4620 N   0  0  0  0  0  0  0  0  0  0  0  0
   11.2022   -3.2730   10.6716 C   0  0  0  0  0  0  0  0  0  0  0  0
   11.4263   -4.7096   11.1894 C   0  0  0  0  0  0  0  0  0  0  0  0
   11.6159   -4.5318   12.6785 C   0  0  0  0  0  0  0  0  0  0  0  0
   10.4382   -4.2118   13.1998 C   0  0  0  0  0  0  0  0  0  0  0  0
    9.4331   -4.1673   12.0715 C   0  0  0  0  0  0  0  0  0  0  0  0
    9.9992   -5.2725   11.1706 C   0  0  0  0  0  0  0  0  0  0  0  0
    9.8158   -2.8950   11.2853 C   0  0  0  0  0  0  0  0  0  0  0  0
    6.5233   -1.9055    3.5850 C   0  0  0  0  0  0  0  0  0  0  0  0
    5.3163   -1.6418    4.1820 C   0  0  0  0  0  0  0  0  0  0  0  0
    4.3102   -1.2435    3.2806 C   0  0  0  0  0  0  0  0  0  0  0  0
    2.9664   -0.9434    3.5812 C   0  0  0  0  0  0  0  0  0  0  0  0
    2.4891   -0.9257    4.9697 C   0  0  0  0  0  0  0  0  0  0  0  0
    1.3535   -1.6408    5.3356 C   0  0  0  0  0  0  0  0  0  0  0  0
    0.9303   -1.6068    6.6485 C   0  0  0  0  0  0  0  0  0  0  0  0
   -0.1646   -2.3267    6.9841 F   0  0  0  0  0  0  0  0  0  0  0  0
    1.5749   -0.8847    7.6453 C   0  0  0  0  0  0  0  0  0  0  0  0
    1.0660   -0.8299    9.0550 C   0  0  0  0  0  0  0  0  0  0  0  0
    0.0700    0.3208    9.2194 C   0  0  0  0  0  0  0  0  0  0  0  0
    2.6984   -0.1751    7.2342 C   0  0  0  0  0  0  0  0  0  0  0  0
    3.3616    0.5614    8.1464 F   0  0  0  0  0  0  0  0  0  0  0  0
    3.1657   -0.1867    5.9359 C   0  0  0  0  0  0  0  0  0  0  0  0
    2.1380   -0.6644    2.5109 C   0  0  0  0  0  0  0  0  0  0  0  0
    2.5918   -0.6520    1.1648 C   0  0  0  0  0  0  0  0  0  0  0  0
    3.9316   -0.9510    0.8619 C   0  0  0  0  0  0  0  0  0  0  0  0
    4.3993   -0.9939   -0.5297 C   0  0  0  0  0  0  0  0  0  0  0  0
    3.6946   -1.7282   -1.4802 C   0  0  0  0  0  0  0  0  0  0  0  0
    4.1371   -1.7526   -2.7860 C   0  0  0  0  0  0  0  0  0  0  0  0
    5.2679   -1.0726   -3.2253 C   0  0  0  0  0  0  0  0  0  0  0  0
    5.7304   -1.1352   -4.6499 C   0  0  0  0  0  0  0  0  0  0  0  0
    6.3981   -2.4794   -4.9481 C   0  0  0  0  0  0  0  0  0  0  0  0
    5.9504   -0.3641   -2.2426 C   0  0  0  0  0  0  0  0  0  0  0  0
    5.5454   -0.3123   -0.9228 C   0  0  0  0  0  0  0  0  0  0  0  0
    7.0566    0.3211   -2.5917 F   0  0  0  0  0  0  0  0  0  0  0  0
    3.4251   -2.4718   -3.6804 F   0  0  0  0  0  0  0  0  0  0  0  0
    4.7660   -1.2284    1.9333 C   0  0  0  0  0  0  0  0  0  0  0  0
    6.4427   -1.6710    1.8360 S   0  0  0  0  0  0  0  0  0  0  0  0
    1.5588   -0.3026    0.2691 C   0  0  0  0  0  0  0  0  0  0  0  0
    0.3460   -0.0991    0.8693 C   0  0  0  0  0  0  0  0  0  0  0  0
    0.4437   -0.2575    2.6120 S   0  0  0  0  0  0  0  0  0  0  0  0
   -0.8545    0.2332    0.1802 C   0  0  0  0  0  0  0  0  0  0  0  0
   -2.1877    0.0368    0.5205 C   0  0  0  0  0  0  0  0  0  0  0  0
   -2.6805   -0.5728    1.6557 N   0  0  0  0  0  0  0  0  0  0  0  0
   -3.9419   -0.1225    2.1001 C   0  0  0  0  0  0  0  0  0  0  0  0
   -4.1473    1.2400    2.3078 C   0  0  0  0  0  0  0  0  0  0  0  0
   -5.4001    1.7076    2.6394 C   0  0  0  0  0  0  0  0  0  0  0  0
   -6.4657    0.8219    2.7651 C   0  0  0  0  0  0  0  0  0  0  0  0
   -8.0554    1.4947    3.1268 S   0  0  0  0  0  0  0  0  0  0  0  0
   -9.1538    0.2932    2.3179 C   0  0  0  0  0  0  0  0  0  0  0  0
   -6.2506   -0.5420    2.6113 C   0  0  0  0  0  0  0  0  0  0  0  0
   -4.9969   -1.0110    2.2791 C   0  0  0  0  0  0  0  0  0  0  0  0
   -2.1220   -1.7283    2.2057 C   0  0  0  0  0  0  0  0  0  0  0  0
   -1.3861   -2.6262    1.4300 C   0  0  0  0  0  0  0  0  0  0  0  0
   -0.8135   -3.7351    2.0098 C   0  0  0  0  0  0  0  0  0  0  0  0
   -0.9774   -3.9898    3.3708 C   0  0  0  0  0  0  0  0  0  0  0  0
   -0.1591   -5.4179    4.0086 S   0  0  0  0  0  0  0  0  0  0  0  0
   -0.7834   -5.5551    5.7073 C   0  0  0  0  0  0  0  0  0  0  0  0
   -1.7387   -3.1182    4.1396 C   0  0  0  0  0  0  0  0  0  0  0  0
   -2.2984   -1.9967    3.5613 C   0  0  0  0  0  0  0  0  0  0  0  0
   -3.0456    0.5151   -0.5042 C   0  0  0  0  0  0  0  0  0  0  0  0
   -4.7612    0.5266   -0.7063 S   0  0  0  0  0  0  0  0  0  0  0  0
   -4.5739    1.2157   -2.3181 C   0  0  0  0  0  0  0  0  0  0  0  0
   -3.2346    1.5006   -2.6310 C   0  0  0  0  0  0  0  0  0  0  0  0
   -2.7523    2.1128   -3.7687 N   0  0  0  0  0  0  0  0  0  0  0  0
   -3.3128    3.2675   -4.3116 C   0  0  0  0  0  0  0  0  0  0  0  0
   -4.1098    4.1174   -3.5459 C   0  0  0  0  0  0  0  0  0  0  0  0
   -4.7339    5.2092   -4.1172 C   0  0  0  0  0  0  0  0  0  0  0  0
   -4.5606    5.4830   -5.4669 C   0  0  0  0  0  0  0  0  0  0  0  0
   -5.3539    6.7990   -6.3302 S   0  0  0  0  0  0  0  0  0  0  0  0
   -6.4111    7.5769   -5.0778 C   0  0  0  0  0  0  0  0  0  0  0  0
   -3.7168    4.6704   -6.2240 C   0  0  0  0  0  0  0  0  0  0  0  0
   -3.1047    3.5767   -5.6609 C   0  0  0  0  0  0  0  0  0  0  0  0
   -1.5412    1.6089   -4.2944 C   0  0  0  0  0  0  0  0  0  0  0  0
   -0.4687    2.4565   -4.5644 C   0  0  0  0  0  0  0  0  0  0  0  0
    0.6995    1.9429   -5.0790 C   0  0  0  0  0  0  0  0  0  0  0  0
    0.8208    0.5767   -5.3326 C   0  0  0  0  0  0  0  0  0  0  0  0
    2.3549    0.0332   -5.9973 S   0  0  0  0  0  0  0  0  0  0  0  0
    2.0084   -1.6572   -6.5639 C   0  0  0  0  0  0  0  0  0  0  0  0
   -0.2430   -0.2708   -5.0489 C   0  0  0  0  0  0  0  0  0  0  0  0
   -1.4165    0.2455   -4.5369 C   0  0  0  0  0  0  0  0  0  0  0  0
   -2.3851    1.0457   -1.6001 C   0  0  0  0  0  0  0  0  0  0  0  0
   -0.6689    0.9699   -1.4127 S   0  0  0  0  0  0  0  0  0  0  0  0
   -5.6940    1.2610   -3.1649 C   0  0  0  0  0  0  0  0  0  0  0  0
   -7.0090    0.8895   -2.9180 C   0  0  0  0  0  0  0  0  0  0  0  0
   -7.8075    0.4391   -1.7797 C   0  0  0  0  0  0  0  0  0  0  0  0
   -7.4970    0.2309   -0.6270 O   0  0  0  0  0  0  0  0  0  0  0  0
   -9.0943    0.2769   -2.2826 N   0  0  0  0  0  0  0  0  0  0  0  0
  -10.2081   -0.1663   -1.4822 C   0  0  0  0  0  0  0  0  0  0  0  0
   -9.2087    0.5707   -3.6391 C   0  0  0  0  0  0  0  0  0  0  0  0
  -10.2292    0.5036   -4.2746 O   0  0  0  0  0  0  0  0  0  0  0  0
   -7.8494    0.9632   -4.0457 C   0  0  0  0  0  0  0  0  0  0  0  0
   -7.2275    1.3581   -5.2108 C   0  0  0  0  0  0  0  0  0  0  0  0
   -5.5389    1.6862   -4.8540 S   0  0  0  0  0  0  0  0  0  0  0  0
   -7.8064    1.6549   -6.4650 C   0  0  0  0  0  0  0  0  0  0  0  0
   -7.1612    2.0216   -7.6052 C   0  0  0  0  0  0  0  0  0  0  0  0
   -7.8583    2.8651   -8.6187 C   0  0  0  0  0  0  0  0  0  0  0  0
   -9.0498    2.9964   -8.7646 O   0  0  0  0  0  0  0  0  0  0  0  0
   -6.7715    3.5609   -9.3382 C   0  0  0  0  0  0  0  0  0  0  0  0
   -6.9032    4.5878  -10.2711 C   0  0  0  0  0  0  0  0  0  0  0  0
   -5.7075    5.0594  -10.7575 C   0  0  0  0  0  0  0  0  0  0  0  0
   -4.4661    4.5440  -10.3579 C   0  0  0  0  0  0  0  0  0  0  0  0
   -4.3199    3.5208   -9.4523 C   0  0  0  0  0  0  0  0  0  0  0  0
   -5.5245    3.0388   -8.9327 C   0  0  0  0  0  0  0  0  0  0  0  0
   -5.7617    1.9659   -7.9757 C   0  0  0  0  0  0  0  0  0  0  0  0
   -4.8940    0.9473   -7.6770 C   0  0  0  0  0  0  0  0  0  0  0  0
   -5.2910   -0.2231   -6.9941 C   0  0  0  0  0  0  0  0  0  0  0  0
   -5.5803   -1.2117   -6.4877 N   0  0  0  0  0  0  0  0  0  0  0  0
   -3.5324    0.9213   -8.0301 C   0  0  0  0  0  0  0  0  0  0  0  0
   -2.4041    0.8543   -8.2366 N   0  0  0  0  0  0  0  0  0  0  0  0
   -3.6969    5.4936  -11.2412 C   0  0  0  0  0  0  0  0  0  0  0  0
   -3.0397    6.7044  -10.5444 C   0  0  0  0  0  0  0  0  0  0  0  0
   -2.7872    7.6762  -11.6746 C   0  0  0  0  0  0  0  0  0  0  0  0
   -3.9609    8.1603  -12.0601 C   0  0  0  0  0  0  0  0  0  0  0  0
   -5.0261    7.5248  -11.1963 C   0  0  0  0  0  0  0  0  0  0  0  0
   -4.2485    7.3780   -9.8824 C   0  0  0  0  0  0  0  0  0  0  0  0
   -5.0801    6.0638  -11.6918 C   0  0  0  0  0  0  0  0  0  0  0  0
    8.5147   -2.4652    3.3257 H   0  0  0  0  0  0  0  0  0  0  0  0
    7.2314   -2.2534    9.4729 H   0  0  0  0  0  0  0  0  0  0  0  0
   11.7536   -3.5047    7.5660 H   0  0  0  0  0  0  0  0  0  0  0  0
   12.0505   -2.6167   10.8557 H   0  0  0  0  0  0  0  0  0  0  0  0
   12.1932   -5.2689   10.6608 H   0  0  0  0  0  0  0  0  0  0  0  0
   12.5661   -4.6006   13.1747 H   0  0  0  0  0  0  0  0  0  0  0  0
   10.2083   -3.9595   14.2183 H   0  0  0  0  0  0  0  0  0  0  0  0
    8.3842   -4.2336   12.3477 H   0  0  0  0  0  0  0  0  0  0  0  0
    9.9385   -6.2545   11.6368 H   0  0  0  0  0  0  0  0  0  0  0  0
    9.5501   -5.3118   10.1799 H   0  0  0  0  0  0  0  0  0  0  0  0
    9.7387   -1.9874   11.8810 H   0  0  0  0  0  0  0  0  0  0  0  0
    5.1584   -1.7540    5.2382 H   0  0  0  0  0  0  0  0  0  0  0  0
    0.8125   -2.2332    4.6151 H   0  0  0  0  0  0  0  0  0  0  0  0
    0.5747   -1.7727    9.3013 H   0  0  0  0  0  0  0  0  0  0  0  0
    1.9054   -0.6830    9.7363 H   0  0  0  0  0  0  0  0  0  0  0  0
   -0.7781    0.1876    8.5514 H   0  0  0  0  0  0  0  0  0  0  0  0
    0.5475    1.2706    8.9897 H   0  0  0  0  0  0  0  0  0  0  0  0
   -0.2953    0.3546   10.2425 H   0  0  0  0  0  0  0  0  0  0  0  0
    4.0393    0.3926    5.6838 H   0  0  0  0  0  0  0  0  0  0  0  0
    2.8212   -2.2980   -1.2052 H   0  0  0  0  0  0  0  0  0  0  0  0
    4.8701   -1.0010   -5.3086 H   0  0  0  0  0  0  0  0  0  0  0  0
    6.4373   -0.3265   -4.8360 H   0  0  0  0  0  0  0  0  0  0  0  0
    7.2600   -2.6269   -4.3012 H   0  0  0  0  0  0  0  0  0  0  0  0
    5.7001   -3.2978   -4.7880 H   0  0  0  0  0  0  0  0  0  0  0  0
    6.7322   -2.5066   -5.9820 H   0  0  0  0  0  0  0  0  0  0  0  0
    6.1156    0.2731   -0.2196 H   0  0  0  0  0  0  0  0  0  0  0  0
    1.6947   -0.2112   -0.7936 H   0  0  0  0  0  0  0  0  0  0  0  0
   -3.3215    1.9259    2.1856 H   0  0  0  0  0  0  0  0  0  0  0  0
   -5.5702    2.7628    2.7874 H   0  0  0  0  0  0  0  0  0  0  0  0
   -9.2809   -0.5878    2.9406 H   0  0  0  0  0  0  0  0  0  0  0  0
   -8.7251    0.0432    1.3519 H   0  0  0  0  0  0  0  0  0  0  0  0
  -10.1094    0.7939    2.1967 H   0  0  0  0  0  0  0  0  0  0  0  0
   -7.0593   -1.2440    2.7321 H   0  0  0  0  0  0  0  0  0  0  0  0
   -4.8333   -2.0687    2.1353 H   0  0  0  0  0  0  0  0  0  0  0  0
   -1.2641   -2.4500    0.3719 H   0  0  0  0  0  0  0  0  0  0  0  0
   -0.2350   -4.4243    1.4138 H   0  0  0  0  0  0  0  0  0  0  0  0
   -0.3489   -6.4678    6.1031 H   0  0  0  0  0  0  0  0  0  0  0  0
   -1.8663   -5.6362    5.6937 H   0  0  0  0  0  0  0  0  0  0  0  0
   -0.4587   -4.7060    6.2996 H   0  0  0  0  0  0  0  0  0  0  0  0
   -1.8856   -3.2865    5.1934 H   0  0  0  0  0  0  0  0  0  0  0  0
   -2.8692   -1.3107    4.1684 H   0  0  0  0  0  0  0  0  0  0  0  0
   -4.2540    3.9155   -2.4949 H   0  0  0  0  0  0  0  0  0  0  0  0
   -5.3537    5.8345   -3.4953 H   0  0  0  0  0  0  0  0  0  0  0  0
   -7.1216    6.8519   -4.6916 H   0  0  0  0  0  0  0  0  0  0  0  0
   -6.9397    8.3710   -5.5957 H   0  0  0  0  0  0  0  0  0  0  0  0
   -5.8006    7.9976   -4.2843 H   0  0  0  0  0  0  0  0  0  0  0  0
   -3.5665    4.9029   -7.2669 H   0  0  0  0  0  0  0  0  0  0  0  0
   -2.4812    2.9358   -6.2646 H   0  0  0  0  0  0  0  0  0  0  0  0
   -0.5609    3.5142   -4.3685 H   0  0  0  0  0  0  0  0  0  0  0  0
    1.5345    2.5923   -5.2920 H   0  0  0  0  0  0  0  0  0  0  0  0
    1.9034   -2.3238   -5.7136 H   0  0  0  0  0  0  0  0  0  0  0  0
    1.1186   -1.6526   -7.1857 H   0  0  0  0  0  0  0  0  0  0  0  0
    2.8709   -1.9521   -7.1539 H   0  0  0  0  0  0  0  0  0  0  0  0
   -0.1721   -1.3313   -5.2259 H   0  0  0  0  0  0  0  0  0  0  0  0
   -2.2496   -0.4106   -4.3300 H   0  0  0  0  0  0  0  0  0  0  0  0
  -11.0478   -0.3395   -2.1530 H   0  0  0  0  0  0  0  0  0  0  0  0
  -10.4754    0.5949   -0.7470 H   0  0  0  0  0  0  0  0  0  0  0  0
   -9.9473   -1.0885   -0.9620 H   0  0  0  0  0  0  0  0  0  0  0  0
   -8.8903    1.7093   -6.4749 H   0  0  0  0  0  0  0  0  0  0  0  0
   -7.8761    4.9495  -10.5642 H   0  0  0  0  0  0  0  0  0  0  0  0
   -3.3639    3.1200   -9.1559 H   0  0  0  0  0  0  0  0  0  0  0  0
   -3.0541    5.0316  -11.9880 H   0  0  0  0  0  0  0  0  0  0  0  0
   -2.1914    6.4604   -9.9106 H   0  0  0  0  0  0  0  0  0  0  0  0
   -1.8188    7.8631  -12.1002 H   0  0  0  0  0  0  0  0  0  0  0  0
   -4.1684    8.8323  -12.8721 H   0  0  0  0  0  0  0  0  0  0  0  0
   -5.9884    8.0275  -11.1558 H   0  0  0  0  0  0  0  0  0  0  0  0
   -4.7491    6.7665   -9.1345 H   0  0  0  0  0  0  0  0  0  0  0  0
   -3.9934    8.3412   -9.4446 H   0  0  0  0  0  0  0  0  0  0  0  0
   -5.3617    5.9786  -12.7395 H   0  0  0  0  0  0  0  0  0  0  0  0
  1  2  2  0  0  0  0
  2  3  1  0  0  0  0
  3  4  2  0  0  0  0
  3  5  1  0  0  0  0
  5  6  2  0  0  0  0
  6  7  1  0  0  0  0
  7  8  2  0  0  0  0
  8  9  1  0  0  0  0
  9 10  2  0  0  0  0
 10 11  1  0  0  0  0
 11 12  2  0  0  0  0
 12 13  1  0  0  0  0
 13 14  3  0  0  0  0
 12 15  1  0  0  0  0
 15 16  3  0  0  0  0
  8 17  1  0  0  0  0
 17 18  1  0  0  0  0
 18 19  1  0  0  0  0
 19 20  2  0  0  0  0
 20 21  1  0  0  0  0
 21 22  1  0  0  0  0
 21 23  1  0  0  0  0
  1 24  1  0  0  0  0
 24 25  2  0  0  0  0
 25 26  1  0  0  0  0
 26 27  2  0  0  0  0
 27 28  1  0  0  0  0
 28 29  2  0  0  0  0
 29 30  1  0  0  0  0
 30 31  1  0  0  0  0
 30 32  2  0  0  0  0
 32 33  1  0  0  0  0
 33 34  1  0  0  0  0
 32 35  1  0  0  0  0
 35 36  1  0  0  0  0
 35 37  2  0  0  0  0
 27 38  1  0  0  0  0
 38 39  2  0  0  0  0
 39 40  1  0  0  0  0
 40 41  1  0  0  0  0
 41 42  2  0  0  0  0
 42 43  1  0  0  0  0
 43 44  2  0  0  0  0
 44 45  1  0  0  0  0
 45 46  1  0  0  0  0
 44 47  1  0  0  0  0
 47 48  2  0  0  0  0
 47 49  1  0  0  0  0
 43 50  1  0  0  0  0
 40 51  2  0  0  0  0
 51 52  1  0  0  0  0
 39 53  1  0  0  0  0
 53 54  2  0  0  0  0
 54 55  1  0  0  0  0
 54 56  1  0  0  0  0
 56 57  2  0  0  0  0
 57 58  1  0  0  0  0
 58 59  1  0  0  0  0
 59 60  2  0  0  0  0
 60 61  1  0  0  0  0
 61 62  2  0  0  0  0
 62 63  1  0  0  0  0
 63 64  1  0  0  0  0
 62 65  1  0  0  0  0
 65 66  2  0  0  0  0
 58 67  1  0  0  0  0
 67 68  2  0  0  0  0
 68 69  1  0  0  0  0
 69 70  2  0  0  0  0
 70 71  1  0  0  0  0
 71 72  1  0  0  0  0
 70 73  1  0  0  0  0
 73 74  2  0  0  0  0
 57 75  1  0  0  0  0
 75 76  1  0  0  0  0
 76 77  1  0  0  0  0
 77 78  2  0  0  0  0
 78 79  1  0  0  0  0
 79 80  1  0  0  0  0
 80 81  2  0  0  0  0
 81 82  1  0  0  0  0
 82 83  2  0  0  0  0
 83 84  1  0  0  0  0
 84 85  1  0  0  0  0
 83 86  1  0  0  0  0
 86 87  2  0  0  0  0
 79 88  1  0  0  0  0
 88 89  2  0  0  0  0
 89 90  1  0  0  0  0
 90 91  2  0  0  0  0
 91 92  1  0  0  0  0
 92 93  1  0  0  0  0
 91 94  1  0  0  0  0
 94 95  2  0  0  0  0
 78 96  1  0  0  0  0
 96 97  1  0  0  0  0
 77 98  1  0  0  0  0
 98 99  2  0  0  0  0
 99100  1  0  0  0  0
100101  2  0  0  0  0
100102  1  0  0  0  0
102103  1  0  0  0  0
102104  1  0  0  0  0
104105  2  0  0  0  0
104106  1  0  0  0  0
106107  2  0  0  0  0
107108  1  0  0  0  0
107109  1  0  0  0  0
109110  2  0  0  0  0
110111  1  0  0  0  0
111112  2  0  0  0  0
111113  1  0  0  0  0
113114  2  0  0  0  0
114115  1  0  0  0  0
115116  2  0  0  0  0
116117  1  0  0  0  0
117118  2  0  0  0  0
118119  1  0  0  0  0
119120  2  0  0  0  0
120121  1  0  0  0  0
121122  3  0  0  0  0
120123  1  0  0  0  0
123124  3  0  0  0  0
116125  1  0  0  0  0
125126  1  0  0  0  0
126127  1  0  0  0  0
127128  2  0  0  0  0
128129  1  0  0  0  0
129130  1  0  0  0  0
129131  1  0  0  0  0
 11  2  1  0  0  0  0
 23 17  1  0  0  0  0
 52 24  1  0  0  0  0
 97 56  1  0  0  0  0
108 98  1  0  0  0  0
119110  1  0  0  0  0
131125  1  0  0  0  0
 10  5  1  0  0  0  0
 22 18  1  0  0  0  0
 51 26  1  0  0  0  0
 66 59  1  0  0  0  0
 74 67  1  0  0  0  0
 96 75  2  0  0  0  0
106 99  1  0  0  0  0
118113  1  0  0  0  0
130126  1  0  0  0  0
 23  7  1  0  0  0  0
 37 28  1  0  0  0  0
 55 38  1  0  0  0  0
 87 80  1  0  0  0  0
 95 88  1  0  0  0  0
131115  1  0  0  0  0
 48 41  1  0  0  0  0
  1132  1  0  0  0  0
  6133  1  0  0  0  0
  9134  1  0  0  0  0
 17135  1  0  0  0  0
 18136  1  0  0  0  0
 19137  1  0  0  0  0
 20138  1  0  0  0  0
 21139  1  0  0  0  0
 22140  1  0  0  0  0
 22141  1  0  0  0  0
 23142  1  0  0  0  0
 25143  1  0  0  0  0
 29144  1  0  0  0  0
 33145  1  0  0  0  0
 33146  1  0  0  0  0
 34147  1  0  0  0  0
 34148  1  0  0  0  0
 34149  1  0  0  0  0
 37150  1  0  0  0  0
 42151  1  0  0  0  0
 45152  1  0  0  0  0
 45153  1  0  0  0  0
 46154  1  0  0  0  0
 46155  1  0  0  0  0
 46156  1  0  0  0  0
 48157  1  0  0  0  0
 53158  1  0  0  0  0
 60159  1  0  0  0  0
 61160  1  0  0  0  0
 64161  1  0  0  0  0
 64162  1  0  0  0  0
 64163  1  0  0  0  0
 65164  1  0  0  0  0
 66165  1  0  0  0  0
 68166  1  0  0  0  0
 69167  1  0  0  0  0
 72168  1  0  0  0  0
 72169  1  0  0  0  0
 72170  1  0  0  0  0
 73171  1  0  0  0  0
 74172  1  0  0  0  0
 81173  1  0  0  0  0
 82174  1  0  0  0  0
 85175  1  0  0  0  0
 85176  1  0  0  0  0
 85177  1  0  0  0  0
 86178  1  0  0  0  0
 87179  1  0  0  0  0
 89180  1  0  0  0  0
 90181  1  0  0  0  0
 93182  1  0  0  0  0
 93183  1  0  0  0  0
 93184  1  0  0  0  0
 94185  1  0  0  0  0
 95186  1  0  0  0  0
103187  1  0  0  0  0
103188  1  0  0  0  0
103189  1  0  0  0  0
109190  1  0  0  0  0
114191  1  0  0  0  0
117192  1  0  0  0  0
125193  1  0  0  0  0
126194  1  0  0  0  0
127195  1  0  0  0  0
128196  1  0  0  0  0
129197  1  0  0  0  0
130198  1  0  0  0  0
130199  1  0  0  0  0
131200  1  0  0  0  0
M  END
