
  xtb     02142212423D
 energy: -281.412877924735 gnorm: 0.000198709081 xtb: 6.4.1 (unknown)
169183  0     0  0            999 V2000
    1.6467   -3.9421   -4.0644 C   0  0  0  0  0  0  0  0  0  0  0  0
    1.2465   -3.9090   -5.3827 C   0  0  0  0  0  0  0  0  0  0  0  0
   -0.0300   -3.3379   -5.8416 C   0  0  0  0  0  0  0  0  0  0  0  0
   -0.8763   -2.7775   -5.1679 O   0  0  0  0  0  0  0  0  0  0  0  0
   -0.1408   -3.6992   -7.2697 C   0  0  0  0  0  0  0  0  0  0  0  0
   -1.1799   -3.3793   -8.1383 C   0  0  0  0  0  0  0  0  0  0  0  0
   -0.9982   -3.8392   -9.4215 C   0  0  0  0  0  0  0  0  0  0  0  0
    0.1299   -4.5707   -9.8116 C   0  0  0  0  0  0  0  0  0  0  0  0
    1.1627   -4.8950   -8.9632 C   0  0  0  0  0  0  0  0  0  0  0  0
    0.9973   -4.4332   -7.6558 C   0  0  0  0  0  0  0  0  0  0  0  0
    1.8827   -4.5487   -6.5001 C   0  0  0  0  0  0  0  0  0  0  0  0
    3.1686   -5.0318   -6.5151 C   0  0  0  0  0  0  0  0  0  0  0  0
    4.0531   -4.9396   -5.4231 C   0  0  0  0  0  0  0  0  0  0  0  0
    4.8507   -4.8496   -4.6003 N   0  0  0  0  0  0  0  0  0  0  0  0
    3.8027   -5.5952   -7.6379 C   0  0  0  0  0  0  0  0  0  0  0  0
    4.3937   -6.0589   -8.5075 N   0  0  0  0  0  0  0  0  0  0  0  0
   -0.3560   -4.7166  -11.2326 C   0  0  0  0  0  0  0  0  0  0  0  0
   -0.9583   -6.0836  -11.6200 C   0  0  0  0  0  0  0  0  0  0  0  0
   -1.7630   -5.7850  -12.8644 C   0  0  0  0  0  0  0  0  0  0  0  0
   -2.8303   -5.0875  -12.4971 C   0  0  0  0  0  0  0  0  0  0  0  0
   -2.7650   -4.9035  -10.9981 C   0  0  0  0  0  0  0  0  0  0  0  0
   -2.0947   -6.2244  -10.5989 C   0  0  0  0  0  0  0  0  0  0  0  0
   -1.6130   -3.8961  -10.7984 C   0  0  0  0  0  0  0  0  0  0  0  0
    1.2184   -3.0648   -3.0642 C   0  0  0  0  0  0  0  0  0  0  0  0
    0.7240   -1.7456   -3.1357 C   0  0  0  0  0  0  0  0  0  0  0  0
    0.7751   -0.9185   -4.2203 N   0  0  0  0  0  0  0  0  0  0  0  0
   -0.0710    0.2078   -4.2729 C   0  0  0  0  0  0  0  0  0  0  0  0
    0.4626    1.4589   -4.5746 C   0  0  0  0  0  0  0  0  0  0  0  0
   -0.3450    2.5743   -4.5478 C   0  0  0  0  0  0  0  0  0  0  0  0
   -1.6952    2.4564   -4.2237 C   0  0  0  0  0  0  0  0  0  0  0  0
   -2.6329    3.9510   -4.1214 S   0  0  0  0  0  0  0  0  0  0  0  0
   -3.9966    3.4847   -3.0143 C   0  0  0  0  0  0  0  0  0  0  0  0
   -2.2426    1.2006   -3.9973 C   0  0  0  0  0  0  0  0  0  0  0  0
   -1.4331    0.0822   -4.0207 C   0  0  0  0  0  0  0  0  0  0  0  0
    1.6609   -1.1127   -5.2894 C   0  0  0  0  0  0  0  0  0  0  0  0
    1.2134   -0.9155   -6.5975 C   0  0  0  0  0  0  0  0  0  0  0  0
    2.0459   -1.1767   -7.6625 C   0  0  0  0  0  0  0  0  0  0  0  0
    3.3487   -1.6268   -7.4503 C   0  0  0  0  0  0  0  0  0  0  0  0
    4.2865   -2.0195   -8.8858 S   0  0  0  0  0  0  0  0  0  0  0  0
    5.8765   -2.6045   -8.2384 C   0  0  0  0  0  0  0  0  0  0  0  0
    3.8210   -1.7504   -6.1473 C   0  0  0  0  0  0  0  0  0  0  0  0
    2.9826   -1.4994   -5.0807 C   0  0  0  0  0  0  0  0  0  0  0  0
    0.2624   -1.3204   -1.8668 C   0  0  0  0  0  0  0  0  0  0  0  0
   -0.4385    0.1570   -1.2814 S   0  0  0  0  0  0  0  0  0  0  0  0
   -0.5828   -0.5399    0.3158 C   0  0  0  0  0  0  0  0  0  0  0  0
    0.0559   -1.7773    0.4353 C   0  0  0  0  0  0  0  0  0  0  0  0
    0.3461   -2.4185    1.6181 N   0  0  0  0  0  0  0  0  0  0  0  0
    0.4479   -3.8195    1.6305 C   0  0  0  0  0  0  0  0  0  0  0  0
   -0.4600   -4.5979    0.9198 C   0  0  0  0  0  0  0  0  0  0  0  0
   -0.3530   -5.9749    0.9151 C   0  0  0  0  0  0  0  0  0  0  0  0
    0.6644   -6.5943    1.6284 C   0  0  0  0  0  0  0  0  0  0  0  0
    0.9038   -8.3390    1.6998 S   0  0  0  0  0  0  0  0  0  0  0  0
   -0.2794   -8.9923    0.4880 C   0  0  0  0  0  0  0  0  0  0  0  0
    1.5639   -5.8161    2.3575 C   0  0  0  0  0  0  0  0  0  0  0  0
    1.4602   -4.4445    2.3588 C   0  0  0  0  0  0  0  0  0  0  0  0
    0.5263   -1.7086    2.8163 C   0  0  0  0  0  0  0  0  0  0  0  0
    1.1401   -0.4574    2.8373 C   0  0  0  0  0  0  0  0  0  0  0  0
    1.1897    0.2889    3.9992 C   0  0  0  0  0  0  0  0  0  0  0  0
    0.6369   -0.2095    5.1731 C   0  0  0  0  0  0  0  0  0  0  0  0
    0.5308    0.6778    6.6917 S   0  0  0  0  0  0  0  0  0  0  0  0
    1.1319    2.3422    6.3163 C   0  0  0  0  0  0  0  0  0  0  0  0
    0.0997   -1.4975    5.1745 C   0  0  0  0  0  0  0  0  0  0  0  0
    0.0445   -2.2370    4.0167 C   0  0  0  0  0  0  0  0  0  0  0  0
    0.4855   -2.2266   -0.8382 C   0  0  0  0  0  0  0  0  0  0  0  0
    1.2809   -3.6541   -1.3954 S   0  0  0  0  0  0  0  0  0  0  0  0
   -1.2491    0.2058    1.3282 C   0  0  0  0  0  0  0  0  0  0  0  0
   -1.9016   -0.3604    2.4210 C   0  0  0  0  0  0  0  0  0  0  0  0
   -2.2099   -1.6722    2.4021 F   0  0  0  0  0  0  0  0  0  0  0  0
   -2.2659    0.3855    3.5374 C   0  0  0  0  0  0  0  0  0  0  0  0
   -2.8290   -0.2790    4.5626 F   0  0  0  0  0  0  0  0  0  0  0  0
   -2.0426    1.7577    3.6171 C   0  0  0  0  0  0  0  0  0  0  0  0
   -1.6210    2.3859    2.4098 C   0  0  0  0  0  0  0  0  0  0  0  0
   -1.5679    3.7211    2.3520 N   0  0  0  0  0  0  0  0  0  0  0  0
   -1.1825    4.3206    1.2495 C   0  0  0  0  0  0  0  0  0  0  0  0
   -1.2275    5.8163    1.2594 C   0  0  0  0  0  0  0  0  0  0  0  0
   -2.5908    6.3007    0.7579 C   0  0  0  0  0  0  0  0  0  0  0  0
   -0.8124    3.5537    0.1104 C   0  0  0  0  0  0  0  0  0  0  0  0
   -0.8465    2.2421    0.1606 N   0  0  0  0  0  0  0  0  0  0  0  0
   -1.2438    1.6274    1.2791 C   0  0  0  0  0  0  0  0  0  0  0  0
   -0.3304    4.1482   -1.1753 C   0  0  0  0  0  0  0  0  0  0  0  0
    1.1879    4.3381   -1.1345 C   0  0  0  0  0  0  0  0  0  0  0  0
   -2.1621    2.5424    4.8079 C   0  0  0  0  0  0  0  0  0  0  0  0
   -2.3429    2.0943    6.0978 C   0  0  0  0  0  0  0  0  0  0  0  0
   -2.2260    3.0968    7.0704 C   0  0  0  0  0  0  0  0  0  0  0  0
   -2.4588    2.8363    8.7686 S   0  0  0  0  0  0  0  0  0  0  0  0
   -3.4290    1.2776    8.8237 C   0  0  0  0  0  0  0  0  0  0  0  0
   -2.5446    0.0552    8.9841 C   0  0  0  0  0  0  0  0  0  0  0  0
   -1.9732    4.3566    6.5152 C   0  0  0  0  0  0  0  0  0  0  0  0
   -1.9045    4.2557    4.7602 S   0  0  0  0  0  0  0  0  0  0  0  0
   -1.8527    5.6324    7.0791 C   0  0  0  0  0  0  0  0  0  0  0  0
   -1.4350    6.0104    8.3353 C   0  0  0  0  0  0  0  0  0  0  0  0
   -0.6723    5.1496    9.2082 C   0  0  0  0  0  0  0  0  0  0  0  0
   -0.2103    4.0697    8.8648 O   0  0  0  0  0  0  0  0  0  0  0  0
   -0.4343    5.6278   10.4897 N   0  0  0  0  0  0  0  0  0  0  0  0
    0.2629    4.7272   11.3994 C   0  0  0  0  0  0  0  0  0  0  0  0
    1.7644    4.9809   11.3926 C   0  0  0  0  0  0  0  0  0  0  0  0
   -0.7683    6.8816   10.9104 C   0  0  0  0  0  0  0  0  0  0  0  0
   -0.4690    7.3575   12.4650 S   0  0  0  0  0  0  0  0  0  0  0  0
   -1.3386    7.7407   10.0148 N   0  0  0  0  0  0  0  0  0  0  0  0
   -1.6212    9.1119   10.4230 C   0  0  0  0  0  0  0  0  0  0  0  0
   -0.3894    9.9962   10.2824 C   0  0  0  0  0  0  0  0  0  0  0  0
   -1.6572    7.4058    8.7041 C   0  0  0  0  0  0  0  0  0  0  0  0
   -2.1245    8.2368    7.9497 O   0  0  0  0  0  0  0  0  0  0  0  0
    2.3096   -4.7368   -3.7425 H   0  0  0  0  0  0  0  0  0  0  0  0
   -2.0318   -2.8099   -7.8002 H   0  0  0  0  0  0  0  0  0  0  0  0
    2.0266   -5.4580   -9.2751 H   0  0  0  0  0  0  0  0  0  0  0  0
    0.2954   -4.3049  -12.0010 H   0  0  0  0  0  0  0  0  0  0  0  0
   -0.2395   -6.8957  -11.6852 H   0  0  0  0  0  0  0  0  0  0  0  0
   -1.4545   -6.0544  -13.8575 H   0  0  0  0  0  0  0  0  0  0  0  0
   -3.5913   -4.6578  -13.1219 H   0  0  0  0  0  0  0  0  0  0  0  0
   -3.6928   -4.6407  -10.4966 H   0  0  0  0  0  0  0  0  0  0  0  0
   -1.7596   -6.2562   -9.5638 H   0  0  0  0  0  0  0  0  0  0  0  0
   -2.7281   -7.0860  -10.8038 H   0  0  0  0  0  0  0  0  0  0  0  0
   -1.7983   -2.9364  -11.2775 H   0  0  0  0  0  0  0  0  0  0  0  0
    1.5139    1.5520   -4.8031 H   0  0  0  0  0  0  0  0  0  0  0  0
    0.0627    3.5514   -4.7565 H   0  0  0  0  0  0  0  0  0  0  0  0
   -4.4490    4.4165   -2.6894 H   0  0  0  0  0  0  0  0  0  0  0  0
   -4.7329    2.8898   -3.5465 H   0  0  0  0  0  0  0  0  0  0  0  0
   -3.5955    2.9443   -2.1617 H   0  0  0  0  0  0  0  0  0  0  0  0
   -3.2960    1.0827   -3.8015 H   0  0  0  0  0  0  0  0  0  0  0  0
   -1.8468   -0.9008   -3.8604 H   0  0  0  0  0  0  0  0  0  0  0  0
    0.2019   -0.5795   -6.7677 H   0  0  0  0  0  0  0  0  0  0  0  0
    1.6914   -1.0569   -8.6746 H   0  0  0  0  0  0  0  0  0  0  0  0
    5.7284   -3.4716   -7.6016 H   0  0  0  0  0  0  0  0  0  0  0  0
    6.3804   -1.8022   -7.7074 H   0  0  0  0  0  0  0  0  0  0  0  0
    6.4541   -2.8908   -9.1117 H   0  0  0  0  0  0  0  0  0  0  0  0
    4.8355   -2.0543   -5.9478 H   0  0  0  0  0  0  0  0  0  0  0  0
    3.3586   -1.6160   -4.0755 H   0  0  0  0  0  0  0  0  0  0  0  0
   -1.2644   -4.1203    0.3808 H   0  0  0  0  0  0  0  0  0  0  0  0
   -1.0750   -6.5496    0.3586 H   0  0  0  0  0  0  0  0  0  0  0  0
   -0.0965   -8.5419   -0.4830 H   0  0  0  0  0  0  0  0  0  0  0  0
   -1.2972   -8.8146    0.8229 H   0  0  0  0  0  0  0  0  0  0  0  0
   -0.0899  -10.0603    0.4419 H   0  0  0  0  0  0  0  0  0  0  0  0
    2.3489   -6.3051    2.9132 H   0  0  0  0  0  0  0  0  0  0  0  0
    2.1648   -3.8457    2.9161 H   0  0  0  0  0  0  0  0  0  0  0  0
    1.5668   -0.0533    1.9310 H   0  0  0  0  0  0  0  0  0  0  0  0
    1.6596    1.2595    3.9765 H   0  0  0  0  0  0  0  0  0  0  0  0
    0.6250    2.7290    5.4370 H   0  0  0  0  0  0  0  0  0  0  0  0
    0.8717    2.9408    7.1865 H   0  0  0  0  0  0  0  0  0  0  0  0
    2.2089    2.3267    6.1755 H   0  0  0  0  0  0  0  0  0  0  0  0
   -0.3032   -1.8960    6.0925 H   0  0  0  0  0  0  0  0  0  0  0  0
   -0.4154   -3.2131    4.0207 H   0  0  0  0  0  0  0  0  0  0  0  0
   -0.4340    6.2306    0.6382 H   0  0  0  0  0  0  0  0  0  0  0  0
   -1.0903    6.1504    2.2881 H   0  0  0  0  0  0  0  0  0  0  0  0
   -3.3794    5.9102    1.3962 H   0  0  0  0  0  0  0  0  0  0  0  0
   -2.6306    7.3864    0.7810 H   0  0  0  0  0  0  0  0  0  0  0  0
   -2.7729    5.9680   -0.2619 H   0  0  0  0  0  0  0  0  0  0  0  0
   -0.8203    5.1005   -1.3738 H   0  0  0  0  0  0  0  0  0  0  0  0
   -0.5686    3.4488   -1.9769 H   0  0  0  0  0  0  0  0  0  0  0  0
    1.5326    4.7608   -2.0743 H   0  0  0  0  0  0  0  0  0  0  0  0
    1.4795    5.0044   -0.3253 H   0  0  0  0  0  0  0  0  0  0  0  0
    1.6758    3.3781   -0.9856 H   0  0  0  0  0  0  0  0  0  0  0  0
   -2.5078    1.0614    6.3321 H   0  0  0  0  0  0  0  0  0  0  0  0
   -4.0493    1.2298    7.9312 H   0  0  0  0  0  0  0  0  0  0  0  0
   -4.0730    1.4017    9.6945 H   0  0  0  0  0  0  0  0  0  0  0  0
   -1.9833    0.1182    9.9129 H   0  0  0  0  0  0  0  0  0  0  0  0
   -1.8314   -0.0287    8.1679 H   0  0  0  0  0  0  0  0  0  0  0  0
   -3.1587   -0.8429    9.0071 H   0  0  0  0  0  0  0  0  0  0  0  0
   -2.1391    6.4564    6.4322 H   0  0  0  0  0  0  0  0  0  0  0  0
   -0.1453    4.8721   12.4009 H   0  0  0  0  0  0  0  0  0  0  0  0
    0.0511    3.7138   11.0542 H   0  0  0  0  0  0  0  0  0  0  0  0
    2.2543    4.2763   12.0582 H   0  0  0  0  0  0  0  0  0  0  0  0
    2.1615    4.8503   10.3887 H   0  0  0  0  0  0  0  0  0  0  0  0
    1.9803    5.9904   11.7342 H   0  0  0  0  0  0  0  0  0  0  0  0
   -1.9662    9.0972   11.4581 H   0  0  0  0  0  0  0  0  0  0  0  0
   -2.4181    9.4722    9.7702 H   0  0  0  0  0  0  0  0  0  0  0  0
   -0.0430    9.9951    9.2516 H   0  0  0  0  0  0  0  0  0  0  0  0
   -0.6394   11.0139   10.5674 H   0  0  0  0  0  0  0  0  0  0  0  0
    0.4095    9.6402   10.9286 H   0  0  0  0  0  0  0  0  0  0  0  0
  1  2  2  0  0  0  0
  2  3  1  0  0  0  0
  3  4  2  0  0  0  0
  3  5  1  0  0  0  0
  5  6  2  0  0  0  0
  6  7  1  0  0  0  0
  7  8  2  0  0  0  0
  8  9  1  0  0  0  0
  9 10  2  0  0  0  0
 10 11  1  0  0  0  0
 11 12  2  0  0  0  0
 12 13  1  0  0  0  0
 13 14  3  0  0  0  0
 12 15  1  0  0  0  0
 15 16  3  0  0  0  0
  8 17  1  0  0  0  0
 17 18  1  0  0  0  0
 18 19  1  0  0  0  0
 19 20  2  0  0  0  0
 20 21  1  0  0  0  0
 21 22  1  0  0  0  0
 21 23  1  0  0  0  0
  1 24  1  0  0  0  0
 24 25  2  0  0  0  0
 25 26  1  0  0  0  0
 26 27  1  0  0  0  0
 27 28  2  0  0  0  0
 28 29  1  0  0  0  0
 29 30  2  0  0  0  0
 30 31  1  0  0  0  0
 31 32  1  0  0  0  0
 30 33  1  0  0  0  0
 33 34  2  0  0  0  0
 26 35  1  0  0  0  0
 35 36  2  0  0  0  0
 36 37  1  0  0  0  0
 37 38  2  0  0  0  0
 38 39  1  0  0  0  0
 39 40  1  0  0  0  0
 38 41  1  0  0  0  0
 41 42  2  0  0  0  0
 25 43  1  0  0  0  0
 43 44  1  0  0  0  0
 44 45  1  0  0  0  0
 45 46  2  0  0  0  0
 46 47  1  0  0  0  0
 47 48  1  0  0  0  0
 48 49  2  0  0  0  0
 49 50  1  0  0  0  0
 50 51  2  0  0  0  0
 51 52  1  0  0  0  0
 52 53  1  0  0  0  0
 51 54  1  0  0  0  0
 54 55  2  0  0  0  0
 47 56  1  0  0  0  0
 56 57  2  0  0  0  0
 57 58  1  0  0  0  0
 58 59  2  0  0  0  0
 59 60  1  0  0  0  0
 60 61  1  0  0  0  0
 59 62  1  0  0  0  0
 62 63  2  0  0  0  0
 46 64  1  0  0  0  0
 64 65  1  0  0  0  0
 45 66  1  0  0  0  0
 66 67  2  0  0  0  0
 67 68  1  0  0  0  0
 67 69  1  0  0  0  0
 69 70  1  0  0  0  0
 69 71  2  0  0  0  0
 71 72  1  0  0  0  0
 72 73  2  0  0  0  0
 73 74  1  0  0  0  0
 74 75  1  0  0  0  0
 75 76  1  0  0  0  0
 74 77  2  0  0  0  0
 77 78  1  0  0  0  0
 78 79  2  0  0  0  0
 77 80  1  0  0  0  0
 80 81  1  0  0  0  0
 71 82  1  0  0  0  0
 82 83  2  0  0  0  0
 83 84  1  0  0  0  0
 84 85  1  0  0  0  0
 85 86  1  0  0  0  0
 86 87  1  0  0  0  0
 84 88  2  0  0  0  0
 88 89  1  0  0  0  0
 88 90  1  0  0  0  0
 90 91  2  0  0  0  0
 91 92  1  0  0  0  0
 92 93  2  0  0  0  0
 92 94  1  0  0  0  0
 94 95  1  0  0  0  0
 95 96  1  0  0  0  0
 94 97  1  0  0  0  0
 97 98  2  0  0  0  0
 97 99  1  0  0  0  0
 99100  1  0  0  0  0
100101  1  0  0  0  0
 99102  1  0  0  0  0
102103  2  0  0  0  0
 11  2  1  0  0  0  0
 23 17  1  0  0  0  0
 65 24  1  0  0  0  0
 79 66  1  0  0  0  0
 89 82  1  0  0  0  0
102 91  1  0  0  0  0
 10  5  1  0  0  0  0
 22 18  1  0  0  0  0
 34 27  1  0  0  0  0
 42 35  1  0  0  0  0
 64 43  2  0  0  0  0
 79 72  1  0  0  0  0
 23  7  1  0  0  0  0
 55 48  1  0  0  0  0
 63 56  1  0  0  0  0
  1104  1  0  0  0  0
  6105  1  0  0  0  0
  9106  1  0  0  0  0
 17107  1  0  0  0  0
 18108  1  0  0  0  0
 19109  1  0  0  0  0
 20110  1  0  0  0  0
 21111  1  0  0  0  0
 22112  1  0  0  0  0
 22113  1  0  0  0  0
 23114  1  0  0  0  0
 28115  1  0  0  0  0
 29116  1  0  0  0  0
 32117  1  0  0  0  0
 32118  1  0  0  0  0
 32119  1  0  0  0  0
 33120  1  0  0  0  0
 34121  1  0  0  0  0
 36122  1  0  0  0  0
 37123  1  0  0  0  0
 40124  1  0  0  0  0
 40125  1  0  0  0  0
 40126  1  0  0  0  0
 41127  1  0  0  0  0
 42128  1  0  0  0  0
 49129  1  0  0  0  0
 50130  1  0  0  0  0
 53131  1  0  0  0  0
 53132  1  0  0  0  0
 53133  1  0  0  0  0
 54134  1  0  0  0  0
 55135  1  0  0  0  0
 57136  1  0  0  0  0
 58137  1  0  0  0  0
 61138  1  0  0  0  0
 61139  1  0  0  0  0
 61140  1  0  0  0  0
 62141  1  0  0  0  0
 63142  1  0  0  0  0
 75143  1  0  0  0  0
 75144  1  0  0  0  0
 76145  1  0  0  0  0
 76146  1  0  0  0  0
 76147  1  0  0  0  0
 80148  1  0  0  0  0
 80149  1  0  0  0  0
 81150  1  0  0  0  0
 81151  1  0  0  0  0
 81152  1  0  0  0  0
 83153  1  0  0  0  0
 86154  1  0  0  0  0
 86155  1  0  0  0  0
 87156  1  0  0  0  0
 87157  1  0  0  0  0
 87158  1  0  0  0  0
 90159  1  0  0  0  0
 95160  1  0  0  0  0
 95161  1  0  0  0  0
 96162  1  0  0  0  0
 96163  1  0  0  0  0
 96164  1  0  0  0  0
100165  1  0  0  0  0
100166  1  0  0  0  0
101167  1  0  0  0  0
101168  1  0  0  0  0
101169  1  0  0  0  0
M  END
