
  xtb     02062200553D
 energy: -408.846488447402 gnorm: 0.000812759121 xtb: 6.4.1 (unknown)
254279  0     0  0            999 V2000
   -4.2886   -4.4379   -6.3545 C   0  0  0  0  0  0  0  0  0  0  0  0
   -4.3417   -3.6938   -7.5149 C   0  0  0  0  0  0  0  0  0  0  0  0
   -3.3357   -2.6907   -7.8917 C   0  0  0  0  0  0  0  0  0  0  0  0
   -2.3649   -2.3317   -7.2496 O   0  0  0  0  0  0  0  0  0  0  0  0
   -3.6728   -2.2818   -9.2725 C   0  0  0  0  0  0  0  0  0  0  0  0
   -2.9986   -1.3539  -10.0604 C   0  0  0  0  0  0  0  0  0  0  0  0
   -3.5570   -1.1629  -11.3025 C   0  0  0  0  0  0  0  0  0  0  0  0
   -4.6906   -1.8595  -11.7361 C   0  0  0  0  0  0  0  0  0  0  0  0
   -5.3550   -2.7926  -10.9736 C   0  0  0  0  0  0  0  0  0  0  0  0
   -4.8149   -2.9848   -9.6993 C   0  0  0  0  0  0  0  0  0  0  0  0
   -5.2643   -3.8450   -8.6045 C   0  0  0  0  0  0  0  0  0  0  0  0
   -6.4498   -4.5394   -8.5646 C   0  0  0  0  0  0  0  0  0  0  0  0
   -6.9081   -5.2474   -7.4368 C   0  0  0  0  0  0  0  0  0  0  0  0
   -7.3511   -5.8214   -6.5454 N   0  0  0  0  0  0  0  0  0  0  0  0
   -7.3854   -4.5709   -9.6149 C   0  0  0  0  0  0  0  0  0  0  0  0
   -8.1835   -4.6186  -10.4403 N   0  0  0  0  0  0  0  0  0  0  0  0
   -4.7083   -1.1618  -13.0738 C   0  0  0  0  0  0  0  0  0  0  0  0
   -5.7484   -0.0341  -13.2456 C   0  0  0  0  0  0  0  0  0  0  0  0
   -5.2290    0.7581  -14.4237 C   0  0  0  0  0  0  0  0  0  0  0  0
   -4.1468    1.4134  -14.0236 C   0  0  0  0  0  0  0  0  0  0  0  0
   -3.9181    1.0778  -12.5678 C   0  0  0  0  0  0  0  0  0  0  0  0
   -5.3708    0.9172  -12.1027 C   0  0  0  0  0  0  0  0  0  0  0  0
   -3.4382   -0.3887  -12.5935 C   0  0  0  0  0  0  0  0  0  0  0  0
   -3.6215   -4.0763   -5.1829 C   0  0  0  0  0  0  0  0  0  0  0  0
   -3.2487   -2.8135   -4.6725 C   0  0  0  0  0  0  0  0  0  0  0  0
   -3.7215   -1.6081   -5.1034 N   0  0  0  0  0  0  0  0  0  0  0  0
   -4.9205   -1.5009   -5.8261 C   0  0  0  0  0  0  0  0  0  0  0  0
   -4.9918   -0.6539   -6.9295 C   0  0  0  0  0  0  0  0  0  0  0  0
   -6.1402   -0.5899   -7.6960 C   0  0  0  0  0  0  0  0  0  0  0  0
   -7.2408   -1.3696   -7.3664 C   0  0  0  0  0  0  0  0  0  0  0  0
   -8.7265   -1.4269   -8.3087 S   0  0  0  0  0  0  0  0  0  0  0  0
   -8.2382   -0.7312   -9.9128 C   0  0  0  0  0  0  0  0  0  0  0  0
   -7.1974   -2.1616   -6.2167 C   0  0  0  0  0  0  0  0  0  0  0  0
   -6.0535   -2.2285   -5.4572 C   0  0  0  0  0  0  0  0  0  0  0  0
   -3.0445   -0.4132   -4.7942 C   0  0  0  0  0  0  0  0  0  0  0  0
   -3.7760    0.6902   -4.3663 C   0  0  0  0  0  0  0  0  0  0  0  0
   -3.1442    1.8789   -4.0612 C   0  0  0  0  0  0  0  0  0  0  0  0
   -1.7635    1.9763   -4.1760 C   0  0  0  0  0  0  0  0  0  0  0  0
   -0.8536    3.4378   -3.8029 S   0  0  0  0  0  0  0  0  0  0  0  0
   -2.1382    4.6980   -3.5478 C   0  0  0  0  0  0  0  0  0  0  0  0
   -1.0302    0.8760   -4.6180 C   0  0  0  0  0  0  0  0  0  0  0  0
   -1.6615   -0.3079   -4.9310 C   0  0  0  0  0  0  0  0  0  0  0  0
   -2.4347   -2.9705   -3.5277 C   0  0  0  0  0  0  0  0  0  0  0  0
   -1.6143   -1.8797   -2.4660 S   0  0  0  0  0  0  0  0  0  0  0  0
   -1.0524   -3.2125   -1.4503 C   0  0  0  0  0  0  0  0  0  0  0  0
   -1.5409   -4.4352   -1.8958 C   0  0  0  0  0  0  0  0  0  0  0  0
   -1.4243   -5.6739   -1.2691 N   0  0  0  0  0  0  0  0  0  0  0  0
   -1.2800   -6.7807   -2.1224 C   0  0  0  0  0  0  0  0  0  0  0  0
   -1.9527   -7.9813   -1.9133 C   0  0  0  0  0  0  0  0  0  0  0  0
   -1.7697   -9.0515   -2.7675 C   0  0  0  0  0  0  0  0  0  0  0  0
   -0.9348   -8.9317   -3.8696 C   0  0  0  0  0  0  0  0  0  0  0  0
   -0.5893  -10.2499   -4.9956 S   0  0  0  0  0  0  0  0  0  0  0  0
   -1.9210  -11.4417   -4.6794 C   0  0  0  0  0  0  0  0  0  0  0  0
   -0.3005   -7.7170   -4.1143 C   0  0  0  0  0  0  0  0  0  0  0  0
   -0.4658   -6.6601   -3.2503 C   0  0  0  0  0  0  0  0  0  0  0  0
   -1.7915   -5.8276    0.0718 C   0  0  0  0  0  0  0  0  0  0  0  0
   -1.3743   -6.9446    0.8009 C   0  0  0  0  0  0  0  0  0  0  0  0
   -1.7727   -7.1238    2.1047 C   0  0  0  0  0  0  0  0  0  0  0  0
   -2.5917   -6.1878    2.7337 C   0  0  0  0  0  0  0  0  0  0  0  0
   -3.0220   -6.5250    4.4116 S   0  0  0  0  0  0  0  0  0  0  0  0
   -4.0145   -5.0868    4.9053 C   0  0  0  0  0  0  0  0  0  0  0  0
   -2.9954   -5.0657    2.0254 C   0  0  0  0  0  0  0  0  0  0  0  0
   -2.6021   -4.8921    0.7110 C   0  0  0  0  0  0  0  0  0  0  0  0
   -2.2828   -4.2790   -3.0934 C   0  0  0  0  0  0  0  0  0  0  0  0
   -3.1276   -5.3918   -4.1054 S   0  0  0  0  0  0  0  0  0  0  0  0
   -0.2566   -2.8071   -0.3400 C   0  0  0  0  0  0  0  0  0  0  0  0
    0.6452   -3.4475    0.5023 C   0  0  0  0  0  0  0  0  0  0  0  0
    1.0832   -4.7662    0.4508 N   0  0  0  0  0  0  0  0  0  0  0  0
    1.3766   -5.3523    1.6962 C   0  0  0  0  0  0  0  0  0  0  0  0
    2.5412   -6.0786    1.9234 C   0  0  0  0  0  0  0  0  0  0  0  0
    2.7984   -6.6312    3.1631 C   0  0  0  0  0  0  0  0  0  0  0  0
    1.9007   -6.4555    4.2072 C   0  0  0  0  0  0  0  0  0  0  0  0
    2.1169   -7.1164    5.8276 S   0  0  0  0  0  0  0  0  0  0  0  0
    3.7586   -7.8904    5.7699 C   0  0  0  0  0  0  0  0  0  0  0  0
    0.7458   -5.7064    3.9931 C   0  0  0  0  0  0  0  0  0  0  0  0
    0.4894   -5.1612    2.7572 C   0  0  0  0  0  0  0  0  0  0  0  0
    1.5905   -5.3151   -0.7326 C   0  0  0  0  0  0  0  0  0  0  0  0
    2.0100   -4.5061   -1.7902 C   0  0  0  0  0  0  0  0  0  0  0  0
    2.5488   -5.0658   -2.9282 C   0  0  0  0  0  0  0  0  0  0  0  0
    2.6880   -6.4472   -3.0470 C   0  0  0  0  0  0  0  0  0  0  0  0
    3.3753   -7.0507   -4.5554 S   0  0  0  0  0  0  0  0  0  0  0  0
    3.2915   -8.8559   -4.3915 C   0  0  0  0  0  0  0  0  0  0  0  0
    2.2714   -7.2577   -2.0002 C   0  0  0  0  0  0  0  0  0  0  0  0
    1.7266   -6.6961   -0.8636 C   0  0  0  0  0  0  0  0  0  0  0  0
    1.1837   -2.5366    1.4501 C   0  0  0  0  0  0  0  0  0  0  0  0
    2.3749   -2.6845    2.6894 S   0  0  0  0  0  0  0  0  0  0  0  0
    2.3164   -0.9480    3.0133 C   0  0  0  0  0  0  0  0  0  0  0  0
    1.4363   -0.2959    2.1570 C   0  0  0  0  0  0  0  0  0  0  0  0
    1.2879    1.0695    2.0081 N   0  0  0  0  0  0  0  0  0  0  0  0
    0.0970    1.5339    1.4377 C   0  0  0  0  0  0  0  0  0  0  0  0
    0.1023    2.5096    0.4410 C   0  0  0  0  0  0  0  0  0  0  0  0
   -1.0743    2.8869   -0.1683 C   0  0  0  0  0  0  0  0  0  0  0  0
   -2.2766    2.3000    0.2048 C   0  0  0  0  0  0  0  0  0  0  0  0
   -3.7551    2.7464   -0.6674 S   0  0  0  0  0  0  0  0  0  0  0  0
   -4.5314    1.1160   -0.8778 C   0  0  0  0  0  0  0  0  0  0  0  0
   -2.3019    1.3781    1.2410 C   0  0  0  0  0  0  0  0  0  0  0  0
   -1.1247    0.9930    1.8481 C   0  0  0  0  0  0  0  0  0  0  0  0
    2.4014    1.9308    2.0520 C   0  0  0  0  0  0  0  0  0  0  0  0
    3.6480    1.5229    1.5796 C   0  0  0  0  0  0  0  0  0  0  0  0
    4.6925    2.4162    1.5160 C   0  0  0  0  0  0  0  0  0  0  0  0
    4.5231    3.7359    1.9326 C   0  0  0  0  0  0  0  0  0  0  0  0
    5.9084    4.8072    1.7481 S   0  0  0  0  0  0  0  0  0  0  0  0
    5.1982    6.4674    1.9524 C   0  0  0  0  0  0  0  0  0  0  0  0
    3.3005    4.1323    2.4573 C   0  0  0  0  0  0  0  0  0  0  0  0
    2.2484    3.2381    2.5042 C   0  0  0  0  0  0  0  0  0  0  0  0
    0.7778   -1.2239    1.3069 C   0  0  0  0  0  0  0  0  0  0  0  0
   -0.3597   -1.0780    0.0148 S   0  0  0  0  0  0  0  0  0  0  0  0
    3.1784   -0.4699    4.0566 C   0  0  0  0  0  0  0  0  0  0  0  0
    4.3211   -1.1991    4.3728 C   0  0  0  0  0  0  0  0  0  0  0  0
    5.1946   -0.8299    5.3797 C   0  0  0  0  0  0  0  0  0  0  0  0
    5.0266    0.3487    6.0947 C   0  0  0  0  0  0  0  0  0  0  0  0
    3.8465    1.1002    5.8306 C   0  0  0  0  0  0  0  0  0  0  0  0
    3.6343    2.2395    6.5007 N   0  0  0  0  0  0  0  0  0  0  0  0
    2.5106    2.8949    6.3414 C   0  0  0  0  0  0  0  0  0  0  0  0
    2.4599    4.2396    6.9156 C   0  0  0  0  0  0  0  0  0  0  0  0
    1.9004    5.2981    6.2036 C   0  0  0  0  0  0  0  0  0  0  0  0
    1.9478    6.5777    6.7165 C   0  0  0  0  0  0  0  0  0  0  0  0
    2.5340    6.8336    7.9512 C   0  0  0  0  0  0  0  0  0  0  0  0
    2.6336    8.2387    8.4692 C   0  0  0  0  0  0  0  0  0  0  0  0
    3.8894    8.9173    7.9169 C   0  0  0  0  0  0  0  0  0  0  0  0
    3.0767    5.7714    8.6639 C   0  0  0  0  0  0  0  0  0  0  0  0
    3.0530    4.4907    8.1497 C   0  0  0  0  0  0  0  0  0  0  0  0
    1.4420    2.2949    5.6067 C   0  0  0  0  0  0  0  0  0  0  0  0
    1.6779    1.2469    4.8480 N   0  0  0  0  0  0  0  0  0  0  0  0
    2.8879    0.6671    4.8700 C   0  0  0  0  0  0  0  0  0  0  0  0
    0.0673    2.7814    5.7404 C   0  0  0  0  0  0  0  0  0  0  0  0
   -0.8077    2.7371    4.6599 C   0  0  0  0  0  0  0  0  0  0  0  0
   -2.1009    3.2041    4.7773 C   0  0  0  0  0  0  0  0  0  0  0  0
   -2.5640    3.7174    5.9823 C   0  0  0  0  0  0  0  0  0  0  0  0
   -3.9833    4.1843    6.1247 C   0  0  0  0  0  0  0  0  0  0  0  0
   -4.8813    3.0290    6.5723 C   0  0  0  0  0  0  0  0  0  0  0  0
   -1.6975    3.7358    7.0699 C   0  0  0  0  0  0  0  0  0  0  0  0
   -0.4000    3.2792    6.9569 C   0  0  0  0  0  0  0  0  0  0  0  0
    5.9922    0.7197    7.0892 C   0  0  0  0  0  0  0  0  0  0  0  0
    6.3746    1.9351    7.5576 C   0  0  0  0  0  0  0  0  0  0  0  0
    7.1132    2.0212    8.8486 C   0  0  0  0  0  0  0  0  0  0  0  0
    7.6257    1.1072    9.4552 O   0  0  0  0  0  0  0  0  0  0  0  0
    7.0402    3.4410    9.2487 C   0  0  0  0  0  0  0  0  0  0  0  0
    7.5006    4.0095   10.4352 C   0  0  0  0  0  0  0  0  0  0  0  0
    7.2872    5.3639   10.5279 C   0  0  0  0  0  0  0  0  0  0  0  0
    6.6605    6.1051    9.5164 C   0  0  0  0  0  0  0  0  0  0  0  0
    6.2137    5.5622    8.3361 C   0  0  0  0  0  0  0  0  0  0  0  0
    6.4158    4.1833    8.2244 C   0  0  0  0  0  0  0  0  0  0  0  0
    6.1140    3.2868    7.1160 C   0  0  0  0  0  0  0  0  0  0  0  0
    5.8295    3.6619    5.8277 C   0  0  0  0  0  0  0  0  0  0  0  0
    5.9214    2.7443    4.7645 C   0  0  0  0  0  0  0  0  0  0  0  0
    6.0626    2.0145    3.8897 N   0  0  0  0  0  0  0  0  0  0  0  0
    5.4569    4.9590    5.4443 C   0  0  0  0  0  0  0  0  0  0  0  0
    5.0854    5.9905    5.0974 N   0  0  0  0  0  0  0  0  0  0  0  0
    6.7816    7.4007   10.2812 C   0  0  0  0  0  0  0  0  0  0  0  0
    7.8866    8.3722    9.8172 C   0  0  0  0  0  0  0  0  0  0  0  0
    8.0891    9.2860   11.0041 C   0  0  0  0  0  0  0  0  0  0  0  0
    8.6933    8.5844   11.9546 C   0  0  0  0  0  0  0  0  0  0  0  0
    8.9086    7.1843   11.4263 C   0  0  0  0  0  0  0  0  0  0  0  0
    9.1396    7.4958    9.9419 C   0  0  0  0  0  0  0  0  0  0  0  0
    7.4899    6.5763   11.4035 C   0  0  0  0  0  0  0  0  0  0  0  0
   -4.7508   -5.4176   -6.3472 H   0  0  0  0  0  0  0  0  0  0  0  0
   -2.1211   -0.8459   -9.6914 H   0  0  0  0  0  0  0  0  0  0  0  0
   -6.2106   -3.3423  -11.3303 H   0  0  0  0  0  0  0  0  0  0  0  0
   -4.6286   -1.8033  -13.9492 H   0  0  0  0  0  0  0  0  0  0  0  0
   -6.7808   -0.3698  -13.2978 H   0  0  0  0  0  0  0  0  0  0  0  0
   -5.6539    0.7152  -15.4092 H   0  0  0  0  0  0  0  0  0  0  0  0
   -3.4877    2.0280  -14.6083 H   0  0  0  0  0  0  0  0  0  0  0  0
   -3.2833    1.7558  -12.0034 H   0  0  0  0  0  0  0  0  0  0  0  0
   -5.9253    1.8535  -12.1452 H   0  0  0  0  0  0  0  0  0  0  0  0
   -5.4665    0.4797  -11.1107 H   0  0  0  0  0  0  0  0  0  0  0  0
   -2.5092   -0.5237  -13.1443 H   0  0  0  0  0  0  0  0  0  0  0  0
   -4.1347   -0.0528   -7.1935 H   0  0  0  0  0  0  0  0  0  0  0  0
   -6.1606    0.0638   -8.5532 H   0  0  0  0  0  0  0  0  0  0  0  0
   -7.3308   -1.2187  -10.2579 H   0  0  0  0  0  0  0  0  0  0  0  0
   -9.0573   -0.9593  -10.5875 H   0  0  0  0  0  0  0  0  0  0  0  0
   -8.1091    0.3451   -9.8391 H   0  0  0  0  0  0  0  0  0  0  0  0
   -8.0689   -2.7347   -5.9408 H   0  0  0  0  0  0  0  0  0  0  0  0
   -6.0283   -2.8578   -4.5807 H   0  0  0  0  0  0  0  0  0  0  0  0
   -4.8499    0.6129   -4.2731 H   0  0  0  0  0  0  0  0  0  0  0  0
   -3.7359    2.7132   -3.7230 H   0  0  0  0  0  0  0  0  0  0  0  0
   -2.7518    4.7795   -4.4400 H   0  0  0  0  0  0  0  0  0  0  0  0
   -2.7386    4.4556   -2.6749 H   0  0  0  0  0  0  0  0  0  0  0  0
   -1.6039    5.6286   -3.3823 H   0  0  0  0  0  0  0  0  0  0  0  0
    0.0397    0.9675   -4.7236 H   0  0  0  0  0  0  0  0  0  0  0  0
   -1.1053   -1.1453   -5.3209 H   0  0  0  0  0  0  0  0  0  0  0  0
   -2.6341   -8.0822   -1.0823 H   0  0  0  0  0  0  0  0  0  0  0  0
   -2.2950   -9.9712   -2.5655 H   0  0  0  0  0  0  0  0  0  0  0  0
   -1.7751  -11.9265   -3.7182 H   0  0  0  0  0  0  0  0  0  0  0  0
   -1.8529  -12.1773   -5.4747 H   0  0  0  0  0  0  0  0  0  0  0  0
   -2.8792  -10.9328   -4.7243 H   0  0  0  0  0  0  0  0  0  0  0  0
    0.3232   -7.6093   -4.9882 H   0  0  0  0  0  0  0  0  0  0  0  0
    0.0355   -5.7258   -3.4481 H   0  0  0  0  0  0  0  0  0  0  0  0
   -0.7369   -7.6785    0.3352 H   0  0  0  0  0  0  0  0  0  0  0  0
   -1.4464   -7.9903    2.6588 H   0  0  0  0  0  0  0  0  0  0  0  0
   -3.4231   -4.1797    4.8194 H   0  0  0  0  0  0  0  0  0  0  0  0
   -4.9164   -5.0308    4.3026 H   0  0  0  0  0  0  0  0  0  0  0  0
   -4.2770   -5.2573    5.9447 H   0  0  0  0  0  0  0  0  0  0  0  0
   -3.6272   -4.3176    2.4771 H   0  0  0  0  0  0  0  0  0  0  0  0
   -2.9513   -4.0229    0.1743 H   0  0  0  0  0  0  0  0  0  0  0  0
    3.2635   -6.2009    1.1304 H   0  0  0  0  0  0  0  0  0  0  0  0
    3.7119   -7.1868    3.3004 H   0  0  0  0  0  0  0  0  0  0  0  0
    3.7596   -8.7142    5.0619 H   0  0  0  0  0  0  0  0  0  0  0  0
    3.9387   -8.2673    6.7719 H   0  0  0  0  0  0  0  0  0  0  0  0
    4.5084   -7.1473    5.5149 H   0  0  0  0  0  0  0  0  0  0  0  0
    0.0526   -5.5651    4.8076 H   0  0  0  0  0  0  0  0  0  0  0  0
   -0.4009   -4.5724    2.6001 H   0  0  0  0  0  0  0  0  0  0  0  0
    1.9321   -3.4323   -1.7140 H   0  0  0  0  0  0  0  0  0  0  0  0
    2.8753   -4.4340   -3.7402 H   0  0  0  0  0  0  0  0  0  0  0  0
    2.2606   -9.1725   -4.2611 H   0  0  0  0  0  0  0  0  0  0  0  0
    3.6794   -9.2487   -5.3263 H   0  0  0  0  0  0  0  0  0  0  0  0
    3.9176   -9.1846   -3.5671 H   0  0  0  0  0  0  0  0  0  0  0  0
    2.3567   -8.3305   -2.0580 H   0  0  0  0  0  0  0  0  0  0  0  0
    1.4120   -7.3412   -0.0584 H   0  0  0  0  0  0  0  0  0  0  0  0
    1.0363    2.9426    0.1177 H   0  0  0  0  0  0  0  0  0  0  0  0
   -1.0570    3.6172   -0.9604 H   0  0  0  0  0  0  0  0  0  0  0  0
   -3.7763    0.4105   -1.2125 H   0  0  0  0  0  0  0  0  0  0  0  0
   -5.2959    1.2375   -1.6381 H   0  0  0  0  0  0  0  0  0  0  0  0
   -4.9892    0.7907    0.0516 H   0  0  0  0  0  0  0  0  0  0  0  0
   -3.2343    0.9477    1.5721 H   0  0  0  0  0  0  0  0  0  0  0  0
   -1.1427    0.2669    2.6477 H   0  0  0  0  0  0  0  0  0  0  0  0
    3.7873    0.5115    1.2291 H   0  0  0  0  0  0  0  0  0  0  0  0
    5.6493    2.1092    1.1258 H   0  0  0  0  0  0  0  0  0  0  0  0
    4.3375    6.5764    1.2997 H   0  0  0  0  0  0  0  0  0  0  0  0
    5.9817    7.1569    1.6543 H   0  0  0  0  0  0  0  0  0  0  0  0
    4.9389    6.6318    2.9950 H   0  0  0  0  0  0  0  0  0  0  0  0
    3.1559    5.1336    2.8309 H   0  0  0  0  0  0  0  0  0  0  0  0
    1.2914    3.5644    2.8834 H   0  0  0  0  0  0  0  0  0  0  0  0
    4.5408   -2.0876    3.7985 H   0  0  0  0  0  0  0  0  0  0  0  0
    6.0677   -1.4371    5.5678 H   0  0  0  0  0  0  0  0  0  0  0  0
    1.4532    5.1157    5.2375 H   0  0  0  0  0  0  0  0  0  0  0  0
    1.5271    7.3953    6.1491 H   0  0  0  0  0  0  0  0  0  0  0  0
    1.7539    8.8090    8.1639 H   0  0  0  0  0  0  0  0  0  0  0  0
    2.6751    8.2318    9.5604 H   0  0  0  0  0  0  0  0  0  0  0  0
    3.8714    8.9158    6.8298 H   0  0  0  0  0  0  0  0  0  0  0  0
    3.9505    9.9462    8.2646 H   0  0  0  0  0  0  0  0  0  0  0  0
    4.7807    8.3864    8.2423 H   0  0  0  0  0  0  0  0  0  0  0  0
    3.5313    5.9503    9.6283 H   0  0  0  0  0  0  0  0  0  0  0  0
    3.4862    3.6682    8.6998 H   0  0  0  0  0  0  0  0  0  0  0  0
   -0.4580    2.3396    3.7236 H   0  0  0  0  0  0  0  0  0  0  0  0
   -2.7561    3.1720    3.9179 H   0  0  0  0  0  0  0  0  0  0  0  0
   -4.3434    4.5702    5.1690 H   0  0  0  0  0  0  0  0  0  0  0  0
   -4.0373    4.9878    6.8619 H   0  0  0  0  0  0  0  0  0  0  0  0
   -4.8490    2.2218    5.8439 H   0  0  0  0  0  0  0  0  0  0  0  0
   -5.9106    3.3645    6.6747 H   0  0  0  0  0  0  0  0  0  0  0  0
   -4.5459    2.6381    7.5303 H   0  0  0  0  0  0  0  0  0  0  0  0
   -2.0455    4.1162    8.0197 H   0  0  0  0  0  0  0  0  0  0  0  0
    0.2478    3.2908    7.8211 H   0  0  0  0  0  0  0  0  0  0  0  0
    6.4727   -0.1181    7.5893 H   0  0  0  0  0  0  0  0  0  0  0  0
    7.9795    3.4060   11.1903 H   0  0  0  0  0  0  0  0  0  0  0  0
    5.7336    6.1351    7.5604 H   0  0  0  0  0  0  0  0  0  0  0  0
    5.8461    7.9033   10.5214 H   0  0  0  0  0  0  0  0  0  0  0  0
    7.7015    8.8488    8.8581 H   0  0  0  0  0  0  0  0  0  0  0  0
    7.7346   10.2991   11.0490 H   0  0  0  0  0  0  0  0  0  0  0  0
    8.9444    8.8946   12.9520 H   0  0  0  0  0  0  0  0  0  0  0  0
    9.6554    6.5797   11.9335 H   0  0  0  0  0  0  0  0  0  0  0  0
    9.1333    6.6187    9.2976 H   0  0  0  0  0  0  0  0  0  0  0  0
   10.0554    8.0612    9.7779 H   0  0  0  0  0  0  0  0  0  0  0  0
    7.0304    6.5349   12.3896 H   0  0  0  0  0  0  0  0  0  0  0  0
  1  2  2  0  0  0  0
  2  3  1  0  0  0  0
  3  4  2  0  0  0  0
  3  5  1  0  0  0  0
  5  6  2  0  0  0  0
  6  7  1  0  0  0  0
  7  8  2  0  0  0  0
  8  9  1  0  0  0  0
  9 10  2  0  0  0  0
 10 11  1  0  0  0  0
 11 12  2  0  0  0  0
 12 13  1  0  0  0  0
 13 14  3  0  0  0  0
 12 15  1  0  0  0  0
 15 16  3  0  0  0  0
  8 17  1  0  0  0  0
 17 18  1  0  0  0  0
 18 19  1  0  0  0  0
 19 20  2  0  0  0  0
 20 21  1  0  0  0  0
 21 22  1  0  0  0  0
 21 23  1  0  0  0  0
  1 24  1  0  0  0  0
 24 25  2  0  0  0  0
 25 26  1  0  0  0  0
 26 27  1  0  0  0  0
 27 28  2  0  0  0  0
 28 29  1  0  0  0  0
 29 30  2  0  0  0  0
 30 31  1  0  0  0  0
 31 32  1  0  0  0  0
 30 33  1  0  0  0  0
 33 34  2  0  0  0  0
 26 35  1  0  0  0  0
 35 36  2  0  0  0  0
 36 37  1  0  0  0  0
 37 38  2  0  0  0  0
 38 39  1  0  0  0  0
 39 40  1  0  0  0  0
 38 41  1  0  0  0  0
 41 42  2  0  0  0  0
 25 43  1  0  0  0  0
 43 44  1  0  0  0  0
 44 45  1  0  0  0  0
 45 46  2  0  0  0  0
 46 47  1  0  0  0  0
 47 48  1  0  0  0  0
 48 49  2  0  0  0  0
 49 50  1  0  0  0  0
 50 51  2  0  0  0  0
 51 52  1  0  0  0  0
 52 53  1  0  0  0  0
 51 54  1  0  0  0  0
 54 55  2  0  0  0  0
 47 56  1  0  0  0  0
 56 57  2  0  0  0  0
 57 58  1  0  0  0  0
 58 59  2  0  0  0  0
 59 60  1  0  0  0  0
 60 61  1  0  0  0  0
 59 62  1  0  0  0  0
 62 63  2  0  0  0  0
 46 64  1  0  0  0  0
 64 65  1  0  0  0  0
 45 66  1  0  0  0  0
 66 67  2  0  0  0  0
 67 68  1  0  0  0  0
 68 69  1  0  0  0  0
 69 70  2  0  0  0  0
 70 71  1  0  0  0  0
 71 72  2  0  0  0  0
 72 73  1  0  0  0  0
 73 74  1  0  0  0  0
 72 75  1  0  0  0  0
 75 76  2  0  0  0  0
 68 77  1  0  0  0  0
 77 78  2  0  0  0  0
 78 79  1  0  0  0  0
 79 80  2  0  0  0  0
 80 81  1  0  0  0  0
 81 82  1  0  0  0  0
 80 83  1  0  0  0  0
 83 84  2  0  0  0  0
 67 85  1  0  0  0  0
 85 86  1  0  0  0  0
 86 87  1  0  0  0  0
 87 88  2  0  0  0  0
 88 89  1  0  0  0  0
 89 90  1  0  0  0  0
 90 91  2  0  0  0  0
 91 92  1  0  0  0  0
 92 93  2  0  0  0  0
 93 94  1  0  0  0  0
 94 95  1  0  0  0  0
 93 96  1  0  0  0  0
 96 97  2  0  0  0  0
 89 98  1  0  0  0  0
 98 99  2  0  0  0  0
 99100  1  0  0  0  0
100101  2  0  0  0  0
101102  1  0  0  0  0
102103  1  0  0  0  0
101104  1  0  0  0  0
104105  2  0  0  0  0
 88106  1  0  0  0  0
106107  1  0  0  0  0
 87108  1  0  0  0  0
108109  2  0  0  0  0
109110  1  0  0  0  0
110111  2  0  0  0  0
111112  1  0  0  0  0
112113  2  0  0  0  0
113114  1  0  0  0  0
114115  1  0  0  0  0
115116  2  0  0  0  0
116117  1  0  0  0  0
117118  2  0  0  0  0
118119  1  0  0  0  0
119120  1  0  0  0  0
118121  1  0  0  0  0
121122  2  0  0  0  0
114123  2  0  0  0  0
123124  1  0  0  0  0
124125  2  0  0  0  0
123126  1  0  0  0  0
126127  2  0  0  0  0
127128  1  0  0  0  0
128129  2  0  0  0  0
129130  1  0  0  0  0
130131  1  0  0  0  0
129132  1  0  0  0  0
132133  2  0  0  0  0
111134  1  0  0  0  0
134135  2  0  0  0  0
135136  1  0  0  0  0
136137  2  0  0  0  0
136138  1  0  0  0  0
138139  2  0  0  0  0
139140  1  0  0  0  0
140141  2  0  0  0  0
141142  1  0  0  0  0
142143  2  0  0  0  0
143144  1  0  0  0  0
144145  2  0  0  0  0
145146  1  0  0  0  0
146147  3  0  0  0  0
145148  1  0  0  0  0
148149  3  0  0  0  0
141150  1  0  0  0  0
150151  1  0  0  0  0
151152  1  0  0  0  0
152153  2  0  0  0  0
153154  1  0  0  0  0
154155  1  0  0  0  0
154156  1  0  0  0  0
 11  2  1  0  0  0  0
 23 17  1  0  0  0  0
 65 24  1  0  0  0  0
107 66  1  0  0  0  0
125108  1  0  0  0  0
133126  1  0  0  0  0
144135  1  0  0  0  0
156150  1  0  0  0  0
 10  5  1  0  0  0  0
 22 18  1  0  0  0  0
 34 27  1  0  0  0  0
 42 35  1  0  0  0  0
 64 43  2  0  0  0  0
 76 69  1  0  0  0  0
 84 77  1  0  0  0  0
106 85  2  0  0  0  0
125112  1  0  0  0  0
143138  1  0  0  0  0
155151  1  0  0  0  0
 23  7  1  0  0  0  0
 55 48  1  0  0  0  0
 63 56  1  0  0  0  0
 97 90  1  0  0  0  0
105 98  1  0  0  0  0
122115  1  0  0  0  0
156140  1  0  0  0  0
  1157  1  0  0  0  0
  6158  1  0  0  0  0
  9159  1  0  0  0  0
 17160  1  0  0  0  0
 18161  1  0  0  0  0
 19162  1  0  0  0  0
 20163  1  0  0  0  0
 21164  1  0  0  0  0
 22165  1  0  0  0  0
 22166  1  0  0  0  0
 23167  1  0  0  0  0
 28168  1  0  0  0  0
 29169  1  0  0  0  0
 32170  1  0  0  0  0
 32171  1  0  0  0  0
 32172  1  0  0  0  0
 33173  1  0  0  0  0
 34174  1  0  0  0  0
 36175  1  0  0  0  0
 37176  1  0  0  0  0
 40177  1  0  0  0  0
 40178  1  0  0  0  0
 40179  1  0  0  0  0
 41180  1  0  0  0  0
 42181  1  0  0  0  0
 49182  1  0  0  0  0
 50183  1  0  0  0  0
 53184  1  0  0  0  0
 53185  1  0  0  0  0
 53186  1  0  0  0  0
 54187  1  0  0  0  0
 55188  1  0  0  0  0
 57189  1  0  0  0  0
 58190  1  0  0  0  0
 61191  1  0  0  0  0
 61192  1  0  0  0  0
 61193  1  0  0  0  0
 62194  1  0  0  0  0
 63195  1  0  0  0  0
 70196  1  0  0  0  0
 71197  1  0  0  0  0
 74198  1  0  0  0  0
 74199  1  0  0  0  0
 74200  1  0  0  0  0
 75201  1  0  0  0  0
 76202  1  0  0  0  0
 78203  1  0  0  0  0
 79204  1  0  0  0  0
 82205  1  0  0  0  0
 82206  1  0  0  0  0
 82207  1  0  0  0  0
 83208  1  0  0  0  0
 84209  1  0  0  0  0
 91210  1  0  0  0  0
 92211  1  0  0  0  0
 95212  1  0  0  0  0
 95213  1  0  0  0  0
 95214  1  0  0  0  0
 96215  1  0  0  0  0
 97216  1  0  0  0  0
 99217  1  0  0  0  0
100218  1  0  0  0  0
103219  1  0  0  0  0
103220  1  0  0  0  0
103221  1  0  0  0  0
104222  1  0  0  0  0
105223  1  0  0  0  0
109224  1  0  0  0  0
110225  1  0  0  0  0
116226  1  0  0  0  0
117227  1  0  0  0  0
119228  1  0  0  0  0
119229  1  0  0  0  0
120230  1  0  0  0  0
120231  1  0  0  0  0
120232  1  0  0  0  0
121233  1  0  0  0  0
122234  1  0  0  0  0
127235  1  0  0  0  0
128236  1  0  0  0  0
130237  1  0  0  0  0
130238  1  0  0  0  0
131239  1  0  0  0  0
131240  1  0  0  0  0
131241  1  0  0  0  0
132242  1  0  0  0  0
133243  1  0  0  0  0
134244  1  0  0  0  0
139245  1  0  0  0  0
142246  1  0  0  0  0
150247  1  0  0  0  0
151248  1  0  0  0  0
152249  1  0  0  0  0
153250  1  0  0  0  0
154251  1  0  0  0  0
155252  1  0  0  0  0
155253  1  0  0  0  0
156254  1  0  0  0  0
M  END
