
  xtb     02052203223D
 energy: -358.029586819767 gnorm: 0.000438921514 xtb: 6.4.1 (unknown)
210232  0     0  0            999 V2000
    3.6245    6.6239    7.5530 C   0  0  0  0  0  0  0  0  0  0  0  0
    4.8919    6.7395    8.0612 C   0  0  0  0  0  0  0  0  0  0  0  0
    6.1216    6.0597    7.5982 C   0  0  0  0  0  0  0  0  0  0  0  0
    6.2436    5.1792    6.7623 O   0  0  0  0  0  0  0  0  0  0  0  0
    7.2369    6.7318    8.2904 C   0  0  0  0  0  0  0  0  0  0  0  0
    8.5956    6.4505    8.1532 C   0  0  0  0  0  0  0  0  0  0  0  0
    9.4137    7.2483    8.9156 C   0  0  0  0  0  0  0  0  0  0  0  0
    8.9219    8.2657    9.7439 C   0  0  0  0  0  0  0  0  0  0  0  0
    7.5862    8.5559    9.8880 C   0  0  0  0  0  0  0  0  0  0  0  0
    6.7350    7.7443    9.1320 C   0  0  0  0  0  0  0  0  0  0  0  0
    5.2788    7.7394    9.0405 C   0  0  0  0  0  0  0  0  0  0  0  0
    4.4325    8.4889    9.8163 C   0  0  0  0  0  0  0  0  0  0  0  0
    3.0235    8.4050    9.8161 C   0  0  0  0  0  0  0  0  0  0  0  0
    1.8785    8.3871    9.9064 N   0  0  0  0  0  0  0  0  0  0  0  0
    4.8548    9.4372   10.7715 C   0  0  0  0  0  0  0  0  0  0  0  0
    5.1236   10.2260   11.5615 N   0  0  0  0  0  0  0  0  0  0  0  0
   10.3004    8.6667   10.2061 C   0  0  0  0  0  0  0  0  0  0  0  0
   10.7145    8.2002   11.6177 C   0  0  0  0  0  0  0  0  0  0  0  0
   12.2225    8.3038   11.6054 C   0  0  0  0  0  0  0  0  0  0  0  0
   12.6871    7.3348   10.8271 C   0  0  0  0  0  0  0  0  0  0  0  0
   11.5008    6.5601   10.2997 C   0  0  0  0  0  0  0  0  0  0  0  0
   10.5537    6.6789   11.5007 C   0  0  0  0  0  0  0  0  0  0  0  0
   10.8488    7.5271    9.2882 C   0  0  0  0  0  0  0  0  0  0  0  0
    3.1080    5.6331    6.6982 C   0  0  0  0  0  0  0  0  0  0  0  0
    3.5686    4.3676    6.4230 C   0  0  0  0  0  0  0  0  0  0  0  0
    2.7866    3.6597    5.4976 C   0  0  0  0  0  0  0  0  0  0  0  0
    3.0988    2.4054    4.9131 C   0  0  0  0  0  0  0  0  0  0  0  0
    4.3777    1.7755    5.1014 C   0  0  0  0  0  0  0  0  0  0  0  0
    4.6639    0.4347    5.0086 C   0  0  0  0  0  0  0  0  0  0  0  0
    6.0177    0.0848    5.0607 C   0  0  0  0  0  0  0  0  0  0  0  0
    6.8829    1.1414    5.1644 C   0  0  0  0  0  0  0  0  0  0  0  0
    8.6144    0.9317    5.2300 S   0  0  0  0  0  0  0  0  0  0  0  0
    9.2214    2.5456    4.6145 C   0  0  0  0  0  0  0  0  0  0  0  0
    9.3237    3.5853    5.7118 C   0  0  0  0  0  0  0  0  0  0  0  0
    5.9695    2.7708    5.3440 Se  0  0  0  0  0  2  0  0  0  0  0  0
    2.1189    1.8810    4.0723 C   0  0  0  0  0  0  0  0  0  0  0  0
    0.9078    2.5509    3.7764 C   0  0  0  0  0  0  0  0  0  0  0  0
    0.6699    3.8671    4.2401 C   0  0  0  0  0  0  0  0  0  0  0  0
   -0.4120    4.6794    3.7342 C   0  0  0  0  0  0  0  0  0  0  0  0
   -1.0544    5.7159    4.3545 C   0  0  0  0  0  0  0  0  0  0  0  0
   -1.9225    6.4831    3.5542 C   0  0  0  0  0  0  0  0  0  0  0  0
   -1.9927    6.1057    2.2440 C   0  0  0  0  0  0  0  0  0  0  0  0
   -3.0323    6.8826    1.0692 S   0  0  0  0  0  0  0  0  0  0  0  0
   -2.2476    6.4268   -0.5218 C   0  0  0  0  0  0  0  0  0  0  0  0
   -2.7282    5.0895   -1.0495 C   0  0  0  0  0  0  0  0  0  0  0  0
   -0.9397    4.5788    1.9223 Se  0  0  0  0  0  2  0  0  0  0  0  0
    1.6186    4.3761    5.1209 C   0  0  0  0  0  0  0  0  0  0  0  0
    1.5918    5.9496    5.8633 S   0  0  0  0  0  0  0  0  0  0  0  0
    0.0744    1.7759    2.9430 C   0  0  0  0  0  0  0  0  0  0  0  0
    0.6336    0.5971    2.5195 C   0  0  0  0  0  0  0  0  0  0  0  0
    2.2325    0.3792    3.1875 S   0  0  0  0  0  0  0  0  0  0  0  0
   -0.0093   -0.2993    1.6168 C   0  0  0  0  0  0  0  0  0  0  0  0
    0.4914   -1.1337    0.6241 C   0  0  0  0  0  0  0  0  0  0  0  0
    1.8163   -1.4871    0.4287 N   0  0  0  0  0  0  0  0  0  0  0  0
    2.6024   -1.9637    1.4843 C   0  0  0  0  0  0  0  0  0  0  0  0
    3.9913   -1.8246    1.4313 C   0  0  0  0  0  0  0  0  0  0  0  0
    4.7750   -2.2902    2.4603 C   0  0  0  0  0  0  0  0  0  0  0  0
    4.1951   -2.9075    3.5683 C   0  0  0  0  0  0  0  0  0  0  0  0
    5.2967   -3.4834    4.8234 S   0  0  0  0  0  0  0  0  0  0  0  0
    4.2108   -3.7582    6.2520 C   0  0  0  0  0  0  0  0  0  0  0  0
    2.8174   -3.0575    3.6223 C   0  0  0  0  0  0  0  0  0  0  0  0
    2.0289   -2.5896    2.5881 C   0  0  0  0  0  0  0  0  0  0  0  0
    2.2358   -1.6937   -0.8974 C   0  0  0  0  0  0  0  0  0  0  0  0
    2.9513   -2.8349   -1.2585 C   0  0  0  0  0  0  0  0  0  0  0  0
    3.2546   -3.0696   -2.5794 C   0  0  0  0  0  0  0  0  0  0  0  0
    2.8374   -2.1853   -3.5728 C   0  0  0  0  0  0  0  0  0  0  0  0
    3.1886   -2.6400   -5.2414 S   0  0  0  0  0  0  0  0  0  0  0  0
    2.0619   -1.5991   -6.2082 C   0  0  0  0  0  0  0  0  0  0  0  0
    2.1786   -1.0181   -3.2115 C   0  0  0  0  0  0  0  0  0  0  0  0
    1.8882   -0.7738   -1.8832 C   0  0  0  0  0  0  0  0  0  0  0  0
   -0.5522   -1.5630   -0.2369 C   0  0  0  0  0  0  0  0  0  0  0  0
   -0.5860   -2.4572   -1.7115 S   0  0  0  0  0  0  0  0  0  0  0  0
   -2.3325   -2.2256   -1.8561 C   0  0  0  0  0  0  0  0  0  0  0  0
   -2.8656   -1.5904   -0.7327 C   0  0  0  0  0  0  0  0  0  0  0  0
   -4.1971   -1.3874   -0.4361 N   0  0  0  0  0  0  0  0  0  0  0  0
   -5.1921   -2.3135   -0.7709 C   0  0  0  0  0  0  0  0  0  0  0  0
   -4.9309   -3.6785   -0.8639 C   0  0  0  0  0  0  0  0  0  0  0  0
   -5.9136   -4.5546   -1.2832 C   0  0  0  0  0  0  0  0  0  0  0  0
   -7.1777   -4.0809   -1.6047 C   0  0  0  0  0  0  0  0  0  0  0  0
   -8.4720   -5.1131   -2.2182 S   0  0  0  0  0  0  0  0  0  0  0  0
   -7.5622   -6.4497   -3.0413 C   0  0  0  0  0  0  0  0  0  0  0  0
   -7.4640   -2.7286   -1.4365 C   0  0  0  0  0  0  0  0  0  0  0  0
   -6.4862   -1.8539   -1.0280 C   0  0  0  0  0  0  0  0  0  0  0  0
   -4.5572   -0.3356    0.4312 C   0  0  0  0  0  0  0  0  0  0  0  0
   -5.3894   -0.5957    1.5209 C   0  0  0  0  0  0  0  0  0  0  0  0
   -5.7389    0.4162    2.3825 C   0  0  0  0  0  0  0  0  0  0  0  0
   -5.2586    1.7108    2.1851 C   0  0  0  0  0  0  0  0  0  0  0  0
   -5.7694    2.9158    3.3654 S   0  0  0  0  0  0  0  0  0  0  0  0
   -4.6526    4.3077    3.0586 C   0  0  0  0  0  0  0  0  0  0  0  0
   -4.4417    1.9773    1.0950 C   0  0  0  0  0  0  0  0  0  0  0  0
   -4.0985    0.9609    0.2213 C   0  0  0  0  0  0  0  0  0  0  0  0
   -1.8234   -1.1642    0.1350 C   0  0  0  0  0  0  0  0  0  0  0  0
   -1.7691   -0.1968    1.5659 S   0  0  0  0  0  0  0  0  0  0  0  0
   -2.8851   -2.6131   -3.1087 C   0  0  0  0  0  0  0  0  0  0  0  0
   -2.1550   -3.0845   -4.1730 C   0  0  0  0  0  0  0  0  0  0  0  0
   -2.9130   -3.3475   -5.3325 C   0  0  0  0  0  0  0  0  0  0  0  0
   -2.4647   -3.8382   -6.5785 C   0  0  0  0  0  0  0  0  0  0  0  0
   -1.0787   -4.1207   -6.8866 C   0  0  0  0  0  0  0  0  0  0  0  0
   -0.4536   -3.8685   -8.0780 C   0  0  0  0  0  0  0  0  0  0  0  0
    0.8480   -4.3810   -8.2202 C   0  0  0  0  0  0  0  0  0  0  0  0
    1.3154   -5.0872   -7.1473 C   0  0  0  0  0  0  0  0  0  0  0  0
    2.8790   -5.8641   -7.1341 S   0  0  0  0  0  0  0  0  0  0  0  0
    2.7429   -7.0152   -5.7206 C   0  0  0  0  0  0  0  0  0  0  0  0
    3.0665   -6.3450   -4.4017 C   0  0  0  0  0  0  0  0  0  0  0  0
    0.0731   -5.0733   -5.7343 Se  0  0  0  0  0  2  0  0  0  0  0  0
   -3.4501   -4.0454   -7.5378 C   0  0  0  0  0  0  0  0  0  0  0  0
   -4.8320   -3.8187   -7.3183 C   0  0  0  0  0  0  0  0  0  0  0  0
   -5.2805   -3.3283   -6.0707 C   0  0  0  0  0  0  0  0  0  0  0  0
   -6.6819   -3.1810   -5.7451 C   0  0  0  0  0  0  0  0  0  0  0  0
   -7.2656   -2.2163   -4.9710 C   0  0  0  0  0  0  0  0  0  0  0  0
   -8.6481   -2.3547   -4.7320 C   0  0  0  0  0  0  0  0  0  0  0  0
   -9.2166   -3.4657   -5.2824 C   0  0  0  0  0  0  0  0  0  0  0  0
  -10.8709   -4.0207   -5.2863 S   0  0  0  0  0  0  0  0  0  0  0  0
  -11.7415   -2.7805   -4.2680 C   0  0  0  0  0  0  0  0  0  0  0  0
  -11.5603   -3.0295   -2.7841 C   0  0  0  0  0  0  0  0  0  0  0  0
   -7.9688   -4.4907   -6.2295 Se  0  0  0  0  0  2  0  0  0  0  0  0
   -4.2862   -3.0604   -5.1358 C   0  0  0  0  0  0  0  0  0  0  0  0
   -4.5708   -2.4233   -3.5421 S   0  0  0  0  0  0  0  0  0  0  0  0
   -5.6017   -4.1134   -8.4636 C   0  0  0  0  0  0  0  0  0  0  0  0
   -4.8664   -4.5425   -9.5365 C   0  0  0  0  0  0  0  0  0  0  0  0
   -3.1638   -4.6746   -9.1353 S   0  0  0  0  0  0  0  0  0  0  0  0
   -5.3725   -4.9090  -10.8126 C   0  0  0  0  0  0  0  0  0  0  0  0
   -4.7166   -4.9479  -11.9987 C   0  0  0  0  0  0  0  0  0  0  0  0
   -5.2544   -5.7685  -13.1306 C   0  0  0  0  0  0  0  0  0  0  0  0
   -6.3653   -6.2359  -13.2183 O   0  0  0  0  0  0  0  0  0  0  0  0
   -4.1185   -5.9055  -14.0536 C   0  0  0  0  0  0  0  0  0  0  0  0
   -3.8254   -6.5616  -15.2615 C   0  0  0  0  0  0  0  0  0  0  0  0
   -2.5581   -6.2789  -15.6767 C   0  0  0  0  0  0  0  0  0  0  0  0
   -1.7004   -5.2078  -14.6264 S   0  0  0  0  0  0  0  0  0  0  0  0
   -3.0575   -5.1402  -13.5846 C   0  0  0  0  0  0  0  0  0  0  0  0
   -3.4181   -4.4216  -12.3932 C   0  0  0  0  0  0  0  0  0  0  0  0
   -2.7721   -3.3106  -11.9149 C   0  0  0  0  0  0  0  0  0  0  0  0
   -1.5209   -2.9144  -12.4274 C   0  0  0  0  0  0  0  0  0  0  0  0
   -0.4893   -2.5966  -12.8174 N   0  0  0  0  0  0  0  0  0  0  0  0
   -3.3182   -2.4193  -10.9700 C   0  0  0  0  0  0  0  0  0  0  0  0
   -3.7485   -1.6240  -10.2623 N   0  0  0  0  0  0  0  0  0  0  0  0
    2.9188    7.4072    7.8028 H   0  0  0  0  0  0  0  0  0  0  0  0
    8.9373    5.6662    7.4978 H   0  0  0  0  0  0  0  0  0  0  0  0
    7.2231    9.3470   10.5222 H   0  0  0  0  0  0  0  0  0  0  0  0
   10.5925    9.6931    9.9934 H   0  0  0  0  0  0  0  0  0  0  0  0
   10.1954    8.6986   12.4316 H   0  0  0  0  0  0  0  0  0  0  0  0
   12.7746    9.0791   12.1032 H   0  0  0  0  0  0  0  0  0  0  0  0
   13.7049    7.1390   10.5449 H   0  0  0  0  0  0  0  0  0  0  0  0
   11.6993    5.5635    9.9146 H   0  0  0  0  0  0  0  0  0  0  0  0
   10.9336    6.1568   12.3772 H   0  0  0  0  0  0  0  0  0  0  0  0
    9.5350    6.3545   11.2970 H   0  0  0  0  0  0  0  0  0  0  0  0
   11.5111    7.7925    8.4662 H   0  0  0  0  0  0  0  0  0  0  0  0
    4.4102    3.9475    6.9403 H   0  0  0  0  0  0  0  0  0  0  0  0
    3.8946   -0.3131    4.9193 H   0  0  0  0  0  0  0  0  0  0  0  0
    6.3631   -0.9319    4.9905 H   0  0  0  0  0  0  0  0  0  0  0  0
    8.5404    2.8636    3.8229 H   0  0  0  0  0  0  0  0  0  0  0  0
   10.1990    2.3257    4.1851 H   0  0  0  0  0  0  0  0  0  0  0  0
    9.7509    4.5006    5.3049 H   0  0  0  0  0  0  0  0  0  0  0  0
    8.3338    3.8109    6.1124 H   0  0  0  0  0  0  0  0  0  0  0  0
    9.9599    3.2244    6.5177 H   0  0  0  0  0  0  0  0  0  0  0  0
   -0.9256    5.9288    5.4017 H   0  0  0  0  0  0  0  0  0  0  0  0
   -2.4736    7.3247    3.9364 H   0  0  0  0  0  0  0  0  0  0  0  0
   -1.1680    6.4338   -0.3610 H   0  0  0  0  0  0  0  0  0  0  0  0
   -2.5166    7.2346   -1.2018 H   0  0  0  0  0  0  0  0  0  0  0  0
   -3.8117    5.0840   -1.1453 H   0  0  0  0  0  0  0  0  0  0  0  0
   -2.4285    4.2812   -0.3794 H   0  0  0  0  0  0  0  0  0  0  0  0
   -2.2900    4.9017   -2.0275 H   0  0  0  0  0  0  0  0  0  0  0  0
   -0.9305    2.0524    2.6676 H   0  0  0  0  0  0  0  0  0  0  0  0
    4.4442   -1.3369    0.5816 H   0  0  0  0  0  0  0  0  0  0  0  0
    5.8471   -2.1751    2.4241 H   0  0  0  0  0  0  0  0  0  0  0  0
    4.8732   -3.9314    7.0944 H   0  0  0  0  0  0  0  0  0  0  0  0
    3.5865   -4.6324    6.0911 H   0  0  0  0  0  0  0  0  0  0  0  0
    3.6109   -2.8706    6.4294 H   0  0  0  0  0  0  0  0  0  0  0  0
    2.3420   -3.5445    4.4587 H   0  0  0  0  0  0  0  0  0  0  0  0
    0.9577   -2.7188    2.6367 H   0  0  0  0  0  0  0  0  0  0  0  0
    3.2418   -3.5484   -0.5025 H   0  0  0  0  0  0  0  0  0  0  0  0
    3.7973   -3.9578   -2.8603 H   0  0  0  0  0  0  0  0  0  0  0  0
    1.0535   -1.6917   -5.8141 H   0  0  0  0  0  0  0  0  0  0  0  0
    2.3969   -0.5660   -6.2004 H   0  0  0  0  0  0  0  0  0  0  0  0
    2.0985   -1.9896   -7.2207 H   0  0  0  0  0  0  0  0  0  0  0  0
    1.8811   -0.2950   -3.9537 H   0  0  0  0  0  0  0  0  0  0  0  0
    1.3661    0.1307   -1.6057 H   0  0  0  0  0  0  0  0  0  0  0  0
   -3.9473   -4.0555   -0.6254 H   0  0  0  0  0  0  0  0  0  0  0  0
   -5.6812   -5.6051   -1.3598 H   0  0  0  0  0  0  0  0  0  0  0  0
   -6.7522   -6.0212   -3.6257 H   0  0  0  0  0  0  0  0  0  0  0  0
   -7.1889   -7.1640   -2.3131 H   0  0  0  0  0  0  0  0  0  0  0  0
   -8.2783   -6.9345   -3.6984 H   0  0  0  0  0  0  0  0  0  0  0  0
   -8.4573   -2.3678   -1.6508 H   0  0  0  0  0  0  0  0  0  0  0  0
   -6.7052   -0.8014   -0.9342 H   0  0  0  0  0  0  0  0  0  0  0  0
   -5.7487   -1.6000    1.6884 H   0  0  0  0  0  0  0  0  0  0  0  0
   -6.3759    0.2178    3.2304 H   0  0  0  0  0  0  0  0  0  0  0  0
   -3.6252    3.9522    3.0754 H   0  0  0  0  0  0  0  0  0  0  0  0
   -4.8121    5.0065    3.8736 H   0  0  0  0  0  0  0  0  0  0  0  0
   -4.8900    4.7907    2.1154 H   0  0  0  0  0  0  0  0  0  0  0  0
   -4.0684    2.9724    0.9129 H   0  0  0  0  0  0  0  0  0  0  0  0
   -3.4698    1.1738   -0.6312 H   0  0  0  0  0  0  0  0  0  0  0  0
   -1.0886   -3.2318   -4.1120 H   0  0  0  0  0  0  0  0  0  0  0  0
   -0.9188   -3.2883   -8.8573 H   0  0  0  0  0  0  0  0  0  0  0  0
    1.4265   -4.2587   -9.1197 H   0  0  0  0  0  0  0  0  0  0  0  0
    3.4549   -7.8095   -5.9438 H   0  0  0  0  0  0  0  0  0  0  0  0
    1.7302   -7.4246   -5.7320 H   0  0  0  0  0  0  0  0  0  0  0  0
    3.0233   -7.0731   -3.5942 H   0  0  0  0  0  0  0  0  0  0  0  0
    2.3512   -5.5489   -4.1903 H   0  0  0  0  0  0  0  0  0  0  0  0
    4.0636   -5.9128   -4.4385 H   0  0  0  0  0  0  0  0  0  0  0  0
   -6.7195   -1.3639   -4.6038 H   0  0  0  0  0  0  0  0  0  0  0  0
   -9.1947   -1.6262   -4.1596 H   0  0  0  0  0  0  0  0  0  0  0  0
  -12.7868   -2.8858   -4.5585 H   0  0  0  0  0  0  0  0  0  0  0  0
  -11.3885   -1.7969   -4.5745 H   0  0  0  0  0  0  0  0  0  0  0  0
  -11.9807   -3.9935   -2.5091 H   0  0  0  0  0  0  0  0  0  0  0  0
  -10.5063   -3.0395   -2.5186 H   0  0  0  0  0  0  0  0  0  0  0  0
  -12.0633   -2.2516   -2.2130 H   0  0  0  0  0  0  0  0  0  0  0  0
   -6.6631   -3.9459   -8.5349 H   0  0  0  0  0  0  0  0  0  0  0  0
   -6.3965   -5.2693  -10.8291 H   0  0  0  0  0  0  0  0  0  0  0  0
   -4.5100   -7.1982  -15.7906 H   0  0  0  0  0  0  0  0  0  0  0  0
   -2.0639   -6.6342  -16.5598 H   0  0  0  0  0  0  0  0  0  0  0  0
  1  2  2  0  0  0  0
  2  3  1  0  0  0  0
  3  4  2  0  0  0  0
  3  5  1  0  0  0  0
  5  6  2  0  0  0  0
  6  7  1  0  0  0  0
  7  8  2  0  0  0  0
  8  9  1  0  0  0  0
  9 10  2  0  0  0  0
 10 11  1  0  0  0  0
 11 12  2  0  0  0  0
 12 13  1  0  0  0  0
 13 14  3  0  0  0  0
 12 15  1  0  0  0  0
 15 16  3  0  0  0  0
  8 17  1  0  0  0  0
 17 18  1  0  0  0  0
 18 19  1  0  0  0  0
 19 20  2  0  0  0  0
 20 21  1  0  0  0  0
 21 22  1  0  0  0  0
 21 23  1  0  0  0  0
  1 24  1  0  0  0  0
 24 25  2  0  0  0  0
 25 26  1  0  0  0  0
 26 27  2  0  0  0  0
 27 28  1  0  0  0  0
 28 29  2  0  0  0  0
 29 30  1  0  0  0  0
 30 31  2  0  0  0  0
 31 32  1  0  0  0  0
 32 33  1  0  0  0  0
 33 34  1  0  0  0  0
 31 35  1  0  0  0  0
 27 36  1  0  0  0  0
 36 37  2  0  0  0  0
 37 38  1  0  0  0  0
 38 39  1  0  0  0  0
 39 40  2  0  0  0  0
 40 41  1  0  0  0  0
 41 42  2  0  0  0  0
 42 43  1  0  0  0  0
 43 44  1  0  0  0  0
 44 45  1  0  0  0  0
 42 46  1  0  0  0  0
 38 47  2  0  0  0  0
 47 48  1  0  0  0  0
 37 49  1  0  0  0  0
 49 50  2  0  0  0  0
 50 51  1  0  0  0  0
 50 52  1  0  0  0  0
 52 53  2  0  0  0  0
 53 54  1  0  0  0  0
 54 55  1  0  0  0  0
 55 56  2  0  0  0  0
 56 57  1  0  0  0  0
 57 58  2  0  0  0  0
 58 59  1  0  0  0  0
 59 60  1  0  0  0  0
 58 61  1  0  0  0  0
 61 62  2  0  0  0  0
 54 63  1  0  0  0  0
 63 64  2  0  0  0  0
 64 65  1  0  0  0  0
 65 66  2  0  0  0  0
 66 67  1  0  0  0  0
 67 68  1  0  0  0  0
 66 69  1  0  0  0  0
 69 70  2  0  0  0  0
 53 71  1  0  0  0  0
 71 72  1  0  0  0  0
 72 73  1  0  0  0  0
 73 74  2  0  0  0  0
 74 75  1  0  0  0  0
 75 76  1  0  0  0  0
 76 77  2  0  0  0  0
 77 78  1  0  0  0  0
 78 79  2  0  0  0  0
 79 80  1  0  0  0  0
 80 81  1  0  0  0  0
 79 82  1  0  0  0  0
 82 83  2  0  0  0  0
 75 84  1  0  0  0  0
 84 85  2  0  0  0  0
 85 86  1  0  0  0  0
 86 87  2  0  0  0  0
 87 88  1  0  0  0  0
 88 89  1  0  0  0  0
 87 90  1  0  0  0  0
 90 91  2  0  0  0  0
 74 92  1  0  0  0  0
 92 93  1  0  0  0  0
 73 94  1  0  0  0  0
 94 95  2  0  0  0  0
 95 96  1  0  0  0  0
 96 97  2  0  0  0  0
 97 98  1  0  0  0  0
 98 99  2  0  0  0  0
 99100  1  0  0  0  0
100101  2  0  0  0  0
101102  1  0  0  0  0
102103  1  0  0  0  0
103104  1  0  0  0  0
101105  1  0  0  0  0
 97106  1  0  0  0  0
106107  2  0  0  0  0
107108  1  0  0  0  0
108109  1  0  0  0  0
109110  2  0  0  0  0
110111  1  0  0  0  0
111112  2  0  0  0  0
112113  1  0  0  0  0
113114  1  0  0  0  0
114115  1  0  0  0  0
112116  1  0  0  0  0
108117  2  0  0  0  0
117118  1  0  0  0  0
107119  1  0  0  0  0
119120  2  0  0  0  0
120121  1  0  0  0  0
120122  1  0  0  0  0
122123  2  0  0  0  0
123124  1  0  0  0  0
124125  2  0  0  0  0
124126  1  0  0  0  0
126127  1  0  0  0  0
127128  2  0  0  0  0
128129  1  0  0  0  0
129130  1  0  0  0  0
130131  1  0  0  0  0
131132  2  0  0  0  0
132133  1  0  0  0  0
133134  3  0  0  0  0
132135  1  0  0  0  0
135136  3  0  0  0  0
 11  2  1  0  0  0  0
 23 17  1  0  0  0  0
 48 24  1  0  0  0  0
 93 52  1  0  0  0  0
118 94  1  0  0  0  0
131123  1  0  0  0  0
 10  5  1  0  0  0  0
 22 18  1  0  0  0  0
 47 26  1  0  0  0  0
 62 55  1  0  0  0  0
 70 63  1  0  0  0  0
 92 71  2  0  0  0  0
117 96  1  0  0  0  0
130126  2  0  0  0  0
 23  7  1  0  0  0  0
 35 28  1  0  0  0  0
 51 36  1  0  0  0  0
 83 76  1  0  0  0  0
 91 84  1  0  0  0  0
105 98  1  0  0  0  0
121106  1  0  0  0  0
 46 39  1  0  0  0  0
116109  1  0  0  0  0
  1137  1  0  0  0  0
  6138  1  0  0  0  0
  9139  1  0  0  0  0
 17140  1  0  0  0  0
 18141  1  0  0  0  0
 19142  1  0  0  0  0
 20143  1  0  0  0  0
 21144  1  0  0  0  0
 22145  1  0  0  0  0
 22146  1  0  0  0  0
 23147  1  0  0  0  0
 25148  1  0  0  0  0
 29149  1  0  0  0  0
 30150  1  0  0  0  0
 33151  1  0  0  0  0
 33152  1  0  0  0  0
 34153  1  0  0  0  0
 34154  1  0  0  0  0
 34155  1  0  0  0  0
 40156  1  0  0  0  0
 41157  1  0  0  0  0
 44158  1  0  0  0  0
 44159  1  0  0  0  0
 45160  1  0  0  0  0
 45161  1  0  0  0  0
 45162  1  0  0  0  0
 49163  1  0  0  0  0
 56164  1  0  0  0  0
 57165  1  0  0  0  0
 60166  1  0  0  0  0
 60167  1  0  0  0  0
 60168  1  0  0  0  0
 61169  1  0  0  0  0
 62170  1  0  0  0  0
 64171  1  0  0  0  0
 65172  1  0  0  0  0
 68173  1  0  0  0  0
 68174  1  0  0  0  0
 68175  1  0  0  0  0
 69176  1  0  0  0  0
 70177  1  0  0  0  0
 77178  1  0  0  0  0
 78179  1  0  0  0  0
 81180  1  0  0  0  0
 81181  1  0  0  0  0
 81182  1  0  0  0  0
 82183  1  0  0  0  0
 83184  1  0  0  0  0
 85185  1  0  0  0  0
 86186  1  0  0  0  0
 89187  1  0  0  0  0
 89188  1  0  0  0  0
 89189  1  0  0  0  0
 90190  1  0  0  0  0
 91191  1  0  0  0  0
 95192  1  0  0  0  0
 99193  1  0  0  0  0
100194  1  0  0  0  0
103195  1  0  0  0  0
103196  1  0  0  0  0
104197  1  0  0  0  0
104198  1  0  0  0  0
104199  1  0  0  0  0
110200  1  0  0  0  0
111201  1  0  0  0  0
114202  1  0  0  0  0
114203  1  0  0  0  0
115204  1  0  0  0  0
115205  1  0  0  0  0
115206  1  0  0  0  0
119207  1  0  0  0  0
122208  1  0  0  0  0
127209  1  0  0  0  0
128210  1  0  0  0  0
M  END
