
  xtb     02092208593D
 energy: -395.805620074289 gnorm: 0.000906100673 xtb: 6.4.1 (unknown)
189208  0     0  0            999 V2000
    1.3865   -7.2353   -3.1457 C   0  0  0  0  0  0  0  0  0  0  0  0
    2.3605   -6.5527   -3.7786 C   0  0  0  0  0  0  0  0  0  0  0  0
    2.2178   -5.1296   -4.2142 C   0  0  0  0  0  0  0  0  0  0  0  0
    1.2147   -4.4494   -4.1679 O   0  0  0  0  0  0  0  0  0  0  0  0
    3.5106   -4.7618   -4.8019 C   0  0  0  0  0  0  0  0  0  0  0  0
    3.8838   -3.5013   -5.2666 C   0  0  0  0  0  0  0  0  0  0  0  0
    5.1769   -3.4345   -5.7232 C   0  0  0  0  0  0  0  0  0  0  0  0
    6.0365   -4.5432   -5.7310 C   0  0  0  0  0  0  0  0  0  0  0  0
    5.6798   -5.7927   -5.2865 C   0  0  0  0  0  0  0  0  0  0  0  0
    4.3685   -5.8825   -4.8047 C   0  0  0  0  0  0  0  0  0  0  0  0
    3.6698   -7.0198   -4.2210 C   0  0  0  0  0  0  0  0  0  0  0  0
    4.1660   -8.2849   -4.0783 C   0  0  0  0  0  0  0  0  0  0  0  0
    3.4777   -9.3632   -3.4794 C   0  0  0  0  0  0  0  0  0  0  0  0
    2.9905  -10.2863   -3.0026 N   0  0  0  0  0  0  0  0  0  0  0  0
    5.4423   -8.7011   -4.5174 C   0  0  0  0  0  0  0  0  0  0  0  0
    6.4602   -9.1124   -4.8517 N   0  0  0  0  0  0  0  0  0  0  0  0
    7.1857   -3.7484   -6.2989 C   0  0  0  0  0  0  0  0  0  0  0  0
    8.2900   -3.3349   -5.3025 C   0  0  0  0  0  0  0  0  0  0  0  0
    8.9993   -2.1969   -6.0004 C   0  0  0  0  0  0  0  0  0  0  0  0
    8.1867   -1.1478   -5.9895 C   0  0  0  0  0  0  0  0  0  0  0  0
    6.9143   -1.5596   -5.2847 C   0  0  0  0  0  0  0  0  0  0  0  0
    7.4874   -2.5466   -4.2598 C   0  0  0  0  0  0  0  0  0  0  0  0
    6.2291   -2.5132   -6.2875 C   0  0  0  0  0  0  0  0  0  0  0  0
    0.2207   -6.5494   -2.6144 C   0  0  0  0  0  0  0  0  0  0  0  0
    0.3979   -5.4160   -1.7713 C   0  0  0  0  0  0  0  0  0  0  0  0
    1.6121   -5.1018   -1.3029 N   0  0  0  0  0  0  0  0  0  0  0  0
    1.7578   -4.0371   -0.5524 C   0  0  0  0  0  0  0  0  0  0  0  0
    3.0949   -3.7818    0.0015 C   0  0  0  0  0  0  0  0  0  0  0  0
    3.3095   -3.3497    1.3125 C   0  0  0  0  0  0  0  0  0  0  0  0
    4.5721   -3.0329    1.7754 C   0  0  0  0  0  0  0  0  0  0  0  0
    5.7235   -3.1384    0.9720 C   0  0  0  0  0  0  0  0  0  0  0  0
    6.8724   -2.7975    1.5618 O   0  0  0  0  0  0  0  0  0  0  0  0
    8.0830   -2.6426    0.8255 C   0  0  0  0  0  0  0  0  0  0  0  0
    8.0702   -1.3944   -0.0472 C   0  0  0  0  0  0  0  0  0  0  0  0
    5.5075   -3.6202   -0.3229 C   0  0  0  0  0  0  0  0  0  0  0  0
    4.2340   -3.9287   -0.7841 C   0  0  0  0  0  0  0  0  0  0  0  0
    4.1324   -4.3543   -2.0460 F   0  0  0  0  0  0  0  0  0  0  0  0
    6.5274   -3.8037   -1.1878 F   0  0  0  0  0  0  0  0  0  0  0  0
    4.7200   -2.6006    3.0352 F   0  0  0  0  0  0  0  0  0  0  0  0
    2.2795   -3.2537    2.1662 F   0  0  0  0  0  0  0  0  0  0  0  0
    0.6482   -3.1694   -0.3035 C   0  0  0  0  0  0  0  0  0  0  0  0
    0.7488   -1.8811    0.3969 C   0  0  0  0  0  0  0  0  0  0  0  0
    1.7379   -0.9397    0.1415 C   0  0  0  0  0  0  0  0  0  0  0  0
    2.6680   -1.1774   -0.7997 F   0  0  0  0  0  0  0  0  0  0  0  0
    1.8079    0.2715    0.8199 C   0  0  0  0  0  0  0  0  0  0  0  0
    2.8108    1.1119    0.4810 F   0  0  0  0  0  0  0  0  0  0  0  0
    0.8793    0.6065    1.8101 C   0  0  0  0  0  0  0  0  0  0  0  0
    0.8385    1.7002    2.5724 O   0  0  0  0  0  0  0  0  0  0  0  0
    1.8696    2.6826    2.5187 C   0  0  0  0  0  0  0  0  0  0  0  0
    1.6125    3.6515    3.6598 C   0  0  0  0  0  0  0  0  0  0  0  0
   -0.1392   -0.3376    2.0419 C   0  0  0  0  0  0  0  0  0  0  0  0
   -1.0600   -0.0405    2.9644 F   0  0  0  0  0  0  0  0  0  0  0  0
   -0.2057   -1.5379    1.3616 C   0  0  0  0  0  0  0  0  0  0  0  0
   -1.1768   -2.3934    1.6714 F   0  0  0  0  0  0  0  0  0  0  0  0
   -0.5510   -3.5153   -0.6911 N   0  0  0  0  0  0  0  0  0  0  0  0
   -0.7269   -4.6509   -1.3758 C   0  0  0  0  0  0  0  0  0  0  0  0
   -2.0426   -5.0266   -1.7516 C   0  0  0  0  0  0  0  0  0  0  0  0
   -2.1891   -6.1960   -2.4566 C   0  0  0  0  0  0  0  0  0  0  0  0
   -1.0710   -6.9378   -2.8912 C   0  0  0  0  0  0  0  0  0  0  0  0
   -1.2868   -8.0154   -3.6586 F   0  0  0  0  0  0  0  0  0  0  0  0
   -3.4087   -6.6250   -2.8109 F   0  0  0  0  0  0  0  0  0  0  0  0
   -3.1371   -4.1860   -1.2266 C   0  0  0  0  0  0  0  0  0  0  0  0
   -3.9004   -3.2517   -1.9015 C   0  0  0  0  0  0  0  0  0  0  0  0
   -3.8726   -3.0318   -3.2452 O   0  0  0  0  0  0  0  0  0  0  0  0
   -2.7183   -3.2751   -4.0359 C   0  0  0  0  0  0  0  0  0  0  0  0
   -1.5405   -2.3799   -3.6679 C   0  0  0  0  0  0  0  0  0  0  0  0
   -4.8082   -2.3982   -1.1685 C   0  0  0  0  0  0  0  0  0  0  0  0
   -5.6991   -1.5254   -1.6896 O   0  0  0  0  0  0  0  0  0  0  0  0
   -5.7638   -1.1139   -3.0431 C   0  0  0  0  0  0  0  0  0  0  0  0
   -4.7034   -0.0725   -3.3822 C   0  0  0  0  0  0  0  0  0  0  0  0
   -4.8647   -2.4487    0.2161 C   0  0  0  0  0  0  0  0  0  0  0  0
   -4.1403   -3.4337    0.9076 C   0  0  0  0  0  0  0  0  0  0  0  0
   -3.2766   -4.3050    0.1748 C   0  0  0  0  0  0  0  0  0  0  0  0
   -2.6378   -5.1660    0.9664 N   0  0  0  0  0  0  0  0  0  0  0  0
   -3.0800   -4.8763    2.4872 S   0  0  0  0  0  0  0  0  0  0  0  0
   -4.0995   -3.6653    2.2170 N   0  0  0  0  0  0  0  0  0  0  0  0
   -5.5259   -1.3999    1.0002 C   0  0  0  0  0  0  0  0  0  0  0  0
   -5.0188   -0.0758    0.9221 C   0  0  0  0  0  0  0  0  0  0  0  0
   -4.1015    0.2410    0.0008 N   0  0  0  0  0  0  0  0  0  0  0  0
   -3.5700    1.4377   -0.0098 C   0  0  0  0  0  0  0  0  0  0  0  0
   -2.6098    1.7277   -1.0856 C   0  0  0  0  0  0  0  0  0  0  0  0
   -1.6253    0.7970   -1.4248 C   0  0  0  0  0  0  0  0  0  0  0  0
   -0.6710    1.0729   -2.3851 C   0  0  0  0  0  0  0  0  0  0  0  0
   -0.6483    2.2808   -3.1086 C   0  0  0  0  0  0  0  0  0  0  0  0
    0.3485    2.4043   -3.9880 O   0  0  0  0  0  0  0  0  0  0  0  0
    0.4027    3.4678   -4.9354 C   0  0  0  0  0  0  0  0  0  0  0  0
   -0.6146    3.2923   -6.0550 C   0  0  0  0  0  0  0  0  0  0  0  0
   -1.6576    3.1948   -2.7853 C   0  0  0  0  0  0  0  0  0  0  0  0
   -2.6023    2.9167   -1.8050 C   0  0  0  0  0  0  0  0  0  0  0  0
   -3.5467    3.8459   -1.5782 F   0  0  0  0  0  0  0  0  0  0  0  0
   -1.7562    4.3892   -3.4048 F   0  0  0  0  0  0  0  0  0  0  0  0
    0.2805    0.1661   -2.6457 F   0  0  0  0  0  0  0  0  0  0  0  0
   -1.5743   -0.3758   -0.7948 F   0  0  0  0  0  0  0  0  0  0  0  0
   -3.9341    2.3982    0.9781 C   0  0  0  0  0  0  0  0  0  0  0  0
   -3.3032    3.7136    1.1540 C   0  0  0  0  0  0  0  0  0  0  0  0
   -4.0799    4.8213    1.4913 C   0  0  0  0  0  0  0  0  0  0  0  0
   -5.4040    4.7052    1.5989 F   0  0  0  0  0  0  0  0  0  0  0  0
   -3.5323    6.0785    1.7087 C   0  0  0  0  0  0  0  0  0  0  0  0
   -4.3804    7.0703    2.0391 F   0  0  0  0  0  0  0  0  0  0  0  0
   -2.1569    6.3079    1.5993 C   0  0  0  0  0  0  0  0  0  0  0  0
   -1.4809    7.4448    1.8038 O   0  0  0  0  0  0  0  0  0  0  0  0
   -2.1280    8.7168    1.7800 C   0  0  0  0  0  0  0  0  0  0  0  0
   -2.6255    9.0841    0.3897 C   0  0  0  0  0  0  0  0  0  0  0  0
   -1.3795    5.1815    1.2821 C   0  0  0  0  0  0  0  0  0  0  0  0
   -0.0485    5.3356    1.1872 F   0  0  0  0  0  0  0  0  0  0  0  0
   -1.9283    3.9301    1.0751 C   0  0  0  0  0  0  0  0  0  0  0  0
   -1.0917    2.9142    0.8071 F   0  0  0  0  0  0  0  0  0  0  0  0
   -4.8897    2.1223    1.8299 N   0  0  0  0  0  0  0  0  0  0  0  0
   -5.4580    0.9145    1.8413 C   0  0  0  0  0  0  0  0  0  0  0  0
   -6.4631    0.6253    2.8096 C   0  0  0  0  0  0  0  0  0  0  0  0
   -6.9856   -0.6494    2.8039 C   0  0  0  0  0  0  0  0  0  0  0  0
   -6.4975   -1.6530    1.9411 C   0  0  0  0  0  0  0  0  0  0  0  0
   -7.0236   -2.8757    2.0490 F   0  0  0  0  0  0  0  0  0  0  0  0
   -7.9425   -0.9755    3.6788 F   0  0  0  0  0  0  0  0  0  0  0  0
   -6.9001    1.6977    3.6863 C   0  0  0  0  0  0  0  0  0  0  0  0
   -6.0019    2.5366    4.2395 C   0  0  0  0  0  0  0  0  0  0  0  0
   -4.5290    2.2578    4.2584 C   0  0  0  0  0  0  0  0  0  0  0  0
   -3.9925    1.1761    4.2239 O   0  0  0  0  0  0  0  0  0  0  0  0
   -3.8926    3.5631    4.5140 C   0  0  0  0  0  0  0  0  0  0  0  0
   -2.5295    3.8517    4.4695 C   0  0  0  0  0  0  0  0  0  0  0  0
   -2.2238    5.1545    4.7805 C   0  0  0  0  0  0  0  0  0  0  0  0
   -3.2039    6.0984    5.1249 C   0  0  0  0  0  0  0  0  0  0  0  0
   -4.5495    5.8272    5.1734 C   0  0  0  0  0  0  0  0  0  0  0  0
   -4.8844    4.5053    4.8562 C   0  0  0  0  0  0  0  0  0  0  0  0
   -6.1955    3.8631    4.8085 C   0  0  0  0  0  0  0  0  0  0  0  0
   -7.3804    4.4101    5.2094 C   0  0  0  0  0  0  0  0  0  0  0  0
   -8.6207    3.7360    5.1603 C   0  0  0  0  0  0  0  0  0  0  0  0
   -9.6581    3.2463    5.1485 N   0  0  0  0  0  0  0  0  0  0  0  0
   -7.5183    5.7021    5.7610 C   0  0  0  0  0  0  0  0  0  0  0  0
   -7.6943    6.7373    6.2241 N   0  0  0  0  0  0  0  0  0  0  0  0
   -2.1855    7.1828    5.3724 C   0  0  0  0  0  0  0  0  0  0  0  0
   -1.8280    7.5057    6.8447 C   0  0  0  0  0  0  0  0  0  0  0  0
   -2.0762    6.2465    7.6377 C   0  0  0  0  0  0  0  0  0  0  0  0
   -1.1464    5.3639    7.2979 C   0  0  0  0  0  0  0  0  0  0  0  0
   -0.2524    6.0106    6.2683 C   0  0  0  0  0  0  0  0  0  0  0  0
   -0.2941    7.4689    6.7516 C   0  0  0  0  0  0  0  0  0  0  0  0
   -1.0951    6.1382    4.9754 C   0  0  0  0  0  0  0  0  0  0  0  0
    1.4396   -8.3050   -2.9970 H   0  0  0  0  0  0  0  0  0  0  0  0
    3.1923   -2.6741   -5.2358 H   0  0  0  0  0  0  0  0  0  0  0  0
    6.3532   -6.6332   -5.2983 H   0  0  0  0  0  0  0  0  0  0  0  0
    7.5796   -4.0953   -7.2520 H   0  0  0  0  0  0  0  0  0  0  0  0
    8.9091   -4.1528   -4.9451 H   0  0  0  0  0  0  0  0  0  0  0  0
    9.9642   -2.2852   -6.4640 H   0  0  0  0  0  0  0  0  0  0  0  0
    8.3378   -0.1855   -6.4425 H   0  0  0  0  0  0  0  0  0  0  0  0
    6.2796   -0.7606   -4.9113 H   0  0  0  0  0  0  0  0  0  0  0  0
    8.1323   -2.0565   -3.5322 H   0  0  0  0  0  0  0  0  0  0  0  0
    6.7361   -3.1371   -3.7410 H   0  0  0  0  0  0  0  0  0  0  0  0
    5.9852   -2.0333   -7.2335 H   0  0  0  0  0  0  0  0  0  0  0  0
    8.2999   -3.5363    0.2347 H   0  0  0  0  0  0  0  0  0  0  0  0
    8.8398   -2.5471    1.6076 H   0  0  0  0  0  0  0  0  0  0  0  0
    7.3340   -1.4755   -0.8427 H   0  0  0  0  0  0  0  0  0  0  0  0
    7.8363   -0.5212    0.5570 H   0  0  0  0  0  0  0  0  0  0  0  0
    9.0504   -1.2612   -0.4952 H   0  0  0  0  0  0  0  0  0  0  0  0
    1.8371    3.2040    1.5559 H   0  0  0  0  0  0  0  0  0  0  0  0
    2.8491    2.2081    2.6379 H   0  0  0  0  0  0  0  0  0  0  0  0
    2.3685    4.4306    3.6522 H   0  0  0  0  0  0  0  0  0  0  0  0
    0.6325    4.1048    3.5493 H   0  0  0  0  0  0  0  0  0  0  0  0
    1.6456    3.1252    4.6099 H   0  0  0  0  0  0  0  0  0  0  0  0
   -2.4285   -4.3260   -3.9967 H   0  0  0  0  0  0  0  0  0  0  0  0
   -3.0610   -3.0584   -5.0519 H   0  0  0  0  0  0  0  0  0  0  0  0
   -1.4369   -2.3172   -2.5869 H   0  0  0  0  0  0  0  0  0  0  0  0
   -0.6231   -2.7937   -4.0762 H   0  0  0  0  0  0  0  0  0  0  0  0
   -1.6806   -1.3763   -4.0633 H   0  0  0  0  0  0  0  0  0  0  0  0
   -5.7057   -1.9664   -3.7221 H   0  0  0  0  0  0  0  0  0  0  0  0
   -6.7595   -0.6653   -3.1224 H   0  0  0  0  0  0  0  0  0  0  0  0
   -3.7115   -0.4834   -3.2221 H   0  0  0  0  0  0  0  0  0  0  0  0
   -4.8244    0.8009   -2.7463 H   0  0  0  0  0  0  0  0  0  0  0  0
   -4.8040    0.2259   -4.4222 H   0  0  0  0  0  0  0  0  0  0  0  0
    0.2885    4.4378   -4.4448 H   0  0  0  0  0  0  0  0  0  0  0  0
    1.4169    3.3940   -5.3346 H   0  0  0  0  0  0  0  0  0  0  0  0
   -0.5026    2.3097   -6.5070 H   0  0  0  0  0  0  0  0  0  0  0  0
   -1.6314    3.3952   -5.6852 H   0  0  0  0  0  0  0  0  0  0  0  0
   -0.4467    4.0508   -6.8134 H   0  0  0  0  0  0  0  0  0  0  0  0
   -1.3369    9.4023    2.0926 H   0  0  0  0  0  0  0  0  0  0  0  0
   -2.9420    8.7581    2.5082 H   0  0  0  0  0  0  0  0  0  0  0  0
   -3.4344    8.4294    0.0759 H   0  0  0  0  0  0  0  0  0  0  0  0
   -1.8136    9.0092   -0.3298 H   0  0  0  0  0  0  0  0  0  0  0  0
   -2.9946   10.1049    0.4005 H   0  0  0  0  0  0  0  0  0  0  0  0
   -7.9663    1.8473    3.7887 H   0  0  0  0  0  0  0  0  0  0  0  0
   -1.8141    3.0831    4.2192 H   0  0  0  0  0  0  0  0  0  0  0  0
   -5.2883    6.5664    5.4346 H   0  0  0  0  0  0  0  0  0  0  0  0
   -2.2771    8.0835    4.7690 H   0  0  0  0  0  0  0  0  0  0  0  0
   -2.2859    8.4127    7.2297 H   0  0  0  0  0  0  0  0  0  0  0  0
   -2.9101    6.1122    8.3010 H   0  0  0  0  0  0  0  0  0  0  0  0
   -1.0484    4.3442    7.6200 H   0  0  0  0  0  0  0  0  0  0  0  0
    0.7248    5.5573    6.1260 H   0  0  0  0  0  0  0  0  0  0  0  0
    0.1153    8.1766    6.0317 H   0  0  0  0  0  0  0  0  0  0  0  0
    0.1888    7.6057    7.7177 H   0  0  0  0  0  0  0  0  0  0  0  0
   -0.4831    6.3552    4.1020 H   0  0  0  0  0  0  0  0  0  0  0  0
  1  2  2  0  0  0  0
  2  3  1  0  0  0  0
  3  4  2  0  0  0  0
  3  5  1  0  0  0  0
  5  6  2  0  0  0  0
  6  7  1  0  0  0  0
  7  8  2  0  0  0  0
  8  9  1  0  0  0  0
  9 10  2  0  0  0  0
 10 11  1  0  0  0  0
 11 12  2  0  0  0  0
 12 13  1  0  0  0  0
 13 14  3  0  0  0  0
 12 15  1  0  0  0  0
 15 16  3  0  0  0  0
  8 17  1  0  0  0  0
 17 18  1  0  0  0  0
 18 19  1  0  0  0  0
 19 20  2  0  0  0  0
 20 21  1  0  0  0  0
 21 22  1  0  0  0  0
 21 23  1  0  0  0  0
  1 24  1  0  0  0  0
 24 25  1  0  0  0  0
 25 26  2  0  0  0  0
 26 27  1  0  0  0  0
 27 28  1  0  0  0  0
 28 29  2  0  0  0  0
 29 30  1  0  0  0  0
 30 31  2  0  0  0  0
 31 32  1  0  0  0  0
 32 33  1  0  0  0  0
 33 34  1  0  0  0  0
 31 35  1  0  0  0  0
 35 36  2  0  0  0  0
 36 37  1  0  0  0  0
 35 38  1  0  0  0  0
 30 39  1  0  0  0  0
 29 40  1  0  0  0  0
 27 41  2  0  0  0  0
 41 42  1  0  0  0  0
 42 43  2  0  0  0  0
 43 44  1  0  0  0  0
 43 45  1  0  0  0  0
 45 46  1  0  0  0  0
 45 47  2  0  0  0  0
 47 48  1  0  0  0  0
 48 49  1  0  0  0  0
 49 50  1  0  0  0  0
 47 51  1  0  0  0  0
 51 52  1  0  0  0  0
 51 53  2  0  0  0  0
 53 54  1  0  0  0  0
 41 55  1  0  0  0  0
 55 56  2  0  0  0  0
 56 57  1  0  0  0  0
 57 58  2  0  0  0  0
 58 59  1  0  0  0  0
 59 60  1  0  0  0  0
 58 61  1  0  0  0  0
 57 62  1  0  0  0  0
 62 63  2  0  0  0  0
 63 64  1  0  0  0  0
 64 65  1  0  0  0  0
 65 66  1  0  0  0  0
 63 67  1  0  0  0  0
 67 68  1  0  0  0  0
 68 69  1  0  0  0  0
 69 70  1  0  0  0  0
 67 71  2  0  0  0  0
 71 72  1  0  0  0  0
 72 73  1  0  0  0  0
 73 74  2  0  0  0  0
 74 75  1  0  0  0  0
 75 76  1  0  0  0  0
 71 77  1  0  0  0  0
 77 78  1  0  0  0  0
 78 79  2  0  0  0  0
 79 80  1  0  0  0  0
 80 81  1  0  0  0  0
 81 82  2  0  0  0  0
 82 83  1  0  0  0  0
 83 84  2  0  0  0  0
 84 85  1  0  0  0  0
 85 86  1  0  0  0  0
 86 87  1  0  0  0  0
 84 88  1  0  0  0  0
 88 89  2  0  0  0  0
 89 90  1  0  0  0  0
 88 91  1  0  0  0  0
 83 92  1  0  0  0  0
 82 93  1  0  0  0  0
 80 94  2  0  0  0  0
 94 95  1  0  0  0  0
 95 96  2  0  0  0  0
 96 97  1  0  0  0  0
 96 98  1  0  0  0  0
 98 99  1  0  0  0  0
 98100  2  0  0  0  0
100101  1  0  0  0  0
101102  1  0  0  0  0
102103  1  0  0  0  0
100104  1  0  0  0  0
104105  1  0  0  0  0
104106  2  0  0  0  0
106107  1  0  0  0  0
 94108  1  0  0  0  0
108109  2  0  0  0  0
109110  1  0  0  0  0
110111  2  0  0  0  0
111112  1  0  0  0  0
112113  1  0  0  0  0
111114  1  0  0  0  0
110115  1  0  0  0  0
115116  2  0  0  0  0
116117  1  0  0  0  0
117118  2  0  0  0  0
117119  1  0  0  0  0
119120  2  0  0  0  0
120121  1  0  0  0  0
121122  2  0  0  0  0
122123  1  0  0  0  0
123124  2  0  0  0  0
124125  1  0  0  0  0
125126  2  0  0  0  0
126127  1  0  0  0  0
127128  3  0  0  0  0
126129  1  0  0  0  0
129130  3  0  0  0  0
122131  1  0  0  0  0
131132  1  0  0  0  0
132133  1  0  0  0  0
133134  2  0  0  0  0
134135  1  0  0  0  0
135136  1  0  0  0  0
135137  1  0  0  0  0
 11  2  1  0  0  0  0
 23 17  1  0  0  0  0
 59 24  2  0  0  0  0
 73 62  1  0  0  0  0
112 77  2  0  0  0  0
125116  1  0  0  0  0
137131  1  0  0  0  0
 10  5  1  0  0  0  0
 22 18  1  0  0  0  0
 56 25  1  0  0  0  0
 76 72  2  0  0  0  0
109 78  1  0  0  0  0
124119  1  0  0  0  0
136132  1  0  0  0  0
 23  7  1  0  0  0  0
 36 28  1  0  0  0  0
 53 42  1  0  0  0  0
 89 81  1  0  0  0  0
106 95  1  0  0  0  0
137121  1  0  0  0  0
  1138  1  0  0  0  0
  6139  1  0  0  0  0
  9140  1  0  0  0  0
 17141  1  0  0  0  0
 18142  1  0  0  0  0
 19143  1  0  0  0  0
 20144  1  0  0  0  0
 21145  1  0  0  0  0
 22146  1  0  0  0  0
 22147  1  0  0  0  0
 23148  1  0  0  0  0
 33149  1  0  0  0  0
 33150  1  0  0  0  0
 34151  1  0  0  0  0
 34152  1  0  0  0  0
 34153  1  0  0  0  0
 49154  1  0  0  0  0
 49155  1  0  0  0  0
 50156  1  0  0  0  0
 50157  1  0  0  0  0
 50158  1  0  0  0  0
 65159  1  0  0  0  0
 65160  1  0  0  0  0
 66161  1  0  0  0  0
 66162  1  0  0  0  0
 66163  1  0  0  0  0
 69164  1  0  0  0  0
 69165  1  0  0  0  0
 70166  1  0  0  0  0
 70167  1  0  0  0  0
 70168  1  0  0  0  0
 86169  1  0  0  0  0
 86170  1  0  0  0  0
 87171  1  0  0  0  0
 87172  1  0  0  0  0
 87173  1  0  0  0  0
102174  1  0  0  0  0
102175  1  0  0  0  0
103176  1  0  0  0  0
103177  1  0  0  0  0
103178  1  0  0  0  0
115179  1  0  0  0  0
120180  1  0  0  0  0
123181  1  0  0  0  0
131182  1  0  0  0  0
132183  1  0  0  0  0
133184  1  0  0  0  0
134185  1  0  0  0  0
135186  1  0  0  0  0
136187  1  0  0  0  0
136188  1  0  0  0  0
137189  1  0  0  0  0
M  END
