223

C          2.33840       -0.31950       -7.82060
C          2.05180        0.62290       -8.77860
C          1.33430        1.88600       -8.57940
O          1.15240        2.48720       -7.53360
C          0.89720        2.32280       -9.91720
C          0.09310        3.41840      -10.22160
C         -0.14450        3.58010      -11.56560
C          0.38170        2.71780      -12.53570
C          1.17220        1.62960      -12.24790
C          1.42020        1.44150      -10.88530
C          2.19670        0.40800      -10.20030
C          2.91780       -0.58900      -10.81230
C          2.90580       -0.84200      -12.19770
N          2.90180       -1.12480      -13.31140
C          3.78630       -1.47920      -10.15150
N          4.54140       -2.21350       -9.69090
C         -0.26780        3.46910      -13.67160
C         -1.53230        2.83180      -14.28540
C         -2.20290        3.97960      -15.00530
C         -2.70210        4.79590      -14.08610
C         -2.37730        4.21390      -12.72930
C         -2.44910        2.71770      -13.06050
C         -0.85560        4.43040      -12.58910
C          2.02060       -0.34160       -6.46020
C          2.05420       -1.50550       -5.65720
N          2.34690       -2.77960       -6.08370
C          3.00620       -3.64900       -5.19790
C          2.65180       -4.99400       -5.13100
C          3.33460       -5.85790       -4.30020
C          4.38690       -5.38820       -3.52470
S          5.35240       -6.45120       -2.49820
C          5.30280       -8.01040       -3.43630
C          4.71890       -4.03810       -3.55620
C          4.03920       -3.17600       -4.38830
C          1.99100       -3.24740       -7.36030
C          2.84500       -4.10030       -8.05980
C          2.52650       -4.50350       -9.33750
C          1.36190       -4.05100       -9.95240
S          1.08660       -4.56320      -11.61780
C         -0.11100       -3.34670      -12.23740
C          0.48340       -3.24300       -9.23910
C          0.78980       -2.85720       -7.95020
C          1.70400       -1.20440       -4.32980
S          1.52350       -2.14350       -2.88830
C          1.05240       -0.70510       -1.97430
C          1.06770        0.44080       -2.76020
N          0.86050        1.75170       -2.34670
C          1.51680        2.27900       -1.23090
C          1.05940        3.46630       -0.65190
C          1.72490        4.03180        0.41020
C          2.86340        3.42470        0.93960
S          3.61810        4.23390        2.31510
C          4.92060        3.08170        2.83680
C          3.31760        2.23940        0.37880
C          2.65220        1.67630       -0.69530
C          0.32060        2.61470       -3.32200
C         -0.76920        2.18190       -4.07670
C         -1.27120        2.95810       -5.09720
C         -0.68900        4.18480       -5.39060
S         -1.35680        5.11530       -6.73550
C          0.11020        6.00480       -7.33740
C          0.38220        4.63320       -4.63030
C          0.88800        3.85220       -3.61110
C          1.41330        0.13300       -4.10250
S          1.51950        1.07840       -5.54290
C          0.79700       -0.94210       -0.59160
C         -0.01520       -0.32570        0.35170
N         -0.80130        0.81400        0.22520
C         -1.71400        0.99130       -0.81510
C         -2.24730        2.25760       -1.05040
C         -3.18160        2.46370       -2.04410
C         -3.60440        1.40220       -2.83290
S         -4.76470        1.55600       -4.15430
C         -4.99280        3.34790       -4.32770
C         -3.08090        0.13200       -2.59870
C         -2.14750       -0.07390       -1.60530
C         -0.94620        1.54600        1.42650
C         -2.19200        1.83290        1.97830
C         -2.28480        2.39010        3.23940
C         -1.13680        2.67560        3.96820
S         -1.17340        3.28300        5.62790
C         -2.65950        2.48290        6.30410
C          0.11020        2.45800        3.38990
C          0.20260        1.88880        2.14020
C          0.02730       -1.03410        1.57960
S         -0.76320       -0.79900        3.09200
C          0.03860       -2.21020        3.76820
C          0.88100       -2.83180        2.84830
N          1.71210       -3.90750        3.08610
C          1.92090       -4.84700        2.06730
C          0.88060       -5.19900        1.20630
C          1.07840       -6.15060        0.23030
C          2.31350       -6.77730        0.10160
S          2.46450       -8.03840       -1.12380
C          3.78170       -9.08650       -0.43370
C          3.36250       -6.40750        0.93330
C          3.16570       -5.45080        1.90770
C          2.32690       -4.06510        4.33770
C          2.44040       -5.32660        4.91890
C          2.92140       -5.46780        6.20470
C          3.29690       -4.34690        6.93500
S          3.83660       -4.41560        8.61030
C          3.17170       -6.00080        9.19300
C          3.25240       -3.09220        6.33130
C          2.77490       -2.95180        5.04750
C          0.83420       -2.15620        1.60030
S          1.58900       -2.38580        0.06320
C         -0.21910       -2.43060        5.14930
S         -0.78530       -1.03980        6.06190
C         -0.82680       -1.96770        7.51080
C         -1.21020       -1.56260        8.79120
C         -1.12180       -2.50350        9.82610
O         -0.67510       -3.76460        9.63680
C         -0.30420       -4.22340        8.40030
O          0.10360       -5.35650        8.31200
C         -0.41440       -3.28410        7.29490
C         -0.10180       -3.54190        5.94970
C         -1.54070       -1.98450       11.04320
C         -1.95800       -0.65560       10.95650
S         -1.81890       -0.04190        9.32300
C         -2.42480        0.05510       12.07630
C         -2.87300        1.34520       12.17770
C         -2.96710        2.31360       11.07810
O         -2.69730        2.12900        9.90180
C         -3.46440        3.56520       11.66450
C         -3.69060        4.76960       11.00040
C         -4.15640        5.77520       11.81260
C         -4.37760        5.59730       13.18510
C         -4.15390        4.41620       13.85260
C         -3.68300        3.37640       13.04480
C         -3.33450        1.99900       13.38970
C         -3.44390        1.44450       14.63870
C         -3.91540        2.12910       15.77920
N         -4.29080        2.61550       16.74920
C         -3.11900        0.11640       14.98730
N         -2.88320       -0.94390       15.36150
C         -4.85020        7.01680       13.37460
C         -6.37430        7.22350       13.50540
C         -6.56800        8.69040       13.19540
C         -6.35870        8.85930       11.89610
C         -6.02000        7.50940       11.30580
C         -6.88510        6.60790       12.19630
C         -4.60360        7.21530       11.84450
H          2.80640       -1.22660       -8.17910
H         -0.30060        4.05170       -9.44290
H          1.56770        0.97560      -13.00710
H          0.40900        3.87780      -14.41950
H         -1.35240        1.92950      -14.86360
H         -2.19640        4.10400      -16.07220
H         -3.19610        5.73860      -14.23210
H         -2.96740        4.56990      -11.88900
H         -2.06260        2.07100      -12.27490
H         -3.45660        2.40340      -13.32820
H         -0.57080        5.48070      -12.61650
H          1.83650       -5.36130       -5.73610
H          3.03390       -6.89200       -4.25210
H          6.10500       -8.62740       -3.04350
H          4.34780       -8.50750       -3.29390
H          5.47860       -7.79560       -4.48550
H          5.52960       -3.67820       -2.94170
H          4.32490       -2.13580       -4.43880
H          3.77340       -4.41560       -7.61060
H          3.19760       -5.14270       -9.88850
H          0.23390       -2.34440      -12.00120
H         -1.09710       -3.53460      -11.82230
H         -0.13290       -3.48200      -13.31400
H         -0.44670       -2.91540       -9.67570
H          0.10360       -2.22820       -7.40210
H          0.18000        3.94640       -1.05140
H          1.36710        4.94860        0.85260
H          5.35840        3.52100        3.72770
H          4.48610        2.11580        3.07770
H          5.67660        2.99310        2.06200
H          4.19730        1.74340        0.75680
H          3.04190        0.76960       -1.13240
H         -1.19540        1.21160       -3.87890
H         -2.09740        2.60320       -5.69400
H          0.34560        6.83970       -6.68350
H          0.93620        5.30190       -7.39550
H         -0.14270        6.38010       -8.32460
H          0.84720        5.58380       -4.83770
H          1.74610        4.19650       -3.05350
H         -1.93110        3.08710       -0.43670
H         -3.56910        3.45810       -2.19410
H         -5.50080        3.74750       -3.45460
H         -5.61740        3.47790       -5.20610
H         -4.03150        3.82910       -4.48410
H         -3.41760       -0.69460       -3.20600
H         -1.76550       -1.06810       -1.43000
H         -3.09110        1.58160        1.43520
H         -3.26020        2.57600        3.66100
H         -3.55230        3.02890        6.01260
H         -2.69470        1.45650        5.95240
H         -2.54940        2.49910        7.38460
H          1.00060        2.70900        3.94450
H          1.16690        1.65030        1.72180
H         -0.09110       -4.74290        1.32520
H          0.27100       -6.43330       -0.42740
H          3.57610       -9.26860        0.61650
H          3.74640      -10.02040       -0.98620
H          4.74970       -8.61250       -0.56760
H          4.33940       -6.84840        0.82010
H          3.98240       -5.16540        2.55390
H          2.11750       -6.19830        4.36850
H          2.97360       -6.45250        6.63830
H          3.27340       -5.98130       10.27370
H          2.12280       -6.06900        8.91620
H          3.75010       -6.82520        8.78580
H          3.58020       -2.22840        6.88910
H          2.72550       -1.97300        4.59390
H          0.17730       -4.51660        5.60080
H         -1.54970       -2.54180       11.96180
H         -2.41310       -0.53520       12.98400
H         -3.49890        4.86440        9.94300
H         -4.32280        4.30150       14.90990
H         -4.27730        7.61770       14.07810
H         -6.80490        6.85790       14.43350
H         -6.77610        9.43790       13.93800
H         -6.35680        9.77610       11.33640
H         -6.12860        7.40460       10.22970
H         -6.67280        5.54540       12.09250
H         -7.94940        6.78250       12.04780
H         -3.86580        7.94910       11.52600
