171

C         -3.40680        2.99440       -4.63870
C         -2.71200        4.05880       -5.17110
C         -1.30640        4.39100       -4.94000
O         -0.46810        3.73440       -4.34060
C         -1.06510        5.68260       -5.60230
C          0.13170        6.39420       -5.63940
C          0.04910        7.58440       -6.32170
C         -1.13520        8.03170       -6.92140
C         -2.31930        7.33150       -6.90090
C         -2.25790        6.11660       -6.21310
C         -3.28040        5.08950       -6.00870
C         -4.53760        5.11040       -6.56360
C         -5.45960        4.04820       -6.54980
N         -6.25700        3.22420       -6.64280
C         -5.07720        6.19030       -7.29030
N         -5.60430        7.02980       -7.87140
C         -0.49740        9.30640       -7.41610
C         -0.81390       10.59060       -6.62040
C          0.28990       11.54360       -7.01890
C          1.41330       11.11830       -6.45520
C          1.08770        9.87090       -5.66590
C         -0.33800       10.21020       -5.21240
C          0.82450        8.80510       -6.75060
C         -2.99460        1.99070       -3.76220
C         -3.83950        0.94310       -3.31230
N         -5.19200        0.85270       -3.52760
C         -6.02940        1.97890       -3.46460
C         -5.74030        3.03090       -2.59250
C         -6.53150        4.15590       -2.58080
C         -7.64140        4.24810       -3.42050
S         -8.55740        5.75470       -3.37310
C         -9.48560        5.72050       -4.93320
C         -7.97210        3.17450       -4.23480
C         -7.16480        2.05400       -4.26600
C         -5.76390       -0.42350       -3.66920
C         -5.14230       -1.37660       -4.47040
C         -5.68820       -2.63600       -4.62160
C         -6.87330       -2.96030       -3.97470
S         -7.67020       -4.52780       -4.08860
C         -6.62810       -5.47180       -5.23680
C         -7.50060       -2.00480       -3.17470
C         -6.95420       -0.75180       -3.02070
C         -3.11220       -0.00830       -2.57610
S         -3.51180       -1.50620       -1.79710
C         -1.87260       -1.64880       -1.17950
C         -1.07540       -0.56910       -1.53500
N          0.25390       -0.38660       -1.18830
C          1.07940        0.29630       -2.10030
C          1.01810       -0.01190       -3.45710
C          1.73460        0.72750       -4.37610
C          2.52820        1.78240       -3.94940
S          3.40280        2.81600       -5.08760
C          2.16450        2.98140       -6.41050
C          2.64620        2.05040       -2.59100
C          1.92500        1.31900       -1.67350
C          0.68170       -0.55230        0.13070
C          1.99160       -0.95810        0.38150
C          2.43940       -1.09680        1.67750
C          1.58120       -0.82380        2.73020
S          2.13990       -0.98070        4.41600
C          2.94200        0.64340        4.59750
C          0.27950       -0.41560        2.49260
C         -0.17270       -0.28190        1.19790
C         -1.78670        0.33920       -2.35960
S         -1.34780        1.81110       -3.14730
C         -1.55780       -2.87200       -0.50580
C         -2.15300       -4.10330       -0.70230
C         -1.43160       -5.01790        0.07760
C         -0.46510       -4.28960        0.72930
O         -0.54130       -2.99160        0.37510
C          0.50710       -4.75370        1.71050
C          1.33980       -5.81500        1.41660
F          1.29370       -6.37990        0.20040
C          2.24050       -6.33520        2.35510
F          3.01810       -7.36590        1.99610
C          2.36940       -5.79410        3.61900
C          1.47120       -4.74570        3.97540
N          1.41800       -4.34330        5.25690
C          0.47580       -3.51850        5.63750
C          0.42230       -3.22290        7.10700
C          1.11570       -1.90970        7.46880
C         -0.46220       -3.01250        4.69000
N         -0.39740       -3.35950        3.42900
C          0.54100       -4.23800        3.03370
C         -1.63980       -2.17180        5.07950
C         -2.81750       -3.07340        5.46230
C          3.26180       -6.34890        4.61110
C          3.94030       -5.64530        5.53820
C          4.45720       -6.29270        6.78360
O          4.56060       -7.47820        6.99100
C          4.74730       -5.17730        7.70430
C          5.11970       -5.25830        9.04580
C          5.31090       -4.03930        9.65010
C          5.13050       -2.82010        8.98030
C          4.77380       -2.72270        7.65780
C          4.58970       -3.95280        7.02130
C          4.23900       -4.22690        5.63580
C          4.43610       -3.37050        4.59060
C          4.23160       -3.70550        3.23780
N          4.11570       -3.89920        2.11220
C          5.01590       -2.09000        4.72010
N          5.55110       -1.07420        4.75080
C          5.48930       -2.00580       10.19720
C          6.89600       -1.35990       10.23560
C          7.78150       -2.21620        9.36410
C          7.96870       -3.37050        9.98970
C          7.21390       -3.31580       11.29510
C          7.35650       -1.82170       11.62720
C          5.70660       -3.36240       10.93900
H         -4.44510        2.91830       -4.93610
H          1.02110        6.01160       -5.16330
H         -3.21890        7.68750       -7.37450
H         -0.51390        9.45900       -8.49360
H         -1.83360       10.95100       -6.72490
H          0.15540       12.36940       -7.69270
H          2.40460       11.51770       -6.56390
H          1.80070        9.57560       -4.90090
H         -0.87560        9.37180       -4.77340
H         -0.36160       11.05650       -4.52770
H          1.68930        8.62060       -7.38530
H         -4.88150        2.96700       -1.94110
H         -6.30050        4.97920       -1.92260
H         -9.86660        6.72750       -5.07170
H         -8.81400        5.46160       -5.74630
H        -10.31360        5.02060       -4.86570
H         -8.83950        3.20570       -4.87250
H         -7.40710        1.23990       -4.93050
H         -4.22770       -1.12410       -4.98640
H         -5.18230       -3.34910       -5.25180
H         -7.11180       -6.43810       -5.34080
H         -6.59210       -4.97290       -6.20080
H         -5.63410       -5.60120       -4.81900
H         -8.41920       -2.26500       -2.67200
H         -7.44050       -0.02020       -2.39350
H          0.39230       -0.82700       -3.79080
H          1.66500        0.48160       -5.42410
H          2.43600        3.86650       -6.97740
H          1.19130        3.11020       -5.94730
H          2.17960        2.11170       -7.06100
H          3.28190        2.85910       -2.26570
H          1.98700        1.56020       -0.62290
H          2.65270       -1.16840       -0.44510
H          3.45080       -1.41800        1.86950
H          3.13330        0.78080        5.65650
H          3.87990        0.64460        4.04930
H          2.26930        1.41180        4.22970
H         -0.36610       -0.18530        3.32530
H         -1.18400        0.04570        1.00810
H         -2.98690       -4.30790       -1.34260
H         -1.60180       -6.07110        0.16680
H          0.93160       -4.04070        7.62040
H         -0.61510       -3.19070        7.44150
H          1.07470       -1.75630        8.54460
H          0.64190       -1.06620        6.97480
H          2.15590       -1.94280        7.15910
H         -1.38730       -1.51100        5.90770
H         -1.93250       -1.57550        4.21550
H         -2.56500       -3.71860        6.30090
H         -3.67680       -2.46710        5.73800
H         -3.09010       -3.70100        4.61750
H          3.31340       -7.43050        4.67440
H          5.24200       -6.21380        9.53150
H          4.64050       -1.78370        7.14500
H          4.71400       -1.33970       10.57110
H          6.90890       -0.29270       10.03140
H          8.12080       -1.92520        8.38740
H          8.49790       -4.23750        9.64010
H          7.51930       -4.02880       12.05630
H          6.70220       -1.49130       12.43290
H          8.38380       -1.53550       11.84680
H          5.08370       -3.57760       11.80520
