205

C          6.79000       -2.67720        3.07000
C          7.54220       -2.03040        4.02650
C          6.97190       -1.21350        5.11080
O          5.79500       -0.96850        5.30700
C          8.10820       -0.85930        5.98630
C          8.06990       -0.08750        7.14290
C          9.30070        0.11790        7.72130
C         10.48280       -0.41410        7.19240
C         10.53240       -1.19580        6.06240
C          9.29250       -1.41080        5.45890
C          8.95900       -2.13700        4.23690
C          9.85670       -2.67190        3.34490
C         11.25200       -2.69230        3.52290
N         12.39880       -2.73500        3.58550
C          9.49850       -3.18670        2.08350
N          9.29410       -3.56820        1.01890
C         11.33900        0.21080        8.26390
C         12.13850        1.48420        7.89340
C         11.37940        2.16820        6.78300
C         10.26680        2.66840        7.30420
C         10.24970        2.32460        8.77270
C         11.75440        2.38300        9.07990
C         10.02070        0.79550        8.86200
C          5.53290       -2.26910        2.61360
C          4.92240       -0.99950        2.59690
N          5.47360        0.20320        2.94580
C          4.58630        1.24220        3.30110
C          3.57950        0.99990        4.23140
C          2.60530        1.94930        4.46420
C          2.63040        3.14930        3.76450
S          1.33580        4.34440        3.88920
C         -0.10700        3.29610        4.25550
C          3.69860        3.43690        2.91880
C          4.67260        2.48950        2.68680
C          6.84230        0.47450        2.88640
C          7.42410        1.30390        3.84890
C          8.78150        1.52940        3.84220
C          9.59370        0.94240        2.87200
S         11.32250        1.23090        3.01580
C         12.04470        0.38500        1.58370
C          9.01020        0.16880        1.87450
C          7.64990       -0.06280        1.88560
C          3.62210       -1.09100        2.04600
S          2.40010        0.07670        1.70010
C          1.36190       -1.15890        0.98860
C          1.97720       -2.41020        0.97740
N          1.47840       -3.59690        0.47350
C          1.77530       -4.77500        1.18200
C          2.18500       -5.92920        0.51450
C          2.48850       -7.06680        1.22570
C          2.39790       -7.07990        2.61770
S          2.82160       -8.59420        3.41380
C          2.65780       -8.22270        5.18320
C          1.98780       -5.93370        3.28500
C          1.67630       -4.79400        2.56990
C          0.81030       -3.67130       -0.75050
C         -0.16800       -4.64580       -0.95050
C         -0.86710       -4.70720       -2.13650
C         -0.60300       -3.79280       -3.14890
S         -1.49260       -3.77490       -4.67260
C         -2.01250       -5.50940       -4.84950
C          0.38420       -2.82960       -2.96350
C          1.09040       -2.77250       -1.78140
C          3.25330       -2.34800        1.59850
S          4.51590       -3.50010        1.84450
C          0.08560       -0.68830        0.57530
C         -0.32160        0.61900        0.69380
C         -1.61470        0.87360        0.19630
C         -2.27790        2.11250        0.09720
C         -1.63520        3.36980        0.50120
C         -2.29730        4.28630        1.31270
C         -1.71890        5.49070        1.66160
C         -0.45190        5.83480        1.19200
O          0.18950        6.99500        1.41020
C         -0.36140        7.97380        2.27360
C         -0.17800        7.62380        3.74550
C          0.21770        4.90440        0.37730
C          1.56340        5.27870       -0.17310
F          2.44140        5.66270        0.76600
F          1.49240        6.29160       -1.05610
F          2.15410        4.26150       -0.82610
C         -0.36370        3.69670        0.03950
C         -3.54590        2.09410       -0.46170
C         -4.13760        0.90710       -0.96610
C         -3.44240       -0.31780       -0.94440
C         -3.95460       -1.46960       -1.69370
C         -4.39810       -1.28120       -3.00390
C         -4.91960       -2.31580       -3.74840
C         -5.01510       -3.59680       -3.20490
O         -5.55540       -4.66760       -3.81380
C         -6.20860       -4.51080       -5.06750
C         -5.24260       -4.56300       -6.24510
C         -4.51740       -3.79810       -1.90510
C         -3.99560       -2.75210       -1.16270
C         -4.61490       -5.17260       -1.31260
F         -4.02890       -5.26460       -0.10710
F         -4.02430       -6.11700       -2.07160
F         -5.88430       -5.57810       -1.13960
C         -2.22050       -0.31190       -0.29880
S         -1.17590       -1.69200       -0.10710
C         -5.41040        1.14530       -1.51870
C         -5.76140        2.46900       -1.53670
S         -4.55190        3.48530       -0.79120
C         -6.85280        3.00890       -2.28940
C         -7.93520        2.24370       -2.71040
F         -8.19370        1.05220       -2.13860
C         -8.74070        2.60870       -3.79080
F         -9.70250        1.73970       -4.16010
C         -8.55700        3.77620       -4.51890
C         -7.62850        4.68850       -3.96180
C         -6.78220        4.30510       -2.86200
N         -5.92020        5.26340       -2.54240
S         -6.14850        6.51780       -3.51930
N         -7.34440        5.90910       -4.40520
C         -9.18340        4.02020       -5.79180
C         -9.38170        3.09600       -6.75850
C        -10.31800        3.36560       -7.88920
O        -10.75750        4.44020       -8.22290
C        -10.62410        2.04020       -8.45960
C        -11.54090        1.75040       -9.46900
C        -11.61810        0.41660       -9.79010
C        -10.84570       -0.56580       -9.15280
C         -9.93500       -0.29660       -8.16050
C         -9.83670        1.05680       -7.82150
C         -8.94600        1.71220       -6.87370
C         -7.79430        1.17060       -6.36690
C         -7.41660       -0.18330       -6.47220
N         -7.04860       -1.27170       -6.46300
C         -6.78350        1.89960       -5.70540
N         -5.88110        2.41620       -5.21690
C        -11.44420       -1.68170       -9.97170
C        -12.50990       -2.55500       -9.27620
C        -13.23920       -3.21650      -10.42340
C        -13.96890       -2.28710      -11.02710
C        -13.74540       -0.98170      -10.29810
C        -13.55340       -1.50660       -8.86940
C        -12.30330       -0.58740      -10.68300
H          7.17500       -3.59120        2.63360
H          7.13810        0.30940        7.51550
H         11.44790       -1.60910        5.67290
H         11.91780       -0.47660        8.87780
H         13.19670        1.31510        7.71400
H         11.69370        2.16670        5.75540
H          9.46430        3.18010        6.80490
H          9.58790        2.91850        9.39810
H         12.16230        3.38920        8.99590
H         12.01690        1.95920       10.04840
H          9.73200        0.47640        9.86190
H          3.57290        0.05950        4.76030
H          1.82580        1.74290        5.18010
H         -0.05970        2.39830        3.64700
H         -0.98170        3.87790        3.98200
H         -0.14300        3.05070        5.31290
H          3.73390        4.39130        2.41910
H          5.47780        2.69390        1.99730
H          6.80210        1.74710        4.61150
H          9.23820        2.14250        4.60260
H         11.86970       -0.68460        1.65110
H         11.63990        0.80000        0.66540
H         13.11080        0.58140        1.64020
H          9.60280       -0.27190        1.08910
H          7.21360       -0.67280        1.10900
H          2.27220       -5.92140       -0.56130
H          2.81200       -7.96000        0.71400
H          1.62590       -7.97970        5.41930
H          3.32900       -7.41360        5.45570
H          2.94830       -9.13220        5.69970
H          1.90010       -5.91270        4.35890
H          1.35010       -3.90710        3.09360
H         -0.39950       -5.34140       -0.15860
H         -1.62740       -5.46050       -2.25750
H         -1.18760       -6.15680       -4.57000
H         -2.24660       -5.64160       -5.90110
H         -2.89070       -5.71190       -4.24480
H          0.59280       -2.12860       -3.75680
H          1.86010       -2.02670       -1.64900
H          0.30790        1.38170        1.11660
H         -3.28110        4.04730        1.68750
H         -2.27120        6.16950        2.29090
H          0.20140        8.87970        2.03480
H         -1.41720        8.14760        2.03300
H         -0.52650        8.44730        4.36210
H          0.87370        7.44320        3.94950
H         -0.72970        6.72540        4.00910
H          0.16240        3.01980       -0.61580
H         -4.31550       -0.30440       -3.45680
H         -5.25810       -2.11490       -4.75150
H         -6.78650       -3.58160       -5.08110
H         -6.90160       -5.35520       -5.11370
H         -5.78780       -4.36280       -7.16280
H         -4.78530       -5.54680       -6.31120
H         -4.45640       -3.82010       -6.13640
H         -3.64980       -2.93630       -0.15730
H         -6.02330        0.36200       -1.92230
H         -9.51650        5.03130       -5.99230
H        -12.11390        2.53440       -9.93830
H         -9.34800       -1.05740       -7.67250
H        -10.74080       -2.26110      -10.56670
H        -12.12550       -3.20870       -8.49820
H        -13.11080       -4.24590      -10.70190
H        -14.57150       -2.38500      -11.91080
H        -14.48690       -0.20240      -10.45110
H        -14.45990       -1.96120       -8.47360
H        -13.18410       -0.76120       -8.16750
H        -12.17400       -0.43710      -11.75300
