234

C         -7.47580       -0.81140       -0.30550
C         -7.55610        0.49410       -0.67140
C         -6.43390        1.44740       -0.47080
O         -5.35390        1.21340        0.03630
C         -6.83770        2.69220       -1.13240
C         -6.09250        3.86690       -1.21110
C         -6.70800        4.86700       -1.92290
C         -7.96740        4.70980       -2.51900
C         -8.71160        3.55510       -2.44920
C         -8.10610        2.52040       -1.72760
C         -8.56900        1.16010       -1.46720
C         -9.74080        0.60130       -1.90810
C        -10.14340       -0.72420       -1.65680
N        -10.54720       -1.78770       -1.49080
C        -10.70420        1.27400       -2.68880
N        -11.53000        1.76080       -3.32040
C         -7.95420        6.10470       -3.09470
C         -7.62820        6.22400       -4.59900
C         -7.21110        7.66780       -4.76550
C         -6.02060        7.81270       -4.19740
C         -5.61330        6.47030       -3.63520
C         -6.25510        5.54390       -4.67610
C         -6.55300        6.27830       -2.42550
C         -6.38380       -1.24650        0.52320
C         -5.26180       -1.94800        0.11530
N         -5.04900       -2.47990       -1.14240
C         -3.79360       -2.22420       -1.73850
C         -3.22180       -0.95670       -1.62950
C         -1.96100       -0.71840       -2.12700
C         -1.24910       -1.73900       -2.75330
S          0.37890       -1.31660       -3.29860
C          0.94700       -2.78360       -4.20460
C         -1.83030       -2.99120       -2.90040
C         -3.09640       -3.23040       -2.39590
C         -6.11640       -2.95780       -1.90010
C         -6.15770       -2.76160       -3.28280
C         -7.24280       -3.19060       -4.01130
C         -8.31730       -3.82240       -3.38470
S         -9.67090       -4.29590       -4.40520
C        -11.01590       -4.55990       -3.21600
C         -8.26300       -4.05690       -2.01660
C         -7.17260       -3.63030       -1.28510
C         -4.23530       -1.84650        1.08800
S         -2.57750       -2.31740        1.10060
C         -2.31390       -1.38470        2.56980
C         -3.47590       -0.85310        3.08220
N         -3.56560       -0.24960        4.34420
C         -4.18610        0.98280        4.51730
C         -4.40720        1.48560        5.79940
C         -4.95610        2.73640        5.99130
C         -5.28480        3.52800        4.90130
S         -5.95450        5.15740        5.03910
C         -5.69590        5.57670        6.78690
C         -5.05900        3.03990        3.61870
C         -4.50900        1.79280        3.42540
C         -3.48150       -1.18430        5.41160
C         -2.28530       -1.82970        5.68940
C         -2.20960       -2.78850        6.68300
C         -3.33940       -3.11790        7.41680
S         -3.36260       -4.32300        8.70730
C         -1.77870       -5.19110        8.51230
C         -4.54380       -2.47170        7.14300
C         -4.61730       -1.52330        6.14700
C         -4.57090       -1.11220        2.21250
S         -6.21210       -0.57850        2.13640
C         -0.93040       -1.07400        2.80990
C         -0.35500        0.17980        2.75810
N         -1.04620        1.40080        2.82400
C         -1.17680        2.11430        1.60200
C         -2.09020        1.67640        0.64900
C         -2.29280        2.40730       -0.50140
C         -1.56700        3.57260       -0.73690
S         -1.96410        4.45030       -2.21740
C         -0.71110        5.75940       -2.30720
C         -0.61650        3.98420        0.18810
C         -0.42940        3.25950        1.35080
C         -1.22200        2.04810        4.03670
C         -1.85020        3.29600        4.09290
C         -2.08220        3.90750        5.30120
C         -1.71840        3.28810        6.49360
S         -2.14350        4.14310        7.98500
C         -1.54260        3.05130        9.30270
C         -1.08010        2.06030        6.44930
C         -0.82330        1.45640        5.23300
C          1.03540        0.08470        2.50030
S          2.23000        1.23460        2.01390
C          3.35530       -0.06310        1.65180
C          2.83360       -1.31720        1.91340
N          3.45250       -2.52790        1.63510
C          4.11530       -2.71470        0.41050
C          5.32220       -3.41440        0.36150
C          5.99770       -3.54730       -0.83020
C          5.49090       -2.98350       -2.00110
S          6.47790       -3.16760       -3.45200
C          5.34700       -2.73880       -4.80550
C          4.28040       -2.30630       -1.96130
C          3.59720       -2.18020       -0.76600
C          3.25770       -3.58890        2.52320
C          3.11830       -3.33870        3.88670
C          2.87500       -4.36730        4.77540
C          2.77580       -5.67250        4.31600
S          2.45580       -7.06600        5.35430
C          2.00430       -6.31850        6.94730
C          2.94390       -5.93220        2.95720
C          3.17770       -4.90650        2.06980
C          1.50800       -1.21240        2.40000
S          0.24760       -2.36740        2.65130
C          4.49560        0.20810        0.81900
C          4.39070        0.77450       -0.41210
C          5.55080        0.61660       -1.20440
C          5.65730        0.83480       -2.58640
C          4.52780        1.41230       -3.29810
S          3.73760        0.60020       -4.61530
C          2.49130        1.79390       -4.73040
C          1.37470        1.67770       -5.70790
C          1.87900        1.38250       -7.11810
C          2.70200        2.76640       -3.80190
F          1.89740        3.83250       -3.65020
C          3.84000        2.55070       -2.98760
F          4.21200        3.40470       -2.02300
C          6.82280        0.40990       -3.20810
C          7.89660       -0.17710       -2.48620
C          7.77670       -0.42490       -1.09940
C          8.81140       -1.10930       -0.35000
S          9.28420       -0.55770        1.23030
C         10.44320       -1.82590        1.42750
C         11.25880       -1.96610        2.66550
C         10.37940       -2.25940        3.88140
C         10.44130       -2.62870        0.32650
C          9.53070       -2.22660       -0.67990
F          9.36940       -2.92230       -1.81110
F         11.23110       -3.70490        0.20080
C          6.59370       -0.02720       -0.49520
S          6.10280       -0.40180        1.13790
C          8.98290       -0.44780       -3.33430
C          8.75360       -0.14430       -4.66090
S          7.15600        0.52680       -4.90910
C          9.74090       -0.34850       -5.65140
C          9.69440       -0.16510       -7.00030
C          8.51620        0.24960       -7.80120
O          7.41070        0.54430       -7.39460
C          8.96770        0.21680       -9.19810
C          8.42590        0.46880      -10.46750
C          9.36660        0.27180      -11.44090
Cl         9.14180        0.46430      -13.11780
S         10.92750       -0.22200      -10.82700
C         10.30190       -0.16520       -9.23000
C         10.81150       -0.40160       -7.91040
C         12.10820       -0.75200       -7.62430
C         13.04430       -0.93200       -8.66400
N         13.81010       -1.08450       -9.50500
C         12.65380       -0.94300       -6.34160
N         13.16840       -1.09850       -5.32640
H         -8.18070       -1.54230       -0.67850
H         -5.12260        3.94410       -0.74480
H         -9.67820        3.44990       -2.91340
H         -8.76770        6.75620       -2.78210
H         -8.40710        5.86000       -5.26350
H         -7.82910        8.42200       -5.21610
H         -5.44690        8.71320       -4.07860
H         -4.55920        6.32180       -3.41780
H         -5.79810        5.65120       -5.65830
H         -6.26040        4.49370       -4.39090
H         -6.43000        7.04470       -1.66300
H         -3.77470       -0.16660       -1.14430
H         -1.51110        0.25800       -2.03170
H          1.09050       -3.61350       -3.51830
H          1.89630       -2.50130       -4.64990
H          0.23490       -3.03310       -4.98550
H         -1.30490       -3.79650       -3.38840
H         -3.54210       -4.20840       -2.49970
H         -5.34380       -2.24960       -3.77410
H         -7.28330       -3.02420       -5.07680
H        -10.86090       -5.48680       -2.67130
H        -11.92250       -4.63040       -3.80880
H        -11.06900       -3.70470       -2.54790
H         -9.06530       -4.56630       -1.50910
H         -7.13250       -3.82400       -0.22310
H         -4.12870        0.90150        6.66300
H         -5.10800        3.08510        6.99970
H         -4.66010        5.39530        7.06020
H         -5.92440        6.63450        6.87210
H         -6.37390        5.00410        7.41340
H         -5.30410        3.65620        2.76710
H         -4.31010        1.46900        2.41750
H         -1.40220       -1.58630        5.12160
H         -1.26150       -3.26550        6.87320
H         -0.95420       -4.54050        8.79040
H         -1.82290       -6.03570        9.19270
H         -1.68010       -5.54420        7.49000
H         -5.42270       -2.73730        7.71030
H         -5.55930       -1.04510        5.92300
H         -2.65930        0.77810        0.82240
H         -3.03560        2.09840       -1.22050
H          0.27980        5.31740       -2.32530
H         -0.82840        6.44760       -1.47510
H         -0.89700        6.27780       -3.24280
H         -0.02260        4.86870        0.02310
H          0.29380        3.59420        2.08020
H         -2.17060        3.78060        3.18500
H         -2.56200        4.87370        5.33180
H         -0.46460        2.94000        9.22820
H         -2.04400        2.08930        9.24360
H         -1.79850        3.54520       10.23480
H         -0.77000        1.55560        7.35060
H         -0.30870        0.50760        5.21970
H          5.72710       -3.83780        1.26830
H          6.93460       -4.08050       -0.87160
H          4.44870       -3.34450       -4.73370
H          5.88340       -2.97800       -5.71840
H          5.11350       -1.67830       -4.78980
H          3.85970       -1.86330       -2.84980
H          2.65180       -1.65740       -0.74780
H          3.20770       -2.32790        4.25690
H          2.77610       -4.13440        5.82340
H          1.19420       -5.61020        6.80110
H          1.66980       -7.14000        7.57300
H          2.86940       -5.84200        7.39950
H          2.87380       -6.95010        2.60570
H          3.28580       -5.11750        1.01680
H          3.46770        1.19170       -0.77140
H          0.70680        0.87340       -5.38370
H          0.80820        2.61120       -5.69350
H          1.04090        1.30020       -7.80480
H          2.43590        0.44810       -7.13160
H          2.53510        2.17790       -7.46330
H         11.81660       -1.04270        2.83950
H         11.97360       -2.77750        2.51560
H         10.99450       -2.35160        4.77220
H          9.66370       -1.45420        4.03070
H          9.83220       -3.18820        3.73920
H          9.92160       -0.85170       -3.00260
H         10.67480       -0.71550       -5.24150
H          7.41460        0.77540      -10.65730
