208

C         -1.01810       -8.52090        1.85270
C         -0.76030       -9.64290        1.09800
C         -0.46840       -9.67400       -0.33480
O         -0.36040       -8.72510       -1.09790
C         -0.39300      -11.09400       -0.71460
C         -0.10790      -11.61140       -1.97620
C         -0.11400      -12.98480       -2.02960
C         -0.38920      -13.78370       -0.91260
C         -0.66450      -13.28460        0.33940
C         -0.65700      -11.88940        0.41860
C         -0.86570      -11.00550        1.56660
C         -1.08610      -11.42030        2.85810
C         -1.14860      -10.58160        3.98770
N         -1.18260       -9.97500        4.96400
C         -1.25200      -12.76520        3.24550
N         -1.41480      -13.83590        3.62820
C         -0.22030      -15.06670       -1.68850
C          1.10140      -15.83330       -1.47380
C          1.19560      -16.73890       -2.68070
C          1.46460      -15.97970       -3.73510
C          1.55530      -14.54780       -3.25900
C          2.14070      -14.77250       -1.85880
C          0.09330      -14.17490       -2.93270
C         -0.90120       -7.17060        1.52510
C         -1.24670       -6.11780        2.40810
N         -1.88390       -6.24820        3.61590
C         -1.56700       -5.32720        4.63190
C         -0.23420       -4.98210        4.86120
C          0.08660       -4.05910        5.82940
C         -0.91240       -3.46830        6.60180
S         -0.39110       -2.28070        7.79500
C         -1.77560       -2.21670        8.96680
C         -2.23900       -3.82250        6.38700
C         -2.56230       -4.74310        5.40940
C         -2.90250       -7.18950        3.83770
C         -3.04280       -7.78670        5.09080
C         -4.03730       -8.71390        5.30600
C         -4.90610       -9.07400        4.27770
S         -6.12180      -10.29030        4.66640
C         -6.87990      -10.68080        3.06290
C         -4.78230       -8.46420        3.03490
C         -3.79360       -7.52500        2.82120
C         -0.83780       -4.87830        1.88740
S         -0.96320       -3.24810        2.45160
C         -0.16880       -2.65900        0.98980
C          0.20590       -3.69420        0.13740
N          0.93520       -3.57410       -1.02930
C          2.01070       -2.68620       -1.14310
C          2.76790       -2.31620       -0.03500
C          3.79220       -1.39710       -0.15360
C          4.09230       -0.84550       -1.39160
S          5.33650        0.37780       -1.66160
C          6.09400        0.60220       -0.02760
C          3.36540       -1.24660       -2.51360
C          2.33530       -2.15050       -2.39180
C          0.73550       -4.54970       -2.02400
C         -0.55930       -4.91170       -2.38520
C         -0.77550       -5.94100       -3.27860
C          0.30370       -6.62120       -3.82480
S          0.10280       -7.99410       -4.91510
C         -1.44640       -8.72230       -4.30090
C          1.59960       -6.21790       -3.51800
C          1.81640       -5.19350       -2.62360
C         -0.21410       -4.95110        0.65010
S         -0.16160       -6.56690        0.04020
C         -0.05440       -1.24610        0.89220
C         -0.25730       -0.38750        1.94010
C         -0.17300        0.97790        1.60140
C         -0.37800        2.09620        2.43880
C         -0.87710        1.95650        3.78660
C         -0.65750        2.74750        4.88210
C         -1.40420        2.34800        6.00240
F         -1.32620        2.98330        7.17990
C         -2.22130        1.26740        5.79290
S         -3.23490        0.49240        6.98080
C         -4.30580       -0.55070        5.92610
C         -5.33310        0.26350        5.16560
S         -2.03430        0.70110        4.16680
C         -0.13980        3.34530        1.86660
C          0.22200        3.51750        0.50670
C          0.35760        2.39980       -0.34540
C          0.67090        2.52030       -1.75300
S         -0.09110        3.72230       -2.75950
C          0.67930        3.09930       -4.19050
S          0.49050        3.81030       -5.77440
C         -1.31100        4.14120       -5.77080
C         -2.11980        2.86060       -5.75390
C          1.49930        2.05570       -3.85560
C          1.49360        1.71700       -2.49220
F          2.23310        1.38420       -4.75290
C          0.16510        1.15350        0.23610
S          0.25760       -0.37720       -0.59590
C          0.41200        4.87660        0.17880
C          0.18990        5.74170        1.21530
S         -0.28010        4.87530        2.67070
C          0.31920        7.17550        1.20860
C         -0.00840        7.94620        2.31840
F         -0.43780        7.36290        3.45060
C          0.06070        9.34180        2.32730
F         -0.31570        9.98450        3.44100
C          0.45300       10.06770        1.22010
C          0.86940        9.31670        0.08200
N          1.39620        9.97060       -0.96470
C          1.73410        9.32260       -2.04810
C          2.37670       10.12660       -3.13720
C          3.89960       10.10960       -2.98470
C          1.53780        7.91510       -2.11630
N          1.11240        7.25650       -1.06910
C          0.77900        7.90140        0.06030
C          1.76140        7.11510       -3.36200
C          0.50640        7.17350       -4.23650
C          0.54760       11.50480        1.22530
C          0.29910       12.24740        0.12400
C         -0.39410       11.73660       -1.09670
O         -1.15680       10.79820       -1.17460
C         -0.10680       12.73040       -2.14790
C         -0.40910       12.62840       -3.50420
C         -0.00530       13.70750       -4.25180
C          0.64040       14.81840       -3.68980
C          0.92110       14.94500       -2.35140
C          0.52520       13.85210       -1.57210
C          0.67880       13.62750       -0.13800
C          1.10850       14.54530        0.77960
C          1.45640       15.87840        0.47250
N          1.74750       16.97360        0.29040
C          1.23340       14.30220        2.16520
N          1.36870       14.17890        3.29800
C          0.78170       15.50980       -5.02230
C          2.17090       15.47430       -5.70650
C          2.86420       14.22910       -5.21190
C          2.24920       13.18320       -5.74770
C          1.12660       13.70220       -6.61150
C          1.75470       15.01250       -7.11240
C          0.05800       14.27570       -5.64740
H         -1.35380       -8.69880        2.86600
H          0.10450      -10.96090       -2.81010
H         -0.87000      -13.91440        1.18860
H         -1.09100      -15.71900       -1.72160
H          1.20150      -16.30380       -0.49960
H          1.00850      -17.79640       -2.65330
H          1.54710      -16.27590       -4.76440
H          2.06940      -13.84650       -3.91070
H          3.14990      -15.17930       -1.89540
H          2.12770      -13.88790       -1.22480
H         -0.56410      -14.23720       -3.79820
H          0.54500       -5.45250        4.28010
H          1.11580       -3.79050        6.00930
H         -2.07500       -3.22710        9.22730
H         -1.39230       -1.70340        9.84290
H         -2.60050       -1.64770        8.54820
H         -3.02900       -3.37640        6.96960
H         -3.59590       -5.00540        5.23860
H         -2.35720       -7.53480        5.88390
H         -4.13720       -9.18880        6.26900
H         -7.43960       -9.82690        2.69200
H         -6.11290      -10.98890        2.35830
H         -7.55710      -11.50710        3.25530
H         -5.45540       -8.70250        2.22720
H         -3.70640       -7.05150        1.85420
H          2.54950       -2.74220        0.93310
H          4.34710       -1.12380        0.72930
H          6.88200        1.33510       -0.17070
H          6.52150       -0.33530        0.31550
H          5.35980        0.98450        0.67600
H          3.60750       -0.82310       -3.47640
H          1.76190       -2.43720       -3.25970
H         -1.39850       -4.38850       -1.94990
H         -1.78680       -6.21040       -3.53720
H         -2.30330       -8.16630       -4.67040
H         -1.41190       -8.72560       -3.21520
H         -1.47960       -9.73690       -4.68620
H          2.43310       -6.73790       -3.96420
H          2.82350       -4.90760       -2.35880
H         -0.42020       -0.75290        2.93740
H          0.02770        3.57340        4.91440
H         -3.65770       -1.12110        5.25960
H         -4.79160       -1.22980        6.62680
H         -4.84950        0.95590        4.48070
H         -5.95290        0.83150        5.85540
H         -5.97120       -0.40140        4.58760
H         -1.48270        4.70830       -6.68480
H         -1.52810        4.77060       -4.90820
H         -1.92790        2.29630       -4.84330
H         -3.18130        3.09540       -5.79640
H         -1.86470        2.23730       -6.60780
H          2.09130        0.91970       -2.09250
H          0.71670        5.22990       -0.78660
H          2.09680        9.73410       -4.11480
H          2.02260       11.15540       -3.05470
H          4.28770        9.09550       -3.05290
H          4.35960       10.71130       -3.76470
H          4.18070       10.52080       -2.01830
H          1.95290        6.07900       -3.08140
H          2.62030        7.49080       -3.91710
H          0.66280        6.60100       -5.14680
H          0.26480        8.19980       -4.50390
H         -0.33840        6.75480       -3.69470
H          0.90070       11.96010        2.14110
H         -0.90900       11.75560       -3.89460
H          1.41150       15.80830       -1.93330
H          0.30180       16.48230       -5.10940
H          2.73510       16.39970       -5.62960
H          3.67040       14.23480       -4.50180
H          2.43990       12.13990       -5.57680
H          0.73860       13.01520       -7.35900
H          2.60600       14.84670       -7.77080
H          1.04130       15.67930       -7.59430
H         -0.89850       14.44140       -6.13900
