178

C         -1.29190        5.47720        4.15700
C         -1.13900        5.24450        5.50560
C         -1.30510        3.92690        6.14190
O         -1.55650        2.86960        5.59280
C         -1.23520        4.17420        7.59760
C         -1.32490        3.23050        8.61640
C         -1.18310        3.75480        9.88000
C         -0.97460        5.11900       10.11520
C         -0.89260        6.06330        9.11920
C         -1.03190        5.54880        7.82850
C         -0.95330        6.22610        6.53770
C         -0.58720        7.53450        6.33390
C         -0.31700        8.08520        5.06600
N         -0.01820        8.58740        4.07630
C         -0.34020        8.46900        7.35630
N         -0.11890        9.29040        8.12910
C         -0.92160        4.93670       11.61170
C         -2.18250        5.34390       12.40250
C         -2.03050        4.62320       13.72250
C         -2.22690        3.32980       13.50100
C         -2.51560        3.15460       12.02740
C         -3.25720        4.46770       11.74600
C         -1.15320        3.41380       11.35000
C         -1.10280        4.53950        3.13630
C         -0.32040        3.36860        3.08030
N          0.58810        2.93870        4.00570
C          1.22280        3.79730        4.91070
C          1.63560        5.07410        4.53560
C          2.20570        5.93120        5.45460
C          2.37060        5.52860        6.77600
S          2.99080        6.56040        8.05830
C          3.33960        8.13960        7.23710
C          2.01490        4.23030        7.14090
C          1.45300        3.37350        6.22220
C          0.92520        1.56980        4.04590
C         -0.07000        0.59860        4.00830
C          0.26210       -0.74150        4.00810
C          1.59660       -1.12680        4.04710
S          2.13150       -2.80530        4.02720
C          0.67620       -3.70330        3.41550
C          2.59170       -0.15310        4.12770
C          2.26190        1.18330        4.12690
C         -0.50150        2.71660        1.83500
S          0.18710        1.29520        1.12780
C         -0.70790        1.58060       -0.35920
C         -1.43580        2.77040       -0.33230
N         -2.07440        3.34440       -1.40230
C         -3.18830        4.17070       -1.17110
C         -3.33650        5.36660       -1.87240
C         -4.41920        6.18010       -1.62710
C         -5.37320        5.82100       -0.67580
S         -6.71080        6.94760       -0.44620
C         -7.62720        6.25690        0.96060
C         -5.23330        4.62470        0.01450
C         -4.14860        3.80680       -0.23350
C         -1.59830        3.17470       -2.70800
C         -2.48930        3.09120       -3.77890
C         -2.01940        2.92270       -5.06220
C         -0.65120        2.83400       -5.31130
S         -0.16500        2.64780       -6.99460
C          1.64020        2.48810       -6.91280
C          0.23970        2.92660       -4.25020
C         -0.23130        3.10180       -2.96530
C         -1.32700        3.38380        0.94160
S         -1.92510        4.86020        1.60120
C         -0.64190        0.61680       -1.39570
C         -1.60750        0.23830       -2.30100
C         -3.03840        0.47560       -2.48540
O         -3.81440        1.15530       -1.85520
N         -3.39840       -0.35020       -3.54670
C         -4.74820       -0.43980       -4.04250
C         -2.37550       -1.18110       -3.99020
O         -2.53230       -2.06540       -4.79610
C         -1.19520       -0.77070       -3.20670
C          0.09490       -1.19930       -3.00960
S          0.80780       -0.32580       -1.67030
C          0.80690       -2.22740       -3.71670
C          1.75690       -3.04020       -3.11710
F          2.13010       -2.80960       -1.84710
C          2.33070       -4.13120       -3.77830
F          3.30830       -4.79820       -3.14960
C          1.93880       -4.49840       -5.05450
C          1.01600       -3.64530       -5.71710
N          0.55260       -3.98950       -6.93120
C         -0.26120       -3.18250       -7.55940
C         -0.92070       -3.72030       -8.78850
C         -2.29580       -4.27670       -8.40490
C         -0.51410       -1.87460       -7.03800
N         -0.14820       -1.57150       -5.82070
C          0.52260       -2.47530       -5.09040
C         -1.12960       -0.78340       -7.85410
C         -0.13930       -0.26360       -8.89890
C          2.44740       -5.65300       -5.75860
C          2.65250       -6.87460       -5.22250
C          2.18900       -7.31070       -3.86970
O          1.45990       -6.70700       -3.11690
C          2.71450       -8.67440       -3.69270
C          2.60560       -9.46650       -2.55120
C          3.20350      -10.69770       -2.66420
C          3.86420      -11.11420       -3.82950
C          3.97370      -10.34770       -4.96370
C          3.36620       -9.09000       -4.87300
C          3.28230       -8.02350       -5.86340
C          3.71810       -8.09580       -7.15790
C          4.30640       -9.23980       -7.74070
N          4.78310      -10.13120       -8.28420
C          3.62980       -7.06240       -8.11660
N          3.60270       -6.28600       -8.96180
C          4.22630      -12.45400       -3.24080
C          3.39830      -13.68410       -3.68780
C          2.04160      -13.16310       -4.09280
C          1.41400      -12.76990       -2.99250
C          2.33490      -13.01820       -1.82330
C          3.05950      -14.28220       -2.31300
C          3.48870      -11.99170       -1.94470
H         -1.61760        6.45910        3.83400
H         -1.47760        2.18570        8.39420
H         -0.73240        7.11080        9.31270
H          0.00330        5.24790       12.09350
H         -2.36610        6.41390       12.44710
H         -1.74940        5.10530       14.64040
H         -2.14260        2.51570       14.19690
H         -3.00370        2.22980       11.73120
H         -4.21010        4.52290       12.26990
H         -3.41050        4.67210       10.68800
H         -0.38290        2.70970       11.65980
H          1.50310        5.40680        3.51710
H          2.50410        6.91440        5.12880
H          4.09590        8.00090        6.47020
H          2.42690        8.56040        6.82600
H          3.71910        8.79170        8.01770
H          2.16540        3.91350        8.16130
H          1.16570        2.37550        6.51570
H         -1.10390        0.90640        4.00680
H         -0.52730       -1.47510        3.98590
H          1.02290       -4.70750        3.19240
H         -0.09470       -3.74310        4.17990
H          0.31380       -3.22730        2.50950
H          3.62450       -0.46150        4.17530
H          3.03500        1.93580        4.17330
H         -2.59550        5.65580       -2.60260
H         -4.53610        7.10980       -2.16230
H         -8.06530        5.30080        0.68950
H         -6.96770        6.16200        1.81810
H         -8.41390        6.97310        1.17660
H         -5.96430        4.31080        0.74150
H         -4.05620        2.86350        0.28100
H         -3.54960        3.15800       -3.59080
H         -2.70810        2.85980       -5.89100
H          1.96970        2.35420       -7.93870
H          2.07750        3.39530       -6.50590
H          1.90590        1.61780       -6.31930
H          1.30460        2.87780       -4.40830
H          0.47500        3.19540       -2.15370
H         -4.87410        0.19480       -4.92220
H         -5.42500       -0.10650       -3.25690
H         -4.95700       -1.47370       -4.31480
H         -1.03710       -2.94680       -9.54610
H         -0.30170       -4.52400       -9.18830
H         -2.90400       -3.50820       -7.93290
H         -2.18210       -5.09770       -7.70150
H         -2.81170       -4.64200       -9.28930
H         -2.03310       -1.14540       -8.34540
H         -1.39820        0.02930       -7.17900
H          0.11800       -1.03330       -9.62260
H          0.77560        0.06320       -8.41240
H         -0.57040        0.58350       -9.42560
H          2.63240       -5.48150       -6.81050
H          2.09510       -9.10230       -1.67360
H          4.48700      -10.68240       -5.84950
H          5.29010      -12.67200       -3.17230
H          3.89900      -14.32820       -4.40550
H          1.71090      -13.08350       -5.11180
H          0.45370      -12.29570       -2.90830
H          1.86700      -13.05730       -0.84320
H          3.93820      -14.53570       -1.72150
H          2.39990      -15.14590       -2.38080
H          4.06960      -11.91000       -1.02810
