173

C          6.53640       -1.24620       -3.81580
C          6.16030       -2.24830       -4.64390
C          4.84800       -2.95920       -4.61000
O          4.05710       -3.04570       -3.69480
C          4.66500       -3.50280       -5.96450
C          3.52720       -4.14510       -6.44960
C          3.60460       -4.48880       -7.77690
C          4.73140       -4.21890       -8.56730
C          5.87020       -3.60990       -8.09550
C          5.81470       -3.25390       -6.74420
C          6.80440       -2.58960       -5.90760
C          8.11990       -2.38020       -6.21310
C          8.71900       -2.75370       -7.43480
N          9.25690       -3.03270       -8.40930
C          9.05780       -1.81330       -5.32210
N          9.87260       -1.37770       -4.64160
C          4.10210       -4.81180       -9.80320
C          4.55890       -6.22540      -10.24000
C          5.02910       -6.92990       -8.99160
C          3.96300       -7.18380       -8.24450
C          2.75250       -6.65510       -8.97360
C          3.18730       -6.89330      -10.42830
C          2.84810       -5.11060       -8.92140
C          5.75880       -0.82000       -2.67460
C          5.46250        0.55260       -2.54570
O          6.12540        1.43450       -3.35840
C          5.33520        2.17540       -4.27690
C          4.83920        1.29630       -5.42020
C          4.48870        0.96920       -1.63620
O          4.13830        2.30300       -1.53600
C          4.86040        3.03400       -0.54550
C          6.22670        3.51170       -1.01680
C          3.77980        0.00530       -0.89410
C          4.23550       -1.31300       -0.88670
C          5.21320       -1.72080       -1.76090
C          2.49450        0.32740       -0.30270
C          1.34750       -0.42060       -0.50190
N          1.30020       -1.66190       -1.16900
C          1.44190       -2.82480       -0.39610
C          0.90990       -2.88740        0.89190
C          1.07470       -4.01920        1.66070
C          1.77520       -5.11630        1.16750
S          1.91770       -6.50980        2.24530
C          2.76270       -7.75880        1.23450
C          2.32660       -5.05140       -0.10540
C          2.16780       -3.91590       -0.87470
C          1.22340       -1.69870       -2.55720
C          1.61980       -0.61510       -3.34080
C          1.57180       -0.68350       -4.71990
C          1.13410       -1.83680       -5.34960
S          1.11320       -2.02500       -7.11380
C          2.49440       -0.96640       -7.63750
C          0.66210       -2.89270       -4.57690
C          0.69410       -2.82020       -3.20380
C          0.20910        0.24940       -0.00110
S         -1.47300       -0.12790        0.09380
C         -1.79200        1.41300        0.87260
C         -0.63590        2.14940        1.10680
N         -0.52850        3.33230        1.81280
C          0.45680        4.24390        1.39720
C          0.66150        4.47620        0.04040
C          1.67800        5.30720       -0.38720
C          2.50370        5.92520        0.54260
S          3.86800        6.96250        0.11880
C          3.93550        6.87610       -1.69370
C          2.27240        5.72910        1.90400
C          1.26090        4.89780        2.32980
C         -1.40340        3.66150        2.85060
C         -1.81880        4.98100        3.02650
C         -2.80280        5.29160        3.94290
C         -3.38030        4.28860        4.71000
S         -4.73060        4.59850        5.81230
C         -5.59490        5.96070        4.96900
C         -2.88680        2.99020        4.62490
C         -1.91030        2.67990        3.70410
C          0.49420        1.47550        0.58210
S          2.17810        1.84110        0.49420
C         -3.13140        1.79340        1.23060
C         -4.06850        0.92080        1.76260
F         -3.78200       -0.38820        1.83910
C         -5.28920        1.34780        2.31130
F         -6.12910        0.40540        2.74610
C         -5.65730        2.68360        2.36650
C         -4.81390        3.57580        1.65830
C         -3.57370        3.13550        1.08530
N         -2.95690        4.11140        0.42420
S         -3.83310        5.45350        0.53830
N         -5.03450        4.86970        1.43770
C         -6.80410        3.20120        3.06450
C         -7.18830        2.82350        4.30600
C         -6.37470        1.98700        5.23690
O         -5.36550        1.36540        4.98990
C         -7.01970        2.12420        6.55330
C         -6.58470        1.56190        7.75070
C         -7.38590        1.85080        8.82820
C         -8.53010        2.65550        8.72820
C         -8.96470        3.22520        7.55650
C         -8.17050        2.93140        6.44260
C         -8.32420        3.34210        5.05410
C         -9.37660        4.04240        4.52930
C         -9.53030        4.37140        3.16480
N         -9.73620        4.66940        2.07520
C        -10.47450        4.51690        5.27810
N        -11.39110        4.93920        5.82550
C         -8.85450        2.51430       10.19410
C         -9.99720        1.54480       10.58580
C        -10.07330        0.50810        9.49220
C         -8.99370       -0.25680        9.58380
C         -8.16840        0.24830       10.74170
C         -9.28560        0.73260       11.67950
C         -7.58340        1.61440       10.30400
H          7.37410       -0.61570       -4.08720
H          2.67860       -4.32400       -5.80950
H          6.73030       -3.40650       -8.71210
H          3.98340       -4.13560      -10.64760
H          5.24310       -6.23760      -11.08420
H          6.06230       -7.11440       -8.76210
H          3.92740       -7.62340       -7.26480
H          1.79130       -7.05760       -8.66560
H          2.55530       -6.38890      -11.15780
H          3.26490       -7.95050      -10.67720
H          1.90980       -4.62390       -9.17950
H          6.00510        2.95220       -4.65340
H          4.48760        2.64340       -3.76580
H          5.68000        0.86520       -5.95980
H          4.22570        0.48700       -5.02680
H          4.24680        1.89020       -6.11110
H          4.21590        3.88480       -0.31000
H          4.96670        2.42360        0.36000
H          6.13010        4.11000       -1.91960
H          6.67680        4.12070       -0.23770
H          6.88050        2.67010       -1.23080
H          3.78640       -2.02240       -0.21160
H          5.54760       -2.74490       -1.76080
H          0.35800       -2.05270        1.29390
H          0.65520       -4.06670        2.65370
H          2.81040       -8.65030        1.85210
H          2.18460       -7.96130        0.33760
H          3.76780       -7.42680        0.99070
H          2.89740       -5.87220       -0.50900
H          2.63240       -3.86000       -1.84730
H          1.97490        0.29270       -2.87850
H          1.87990        0.17390       -5.29840
H          2.19420        0.07760       -7.64070
H          3.34050       -1.12680       -6.97590
H          2.74920       -1.27740       -8.64560
H          0.26090       -3.76800       -5.06600
H          0.31020       -3.64110       -2.61830
H          0.01440        4.00080       -0.68120
H          1.81320        5.46090       -1.44510
H          4.81550        7.44450       -1.97860
H          4.04270        5.84340       -2.01190
H          3.04860        7.33350       -2.12280
H          2.90930        6.22480        2.62020
H          1.09630        4.73510        3.38430
H         -1.39380        5.75960        2.41010
H         -3.12900        6.31520        4.03720
H         -5.09240        6.90440        5.15950
H         -6.59350        5.99120        5.39430
H         -5.64440        5.74930        3.90430
H         -3.29930        2.22140        5.25750
H         -1.54960        1.66560        3.62830
H         -7.30050        4.02540        2.56790
H         -5.69520        0.95300        7.78520
H         -9.84120        3.84860        7.49630
H         -8.87730        3.43780       10.76920
H        -10.93150        2.03220       10.85090
H        -10.85120        0.47480        8.75210
H         -8.68890       -1.05690        8.93500
H         -7.43790       -0.44550       11.14930
H         -9.89670       -0.08320       12.06270
H         -8.92430        1.34170       12.50700
H         -6.77620        1.94750       10.95340
