253

C         -6.16650        6.21250        3.07980
C         -6.60660        5.88050        4.34520
C         -5.96450        4.87250        5.20190
O         -5.00390        4.17380        4.92930
C         -6.63880        4.97180        6.51330
C         -6.39080        4.20430        7.64630
C         -7.20590        4.50120        8.71340
C         -8.19090        5.49420        8.66060
C         -8.44230        6.26380        7.54880
C         -7.62600        5.97470        6.45470
C         -7.62750        6.53930        5.10740
C         -8.55410        7.42100        4.60320
C         -8.64280        7.77020        3.24200
N         -8.82040        8.05480        2.14250
C         -9.58580        8.01730        5.35000
N        -10.45850        8.53960        5.88560
C         -8.62540        5.25270       10.08460
C         -8.15500        6.25660       11.16590
C         -6.86520        6.85570       10.66330
C         -5.93390        5.91280       10.71370
C         -6.57760        4.65860       11.25080
C         -7.60690        5.27330       12.21250
C         -7.52890        4.14280       10.14300
C         -5.46110        5.37110        2.21890
C         -5.39070        3.96290        2.14340
N         -6.17180        3.05670        2.80280
C         -5.69980        1.73590        2.96090
C         -4.42220        1.49790        3.46580
C         -3.96660        0.20590        3.60100
C         -4.77650       -0.86970        3.24110
S         -4.09400       -2.47810        3.47160
C         -5.22060       -3.57940        2.57330
C         -6.05840       -0.63430        2.76090
C         -6.51510        0.66240        2.62130
C         -7.43500        3.36530        3.32080
C         -8.31970        4.19500        2.63560
C         -9.53320        4.54550        3.19090
C         -9.88580        4.07410        4.45120
S        -11.35470        4.52900        5.30550
C        -12.19070        5.68130        4.18160
C         -9.03140        3.19140        5.11140
C         -7.82430        2.83630        4.55380
C         -4.45380        3.57170        1.16320
S         -3.90160        2.03450        0.59580
C         -2.87240        2.81130       -0.59960
C         -3.00750        4.19950       -0.58190
N         -2.35520        5.08130       -1.43680
C         -2.38030        4.87130       -2.81670
C         -3.41090        4.13450       -3.40440
C         -3.39300        3.87060       -4.75490
C         -2.35590        4.33990       -5.55810
S         -2.43140        3.90940       -7.26970
C         -0.97760        4.71970       -7.99130
C         -1.34150        5.09280       -4.98330
C         -1.35380        5.35260       -3.62800
C         -1.79350        6.22890       -0.86210
C         -1.83810        7.46820       -1.49990
C         -1.30030        8.58000       -0.89190
C         -0.72670        8.48890        0.37380
S         -0.05310        9.97350        1.05500
C          0.13220        9.58270        2.82020
C         -0.68460        7.25940        1.01620
C         -1.20470        6.14060        0.39700
C         -3.89120        4.61220        0.43610
S         -4.48450        6.14660        0.95590
C         -1.91310        2.03320       -1.28630
C         -1.81020        0.64050       -1.27790
N         -2.84010       -0.21910       -0.93680
C         -2.53820       -1.41940       -0.27540
C         -1.63540       -1.42760        0.78380
C         -1.34970       -2.59970        1.45590
C         -1.97570       -3.78270        1.08610
S         -1.73340       -5.32070        1.91530
C         -1.11490       -4.82120        3.54720
C         -2.85520       -3.78350        0.00520
C         -3.13150       -2.61770       -0.67160
C         -4.12590       -0.00120       -1.44820
C         -5.24460       -0.42340       -0.72530
C         -6.51260       -0.17700       -1.19590
C         -6.70240        0.50120       -2.39970
S         -8.37420        0.78330       -2.88920
C         -8.22790        1.67450       -4.46360
C         -5.59470        0.91180       -3.12810
C         -4.32070        0.65910       -2.65790
C         -0.54290        0.22650       -1.73650
S          0.25860       -1.29640       -1.84840
C          1.68930       -0.52640       -2.55170
C          1.49410        0.83800       -2.75920
N          2.34170        1.71140       -3.41920
C          2.31780        3.06350       -3.02840
C          2.43650        3.40430       -1.68430
C          2.36470        4.72430       -1.28080
C          2.18710        5.72900       -2.22140
S          2.03260        7.44330       -1.83370
C          2.58210        7.55010       -0.11030
C          2.09160        5.39160       -3.57160
C          2.14850        4.07730       -3.97170
C          2.92280        1.37450       -4.64730
C          2.34980        0.42440       -5.48910
C          2.95070        0.09090       -6.68670
C          4.13210        0.70910       -7.06870
S          4.96810        0.33840       -8.57950
C          4.41640       -1.35330       -8.93980
C          4.69240        1.68390       -6.24660
C          4.09990        2.01030       -5.04920
C          0.25540        1.25480       -2.21210
S         -0.51090        2.79420       -2.02840
C          2.83510       -1.35730       -2.67650
C          2.95190       -2.58850       -2.08160
C          4.20990       -3.19850       -2.24910
C          4.66310       -4.41280       -1.69870
C          3.86030       -5.12740       -0.72740
C          3.17360       -4.58590        0.32330
C          2.54130       -5.57280        1.10010
F          1.83380       -5.26020        2.20390
C          2.70390       -6.85380        0.66440
C          2.19180       -8.11290        1.27210
C          3.32770       -8.92330        1.89910
S          3.69990       -6.85870       -0.75010
C          5.92960       -4.84140       -2.07800
C          6.76950       -4.07960       -2.93400
C          6.34670       -2.81650       -3.41810
C          7.22870       -1.98600       -4.21080
S          6.65570       -1.14540       -5.62520
C          8.20760       -0.45030       -5.93150
C          8.48600        0.42460       -7.10340
C          9.28600       -0.31390       -8.18680
C          8.47180       -1.42710       -8.83110
C          9.08630       -0.86580       -4.97300
C          8.55570       -1.73360       -4.00120
F         10.37000       -0.46280       -4.94570
C          5.06740       -2.41990       -3.06850
S          4.31210       -0.90730       -3.50840
C          7.97930       -4.74450       -3.17940
C          8.11290       -5.94570       -2.50630
S          6.69680       -6.30670       -1.54070
C          9.27310       -6.73900       -2.62880
C          9.62950       -7.89330       -1.99180
C          8.86190       -8.58300       -0.93900
O          7.74350       -8.32090       -0.53960
C          9.72680       -9.66750       -0.44530
C          9.44430      -10.55420        0.59210
C         10.45070      -11.45360        0.84790
C         11.65310      -11.46750        0.12770
C         11.94440      -10.59890       -0.89680
C         10.93020       -9.67760       -1.17880
C         10.87700       -8.61400       -2.17920
C         11.82740       -8.38140       -3.13950
C         11.76460       -7.38990       -4.14130
N         11.79630       -6.62280       -4.99600
C         13.01380       -9.13070       -3.28710
N         13.99760       -9.69410       -3.46900
C         12.20630      -12.62690        0.91840
C         12.17820      -14.00740        0.22900
C         12.31660      -14.98550        1.37330
C         11.17780      -14.97360        2.05430
C         10.25050      -13.98710        1.38170
C         10.68410      -14.17090       -0.07830
C         10.86530      -12.61230        1.72020
H         -6.33860        7.21960        2.71840
H         -5.62590        3.44310        7.64580
H         -9.20340        7.02590        7.52030
H         -9.66250        4.95240       10.22050
H         -8.91670        6.96050       11.49020
H         -6.77890        7.85550       10.27960
H         -4.91410        5.96720       10.38000
H         -5.90290        3.90730       11.65350
H         -8.34920        4.55950       12.56730
H         -7.14400        5.77510       13.06110
H         -7.85150        3.11790       10.31760
H         -3.81500        2.33580        3.76960
H         -2.98080        0.01030        3.99370
H         -5.33510       -3.22800        1.55210
H         -4.73850       -4.55230        2.57280
H         -6.17650       -3.64100        3.08550
H         -6.71060       -1.45030        2.49310
H         -7.50990        0.84610        2.24280
H         -8.05480        4.57960        1.66220
H        -10.18700        5.19780        2.63530
H        -11.56540        6.55030        3.99990
H        -12.45000        5.17600        3.25600
H        -13.09270        5.98730        4.70220
H         -9.31900        2.80950        6.07880
H         -7.15920        2.16730        5.07830
H         -4.22330        3.76510       -2.79600
H         -4.18640        3.29740       -5.21020
H         -1.03800        5.79330       -7.83870
H         -0.06910        4.30840       -7.56070
H         -1.01560        4.49570       -9.05290
H         -0.52400        5.47300       -5.57330
H         -0.54420        5.91300       -3.18800
H         -2.30950        7.55770       -2.46630
H         -1.33050        9.53870       -1.38560
H         -0.79910        9.17530        3.20170
H          0.35140       10.52690        3.30880
H          0.95740        8.89260        2.97400
H         -0.24710        7.15660        1.99720
H         -1.15290        5.18330        0.89540
H         -1.16800       -0.50280        1.08860
H         -0.64920       -2.58080        2.27470
H         -1.19850       -5.70290        4.17470
H         -0.07530       -4.52030        3.47790
H         -1.74110       -4.02350        3.93510
H         -3.31940       -4.71120       -0.29330
H         -3.81410       -2.62490       -1.50850
H         -5.10320       -0.92050        0.22170
H         -7.37570       -0.49400       -0.63100
H         -9.24700        1.86410       -4.78610
H         -7.71960        1.05470       -5.19650
H         -7.70900        2.61660       -4.31180
H         -5.70480        1.42580       -4.06900
H         -3.47110        0.98330       -3.24070
H          2.57680        2.62470       -0.94980
H          2.44580        4.95450       -0.23090
H          1.88430        7.02250        0.53290
H          3.58840        7.15160       -0.02150
H          2.57460        8.60910        0.12940
H          1.96140        6.17990       -4.29730
H          2.05620        3.82250       -5.01670
H          1.42550       -0.05760       -5.20740
H          2.48120       -0.64700       -7.31720
H          5.08550       -1.73100       -9.70660
H          3.39740       -1.34900       -9.31580
H          4.50540       -1.95230       -8.03870
H          5.60470        2.17260       -6.55140
H          4.55140        2.74950       -4.40540
H          2.14440       -3.04300       -1.53680
H          3.15460       -3.53940        0.56510
H          1.45100       -7.85480        2.03200
H          1.70030       -8.71460        0.50380
H          2.94070       -9.84740        2.32080
H          3.80740       -8.35300        2.69140
H          4.07580       -9.16540        1.14750
H          7.54490        0.77510       -7.52880
H          9.06480        1.28820       -6.76440
H         10.19600       -0.72460       -7.74550
H          9.57940        0.40910       -8.94980
H          8.17860       -2.16950       -8.09200
H          9.05340       -1.92430       -9.60340
H          7.57230       -1.01610       -9.28360
H          9.12360       -2.10790       -3.16960
H          8.74110       -4.37450       -3.84240
H          9.98850       -6.32590       -3.33020
H          8.50810      -10.50130        1.12550
H         12.87820      -10.61840       -1.43290
H         13.13530      -12.43650        1.45240
H         12.87550      -14.11770       -0.59690
H         13.21810      -15.52590        1.59500
H         10.93810      -15.50190        2.95840
H          9.19120      -14.08000        1.60590
H         10.44810      -15.16450       -0.45570
H         10.28580      -13.41960       -0.75770
H         10.89970      -12.41310        2.78970
