176

C         -0.08140       -9.15390       -2.00830
C         -0.97310       -9.19200       -3.04730
C         -0.99770      -10.35840       -3.96220
O         -0.18920      -11.25880       -4.02230
C         -2.23760      -10.21140       -4.75700
C         -2.75040      -11.09910       -5.69800
C         -3.92980      -10.68750       -6.27300
C         -4.56380       -9.48760       -5.92730
C         -4.06760       -8.60070       -5.00130
C         -2.86200       -8.99420       -4.41730
C         -2.01770       -8.29270       -3.45230
C         -2.10070       -6.94500       -3.18170
C         -3.14160       -6.09400       -3.58860
N         -3.95570       -5.31750       -3.83120
C         -1.12210       -6.19110       -2.50960
N         -0.37590       -5.46990       -2.01250
C         -5.69610       -9.71240       -6.89850
C         -5.67600       -8.91010       -8.22290
C         -4.22930       -8.59110       -8.50820
C         -3.62340       -9.72320       -8.84060
C         -4.64950      -10.82770       -8.78630
C         -5.90330      -10.05390       -9.22410
C         -4.98510      -11.04620       -7.28970
C         -0.11810       -8.34570       -0.85290
C          1.06680       -8.01240       -0.15640
C          1.10320       -6.95010        0.81880
N          2.34320       -6.70410        1.23760
S          3.35850       -7.70730        0.49300
N          2.28380       -8.49470       -0.40210
C         -0.03420       -6.18190        1.18160
C         -1.25630       -6.73700        0.71950
N         -2.47840       -6.33890        1.04250
S         -3.56350       -7.14710        0.17330
N         -2.53130       -8.04720       -0.67940
C         -1.28660       -7.76190       -0.30900
C          0.14480       -4.85840        1.63400
C         -0.80020       -3.81520        1.73350
N         -2.15840       -3.93620        1.96000
C         -3.00720       -3.33580        1.01960
C         -2.68220       -3.43530       -0.33250
C         -3.51630       -2.91810       -1.30040
C         -4.69530       -2.28180       -0.93030
S         -5.85990       -1.64030       -2.08050
C         -5.22330       -2.17490       -3.69340
C         -4.99790       -2.13480        0.42450
C         -4.16480       -2.65210        1.39090
C         -2.62590       -4.61560        3.07910
C         -3.92630       -5.11820        3.13850
C         -4.38220       -5.77520        4.26170
C         -3.54610       -5.95190        5.35770
S         -4.01450       -6.77010        6.84700
C         -5.74970       -7.22820        6.57330
C         -2.24370       -5.45800        5.30340
C         -1.79060       -4.79720        4.18520
C         -0.18040       -2.56240        1.56410
S         -0.76210       -0.93420        1.46040
C          0.87030       -0.35010        1.19840
C          1.81750       -1.35800        1.27510
N          3.19190       -1.20280        1.18530
C          3.82310       -0.03310        1.61870
C          4.90750        0.48440        0.90920
C          5.43050        1.71340        1.24170
C          4.88760        2.45440        2.28880
S          5.55540        4.06760        2.55570
C          4.34360        4.85030        3.65750
C          3.87120        1.90190        3.05550
C          3.35010        0.66710        2.72580
C          3.92650       -2.26940        0.64070
C          5.09330       -2.71440        1.25360
C          5.73610       -3.84690        0.79390
C          5.21520       -4.55470       -0.28130
S          5.90700       -6.06810       -0.88100
C          6.86650       -6.66860        0.54100
C          4.09070       -4.07250       -0.94330
C          3.45630       -2.93690       -0.49130
C          1.20170       -2.61600        1.47360
S          1.79160       -4.23660        1.61000
C          1.11810        1.06060        0.96590
C          0.51860        2.01520        1.77910
C          0.88740        3.33910        1.61200
N          0.48740        4.45170        2.31080
C         -0.39560        4.45220        3.44660
C          0.36670        4.21270        4.74960
C          1.17780        5.53950        1.82830
C          2.02670        5.12410        0.76740
C          1.83650        3.71570        0.62830
C          2.37710        2.75610       -0.22100
C          2.01410        1.44250       -0.04880
C          2.84850        6.04940        0.13210
C          2.78550        7.36860        0.51370
C          1.91900        7.79250        1.53840
C          1.14080        6.85910        2.23260
C          1.83420        9.17030        1.94780
C          1.91650       10.27680        1.16670
C          1.79310       10.31390       -0.31770
O          1.79000        9.38760       -1.09720
C          1.57870       11.73300       -0.65930
C          1.34420       12.24920       -1.93190
C          1.17180       13.61150       -1.95990
C          1.21730       14.40440       -0.80430
C          1.44020       13.90770        0.45700
C          1.62830       12.52220        0.50690
C          1.88490       11.65090        1.64670
C          2.12910       12.05990        2.93100
C          2.45200       11.20490        4.00630
N          2.73220       10.57910        4.92790
C          2.12050       13.40510        3.35620
N          2.12460       14.47580        3.77090
C          0.96360       15.67730       -1.57270
C          2.17080       16.60990       -1.84040
C          3.39840       15.73300       -1.84060
C          3.35920       14.98190       -2.93300
C          2.10440       15.33740       -3.69150
C          1.99680       16.83240       -3.35140
C          0.91640       14.79410       -2.85930
H          0.75210       -9.84540       -2.07340
H         -2.23480      -12.01690       -5.93420
H         -4.56550       -7.68180       -4.73730
H         -6.69280       -9.77510       -6.46570
H         -6.36730       -8.07190       -8.25410
H         -3.79560       -7.61600       -8.38490
H         -2.58210       -9.88260       -9.05100
H         -4.40610      -11.73590       -9.33160
H         -6.83090      -10.59970       -9.05600
H         -5.85390       -9.72290      -10.26050
H         -5.51950      -11.97870       -7.11760
H         -1.77980       -3.95010       -0.62930
H         -3.24520       -3.03860       -2.33580
H         -5.98930       -1.90120       -4.41260
H         -4.30140       -1.64650       -3.91990
H         -5.07380       -3.25080       -3.69830
H         -5.89960       -1.61210        0.70480
H         -4.40340       -2.52900        2.43660
H         -4.57700       -5.01720        2.28450
H         -5.39090       -6.15550        4.26430
H         -6.07090       -7.71280        7.49000
H         -6.34590       -6.33760        6.39890
H         -5.82450       -7.92440        5.74320
H         -1.59560       -5.59320        6.15570
H         -0.78350       -4.40900        4.16910
H          5.31010       -0.06900        0.07390
H          6.24830        2.12980        0.67410
H          4.41240        4.42890        4.65670
H          4.60550        5.90350        3.68430
H          3.34910        4.72890        3.24030
H          3.47490        2.42540        3.91070
H          2.55420        0.24690        3.32230
H          5.48220       -2.18090        2.10820
H          6.63150       -4.17910        1.29380
H          6.26070       -6.59740        1.43920
H          7.78910       -6.10420        0.64050
H          7.09600       -7.70740        0.32600
H          3.70920       -4.60570       -1.80030
H          2.57140       -2.57870       -0.99610
H         -0.18040        1.70600        2.54150
H         -1.14570        3.67060        3.30080
H         -0.91210        5.41470        3.48480
H          1.10520        4.99620        4.90590
H         -0.32030        4.20880        5.59120
H          0.87900        3.25370        4.71300
H          3.07490        3.04050       -0.99260
H          2.41640        0.68190       -0.69950
H          3.52370        5.73230       -0.64670
H          3.43220        8.09070        0.04520
H          0.50290        7.18800        3.03980
H          1.62810        9.31570        3.00240
H          1.31090       11.60090       -2.79350
H          1.46140       14.52840        1.33720
H          0.06600       16.22810       -1.29900
H          2.21010       17.49050       -1.20500
H          4.11680       15.70900       -1.04210
H          4.03850       14.20440       -3.23000
H          2.08340       15.05980       -4.74210
H          1.03580       17.27010       -3.61800
H          2.80270       17.42200       -3.78560
H         -0.01140       14.76950       -3.42780
