
  xtb     02062213253D
 energy: -349.368764238435 gnorm: 0.000781755460 xtb: 6.4.1 (unknown)
212231  0     0  0            999 V2000
   -7.9412   -0.4655    0.1143 C   0  0  0  0  0  0  0  0  0  0  0  0
   -8.6795   -1.4781    0.6857 C   0  0  0  0  0  0  0  0  0  0  0  0
   -8.1038   -2.5598    1.5011 C   0  0  0  0  0  0  0  0  0  0  0  0
   -6.9285   -2.7424    1.7601 O   0  0  0  0  0  0  0  0  0  0  0  0
   -9.2576   -3.2984    2.0560 C   0  0  0  0  0  0  0  0  0  0  0  0
   -9.2196   -4.4191    2.8794 C   0  0  0  0  0  0  0  0  0  0  0  0
  -10.4599   -4.9106    3.2129 C   0  0  0  0  0  0  0  0  0  0  0  0
  -11.6520   -4.3247    2.7706 C   0  0  0  0  0  0  0  0  0  0  0  0
  -11.7038   -3.2140    1.9614 C   0  0  0  0  0  0  0  0  0  0  0  0
  -10.4530   -2.7039    1.6068 C   0  0  0  0  0  0  0  0  0  0  0  0
  -10.1100   -1.5809    0.7388 C   0  0  0  0  0  0  0  0  0  0  0  0
  -10.9865   -0.8572   -0.0342 C   0  0  0  0  0  0  0  0  0  0  0  0
  -10.5846    0.0764   -1.0089 C   0  0  0  0  0  0  0  0  0  0  0  0
  -10.3327    0.8042   -1.8625 N   0  0  0  0  0  0  0  0  0  0  0  0
  -12.3844   -1.0139   -0.0246 C   0  0  0  0  0  0  0  0  0  0  0  0
  -13.5302   -1.0849   -0.0802 N   0  0  0  0  0  0  0  0  0  0  0  0
  -12.5107   -5.3322    3.4945 C   0  0  0  0  0  0  0  0  0  0  0  0
  -13.1644   -4.8646    4.8119 C   0  0  0  0  0  0  0  0  0  0  0  0
  -13.5219   -6.1536    5.5161 C   0  0  0  0  0  0  0  0  0  0  0  0
  -12.3927   -6.7131    5.9313 C   0  0  0  0  0  0  0  0  0  0  0  0
  -11.2531   -5.8114    5.5151 C   0  0  0  0  0  0  0  0  0  0  0  0
  -11.9400   -4.4450    5.6358 C   0  0  0  0  0  0  0  0  0  0  0  0
  -11.1803   -5.9894    3.9839 C   0  0  0  0  0  0  0  0  0  0  0  0
   -6.5955   -0.5379   -0.2570 C   0  0  0  0  0  0  0  0  0  0  0  0
   -5.7753   -1.6318   -0.6005 C   0  0  0  0  0  0  0  0  0  0  0  0
   -6.1641   -2.9272   -0.7933 N   0  0  0  0  0  0  0  0  0  0  0  0
   -5.2080   -3.9540   -0.6316 C   0  0  0  0  0  0  0  0  0  0  0  0
   -4.3869   -3.9834    0.4947 C   0  0  0  0  0  0  0  0  0  0  0  0
   -3.4503   -4.9816    0.6356 C   0  0  0  0  0  0  0  0  0  0  0  0
   -3.3167   -5.9697   -0.3400 C   0  0  0  0  0  0  0  0  0  0  0  0
   -2.0783   -7.1881   -0.0501 S   0  0  0  0  0  0  0  0  0  0  0  0
   -2.1422   -8.2440   -1.5261 C   0  0  0  0  0  0  0  0  0  0  0  0
   -4.1495   -5.9521   -1.4516 C   0  0  0  0  0  0  0  0  0  0  0  0
   -5.0887   -4.9487   -1.5946 C   0  0  0  0  0  0  0  0  0  0  0  0
   -7.4695   -3.2954   -1.1345 C   0  0  0  0  0  0  0  0  0  0  0  0
   -8.0296   -4.4525   -0.5861 C   0  0  0  0  0  0  0  0  0  0  0  0
   -9.3356   -4.7898   -0.8585 C   0  0  0  0  0  0  0  0  0  0  0  0
  -10.1175   -3.9883   -1.6899 C   0  0  0  0  0  0  0  0  0  0  0  0
  -11.7980   -4.4712   -1.8871 S   0  0  0  0  0  0  0  0  0  0  0  0
  -12.5031   -3.2128   -2.9870 C   0  0  0  0  0  0  0  0  0  0  0  0
   -9.5440   -2.8729   -2.2910 C   0  0  0  0  0  0  0  0  0  0  0  0
   -8.2357   -2.5321   -2.0132 C   0  0  0  0  0  0  0  0  0  0  0  0
   -4.4503   -1.1936   -0.8482 C   0  0  0  0  0  0  0  0  0  0  0  0
   -2.9762   -2.0040   -1.2550 S   0  0  0  0  0  0  0  0  0  0  0  0
   -2.1332   -0.4745   -1.3276 C   0  0  0  0  0  0  0  0  0  0  0  0
   -2.9390    0.6079   -1.0039 C   0  0  0  0  0  0  0  0  0  0  0  0
   -2.5186    1.9168   -0.8358 N   0  0  0  0  0  0  0  0  0  0  0  0
   -1.2538    2.2089   -0.3141 C   0  0  0  0  0  0  0  0  0  0  0  0
   -0.6752    1.3933    0.6561 C   0  0  0  0  0  0  0  0  0  0  0  0
    0.6176    1.6124    1.0900 C   0  0  0  0  0  0  0  0  0  0  0  0
    1.3600    2.6627    0.5678 C   0  0  0  0  0  0  0  0  0  0  0  0
    3.0365    3.0032    1.0028 S   0  0  0  0  0  0  0  0  0  0  0  0
    3.4949    1.6304    2.0957 C   0  0  0  0  0  0  0  0  0  0  0  0
    0.7648    3.5210   -0.3556 C   0  0  0  0  0  0  0  0  0  0  0  0
   -0.5249    3.3031   -0.7858 C   0  0  0  0  0  0  0  0  0  0  0  0
   -3.3911    2.9447   -1.2190 C   0  0  0  0  0  0  0  0  0  0  0  0
   -4.1752    2.8041   -2.3610 C   0  0  0  0  0  0  0  0  0  0  0  0
   -5.0865    3.7793   -2.7149 C   0  0  0  0  0  0  0  0  0  0  0  0
   -5.2222    4.9181   -1.9328 C   0  0  0  0  0  0  0  0  0  0  0  0
   -6.3672    6.2146   -2.2866 S   0  0  0  0  0  0  0  0  0  0  0  0
   -7.5682    5.4196   -3.3938 C   0  0  0  0  0  0  0  0  0  0  0  0
   -4.4105    5.0807   -0.8116 C   0  0  0  0  0  0  0  0  0  0  0  0
   -3.5074    4.1051   -0.4538 C   0  0  0  0  0  0  0  0  0  0  0  0
   -4.2665    0.1790   -0.7600 C   0  0  0  0  0  0  0  0  0  0  0  0
   -5.7306    1.0029   -0.3785 S   0  0  0  0  0  0  0  0  0  0  0  0
   -0.7208   -0.4027   -1.6056 C   0  0  0  0  0  0  0  0  0  0  0  0
   -0.1787    0.6276   -2.4036 C   0  0  0  0  0  0  0  0  0  0  0  0
   -0.7723    1.5314   -3.1965 N   0  0  0  0  0  0  0  0  0  0  0  0
    0.2110    2.2583   -3.6458 N   0  0  0  0  0  0  0  0  0  0  0  0
   -0.0075    3.3604   -4.5383 C   0  0  0  0  0  0  0  0  0  0  0  0
    0.8557    3.2122   -5.7841 C   0  0  0  0  0  0  0  0  0  0  0  0
    1.4060    1.9429   -3.2379 N   0  0  0  0  0  0  0  0  0  0  0  0
    1.2186    0.8870   -2.4402 C   0  0  0  0  0  0  0  0  0  0  0  0
    2.1579    0.1339   -1.7005 C   0  0  0  0  0  0  0  0  0  0  0  0
    1.6052   -0.9596   -1.0469 C   0  0  0  0  0  0  0  0  0  0  0  0
    0.2263   -1.2192   -1.0099 C   0  0  0  0  0  0  0  0  0  0  0  0
   -0.1766   -2.2528   -0.2478 F   0  0  0  0  0  0  0  0  0  0  0  0
    2.3824   -1.7870   -0.3209 F   0  0  0  0  0  0  0  0  0  0  0  0
    3.5118    0.5904   -1.5729 C   0  0  0  0  0  0  0  0  0  0  0  0
    4.5346    0.0413   -0.8495 C   0  0  0  0  0  0  0  0  0  0  0  0
    5.6901    0.8513   -0.7959 C   0  0  0  0  0  0  0  0  0  0  0  0
    6.8833    0.6088   -0.0828 C   0  0  0  0  0  0  0  0  0  0  0  0
    7.0695   -0.5558    0.7570 C   0  0  0  0  0  0  0  0  0  0  0  0
    8.2102   -1.2933    0.9371 C   0  0  0  0  0  0  0  0  0  0  0  0
    8.0527   -2.3401    1.8602 C   0  0  0  0  0  0  0  0  0  0  0  0
    6.8077   -2.4164    2.4148 C   0  0  0  0  0  0  0  0  0  0  0  0
    6.0976   -3.6205    3.6819 Si  0  0  0  0  0  4  0  0  0  0  0  0
    5.4916   -2.5775    5.1697 C   0  0  0  0  0  0  0  0  0  0  0  0
    6.5851   -1.6977    5.7700 C   0  0  0  0  0  0  0  0  0  0  0  0
    4.6246   -4.5110    2.8416 C   0  0  0  0  0  0  0  0  0  0  0  0
    3.6277   -5.1394    3.8107 C   0  0  0  0  0  0  0  0  0  0  0  0
    7.5157   -4.8019    4.1786 C   0  0  0  0  0  0  0  0  0  0  0  0
    7.1348   -5.7879    5.2768 C   0  0  0  0  0  0  0  0  0  0  0  0
    5.7959   -1.1697    1.7748 S   0  0  0  0  0  0  0  0  0  0  0  0
    7.8833    1.5699   -0.2048 C   0  0  0  0  0  0  0  0  0  0  0  0
    7.7176    2.7612   -0.9618 C   0  0  0  0  0  0  0  0  0  0  0  0
    6.4983    3.0277   -1.6322 C   0  0  0  0  0  0  0  0  0  0  0  0
    6.2804    4.2831   -2.3119 C   0  0  0  0  0  0  0  0  0  0  0  0
    6.6499    5.5371   -1.8965 C   0  0  0  0  0  0  0  0  0  0  0  0
    6.2764    6.5470   -2.7961 C   0  0  0  0  0  0  0  0  0  0  0  0
    5.6266    6.0890   -3.9080 C   0  0  0  0  0  0  0  0  0  0  0  0
    5.0124    7.0421   -5.4145 Si  0  0  0  0  0  4  0  0  0  0  0  0
    3.2307    6.4622   -5.8027 C   0  0  0  0  0  0  0  0  0  0  0  0
    2.2760    6.6409   -4.6268 C   0  0  0  0  0  0  0  0  0  0  0  0
    6.1565    6.6082   -6.8858 C   0  0  0  0  0  0  0  0  0  0  0  0
    7.6162    6.9686   -6.6264 C   0  0  0  0  0  0  0  0  0  0  0  0
    5.0731    8.9052   -4.9935 C   0  0  0  0  0  0  0  0  0  0  0  0
    4.5737    9.7870   -6.1330 C   0  0  0  0  0  0  0  0  0  0  0  0
    5.4512    4.3684   -3.8364 S   0  0  0  0  0  0  0  0  0  0  0  0
    5.5285    2.0391   -1.5572 C   0  0  0  0  0  0  0  0  0  0  0  0
    3.9515    2.1210   -2.2902 S   0  0  0  0  0  0  0  0  0  0  0  0
    8.8768    3.5479   -0.9365 C   0  0  0  0  0  0  0  0  0  0  0  0
    9.8971    3.0316   -0.1563 C   0  0  0  0  0  0  0  0  0  0  0  0
    9.4431    1.5021    0.5654 S   0  0  0  0  0  0  0  0  0  0  0  0
   11.1225    3.7090   -0.0051 C   0  0  0  0  0  0  0  0  0  0  0  0
   12.2346    3.4011    0.7275 C   0  0  0  0  0  0  0  0  0  0  0  0
   12.4294    2.1958    1.5675 C   0  0  0  0  0  0  0  0  0  0  0  0
   11.6602    1.2752    1.7501 O   0  0  0  0  0  0  0  0  0  0  0  0
   13.7679    2.3613    2.1285 C   0  0  0  0  0  0  0  0  0  0  0  0
   14.7743    1.4681    3.1831 S   0  0  0  0  0  0  0  0  0  0  0  0
   15.9940    2.6990    3.0273 C   0  0  0  0  0  0  0  0  0  0  0  0
   17.6159    2.5211    3.9463 Br  0  0  0  0  0  0  0  0  0  0  0  0
   15.6470    3.7387    2.2090 C   0  0  0  0  0  0  0  0  0  0  0  0
   14.3555    3.5394    1.6895 C   0  0  0  0  0  0  0  0  0  0  0  0
   13.4294    4.2254    0.8063 C   0  0  0  0  0  0  0  0  0  0  0  0
   13.6908    5.4255    0.1980 C   0  0  0  0  0  0  0  0  0  0  0  0
   12.8243    6.1339   -0.6576 C   0  0  0  0  0  0  0  0  0  0  0  0
   12.1783    6.7697   -1.3633 N   0  0  0  0  0  0  0  0  0  0  0  0
   14.9167    6.0979    0.3887 C   0  0  0  0  0  0  0  0  0  0  0  0
   15.9068    6.6604    0.5289 N   0  0  0  0  0  0  0  0  0  0  0  0
   -8.4146    0.4977   -0.0368 H   0  0  0  0  0  0  0  0  0  0  0  0
   -8.2799   -4.8443    3.1963 H   0  0  0  0  0  0  0  0  0  0  0  0
  -12.6271   -2.7713    1.6261 H   0  0  0  0  0  0  0  0  0  0  0  0
  -13.1824   -5.9177    2.8696 H   0  0  0  0  0  0  0  0  0  0  0  0
  -13.9612   -4.1357    4.6913 H   0  0  0  0  0  0  0  0  0  0  0  0
  -14.5213   -6.5409    5.5881 H   0  0  0  0  0  0  0  0  0  0  0  0
  -12.2604   -7.6611    6.4192 H   0  0  0  0  0  0  0  0  0  0  0  0
  -10.3082   -5.9450    6.0351 H   0  0  0  0  0  0  0  0  0  0  0  0
  -12.1994   -4.2040    6.6654 H   0  0  0  0  0  0  0  0  0  0  0  0
  -11.3729   -3.6241    5.2011 H   0  0  0  0  0  0  0  0  0  0  0  0
  -10.9652   -7.0133    3.6836 H   0  0  0  0  0  0  0  0  0  0  0  0
   -4.5166   -3.2342    1.2593 H   0  0  0  0  0  0  0  0  0  0  0  0
   -2.8100   -5.0121    1.5032 H   0  0  0  0  0  0  0  0  0  0  0  0
   -1.3631   -8.9869   -1.3863 H   0  0  0  0  0  0  0  0  0  0  0  0
   -1.9329   -7.6535   -2.4132 H   0  0  0  0  0  0  0  0  0  0  0  0
   -3.1089   -8.7343   -1.5944 H   0  0  0  0  0  0  0  0  0  0  0  0
   -4.0764   -6.7075   -2.2169 H   0  0  0  0  0  0  0  0  0  0  0  0
   -5.7326   -4.9337   -2.4620 H   0  0  0  0  0  0  0  0  0  0  0  0
   -7.4373   -5.0666    0.0747 H   0  0  0  0  0  0  0  0  0  0  0  0
   -9.7773   -5.6665   -0.4105 H   0  0  0  0  0  0  0  0  0  0  0  0
  -12.4431   -2.2323   -2.5244 H   0  0  0  0  0  0  0  0  0  0  0  0
  -13.5451   -3.4909   -3.1110 H   0  0  0  0  0  0  0  0  0  0  0  0
  -11.9977   -3.2325   -3.9480 H   0  0  0  0  0  0  0  0  0  0  0  0
  -10.1081   -2.2511   -2.9672 H   0  0  0  0  0  0  0  0  0  0  0  0
   -7.8098   -1.6560   -2.4786 H   0  0  0  0  0  0  0  0  0  0  0  0
   -1.2413    0.5735    1.0727 H   0  0  0  0  0  0  0  0  0  0  0  0
    1.0324    0.9538    1.8357 H   0  0  0  0  0  0  0  0  0  0  0  0
    3.3391    0.6820    1.5907 H   0  0  0  0  0  0  0  0  0  0  0  0
    2.9310    1.6860    3.0222 H   0  0  0  0  0  0  0  0  0  0  0  0
    4.5530    1.7611    2.3001 H   0  0  0  0  0  0  0  0  0  0  0  0
    1.3373    4.3493   -0.7441 H   0  0  0  0  0  0  0  0  0  0  0  0
   -0.9735    3.9641   -1.5127 H   0  0  0  0  0  0  0  0  0  0  0  0
   -4.0599    1.9248   -2.9771 H   0  0  0  0  0  0  0  0  0  0  0  0
   -5.6813    3.6418   -3.6035 H   0  0  0  0  0  0  0  0  0  0  0  0
   -7.1386    5.2788   -4.3816 H   0  0  0  0  0  0  0  0  0  0  0  0
   -8.4088    6.1037   -3.4558 H   0  0  0  0  0  0  0  0  0  0  0  0
   -7.8887    4.4758   -2.9633 H   0  0  0  0  0  0  0  0  0  0  0  0
   -4.5134    5.9739   -0.2149 H   0  0  0  0  0  0  0  0  0  0  0  0
   -2.8990    4.2257    0.4299 H   0  0  0  0  0  0  0  0  0  0  0  0
    0.2575    4.2829   -4.0128 H   0  0  0  0  0  0  0  0  0  0  0  0
   -1.0730    3.3673   -4.7746 H   0  0  0  0  0  0  0  0  0  0  0  0
    0.5843    2.3140   -6.3333 H   0  0  0  0  0  0  0  0  0  0  0  0
    1.9007    3.1451   -5.4935 H   0  0  0  0  0  0  0  0  0  0  0  0
    0.7208    4.0729   -6.4323 H   0  0  0  0  0  0  0  0  0  0  0  0
    4.4671   -0.9146   -0.3669 H   0  0  0  0  0  0  0  0  0  0  0  0
    9.1227   -1.1136    0.3983 H   0  0  0  0  0  0  0  0  0  0  0  0
    8.8414   -3.0250    2.1136 H   0  0  0  0  0  0  0  0  0  0  0  0
    5.0945   -3.2299    5.9481 H   0  0  0  0  0  0  0  0  0  0  0  0
    4.6652   -1.9411    4.8475 H   0  0  0  0  0  0  0  0  0  0  0  0
    6.1941   -1.1007    6.5922 H   0  0  0  0  0  0  0  0  0  0  0  0
    6.9877   -1.0220    5.0188 H   0  0  0  0  0  0  0  0  0  0  0  0
    7.4026   -2.3050    6.1502 H   0  0  0  0  0  0  0  0  0  0  0  0
    5.0024   -5.2856    2.1720 H   0  0  0  0  0  0  0  0  0  0  0  0
    4.0915   -3.7970    2.2112 H   0  0  0  0  0  0  0  0  0  0  0  0
    2.8174   -5.6209    3.2663 H   0  0  0  0  0  0  0  0  0  0  0  0
    3.1962   -4.3828    4.4608 H   0  0  0  0  0  0  0  0  0  0  0  0
    4.1088   -5.8880    4.4346 H   0  0  0  0  0  0  0  0  0  0  0  0
    8.3720   -4.2157    4.5147 H   0  0  0  0  0  0  0  0  0  0  0  0
    7.8500   -5.3619    3.3041 H   0  0  0  0  0  0  0  0  0  0  0  0
    7.9851   -6.4106    5.5502 H   0  0  0  0  0  0  0  0  0  0  0  0
    6.3326   -6.4414    4.9442 H   0  0  0  0  0  0  0  0  0  0  0  0
    6.7994   -5.2626    6.1676 H   0  0  0  0  0  0  0  0  0  0  0  0
    7.1291    5.7264   -0.9524 H   0  0  0  0  0  0  0  0  0  0  0  0
    6.4808    7.5895   -2.6316 H   0  0  0  0  0  0  0  0  0  0  0  0
    3.2480    5.4094   -6.0869 H   0  0  0  0  0  0  0  0  0  0  0  0
    2.8433    7.0086   -6.6632 H   0  0  0  0  0  0  0  0  0  0  0  0
    2.2503    7.6790   -4.3059 H   0  0  0  0  0  0  0  0  0  0  0  0
    1.2635    6.3489   -4.9012 H   0  0  0  0  0  0  0  0  0  0  0  0
    2.5957    6.0325   -3.7841 H   0  0  0  0  0  0  0  0  0  0  0  0
    6.0893    5.5387   -7.0915 H   0  0  0  0  0  0  0  0  0  0  0  0
    5.8188    7.1174   -7.7889 H   0  0  0  0  0  0  0  0  0  0  0  0
    8.2430    6.6780   -7.4674 H   0  0  0  0  0  0  0  0  0  0  0  0
    7.9817    6.4611   -5.7369 H   0  0  0  0  0  0  0  0  0  0  0  0
    7.7276    8.0391   -6.4747 H   0  0  0  0  0  0  0  0  0  0  0  0
    6.0958    9.1937   -4.7491 H   0  0  0  0  0  0  0  0  0  0  0  0
    4.4767    9.1056   -4.1025 H   0  0  0  0  0  0  0  0  0  0  0  0
    3.5410    9.5513   -6.3777 H   0  0  0  0  0  0  0  0  0  0  0  0
    5.1765    9.6383   -7.0254 H   0  0  0  0  0  0  0  0  0  0  0  0
    4.6258   10.8396   -5.8601 H   0  0  0  0  0  0  0  0  0  0  0  0
    8.9891    4.4645   -1.4878 H   0  0  0  0  0  0  0  0  0  0  0  0
   11.1599    4.6352   -0.5670 H   0  0  0  0  0  0  0  0  0  0  0  0
   16.2882    4.5769    2.0084 H   0  0  0  0  0  0  0  0  0  0  0  0
  1  2  2  0  0  0  0
  2  3  1  0  0  0  0
  3  4  2  0  0  0  0
  3  5  1  0  0  0  0
  5  6  2  0  0  0  0
  6  7  1  0  0  0  0
  7  8  2  0  0  0  0
  8  9  1  0  0  0  0
  9 10  2  0  0  0  0
 10 11  1  0  0  0  0
 11 12  2  0  0  0  0
 12 13  1  0  0  0  0
 13 14  3  0  0  0  0
 12 15  1  0  0  0  0
 15 16  3  0  0  0  0
  8 17  1  0  0  0  0
 17 18  1  0  0  0  0
 18 19  1  0  0  0  0
 19 20  2  0  0  0  0
 20 21  1  0  0  0  0
 21 22  1  0  0  0  0
 21 23  1  0  0  0  0
  1 24  1  0  0  0  0
 24 25  2  0  0  0  0
 25 26  1  0  0  0  0
 26 27  1  0  0  0  0
 27 28  2  0  0  0  0
 28 29  1  0  0  0  0
 29 30  2  0  0  0  0
 30 31  1  0  0  0  0
 31 32  1  0  0  0  0
 30 33  1  0  0  0  0
 33 34  2  0  0  0  0
 26 35  1  0  0  0  0
 35 36  2  0  0  0  0
 36 37  1  0  0  0  0
 37 38  2  0  0  0  0
 38 39  1  0  0  0  0
 39 40  1  0  0  0  0
 38 41  1  0  0  0  0
 41 42  2  0  0  0  0
 25 43  1  0  0  0  0
 43 44  1  0  0  0  0
 44 45  1  0  0  0  0
 45 46  2  0  0  0  0
 46 47  1  0  0  0  0
 47 48  1  0  0  0  0
 48 49  2  0  0  0  0
 49 50  1  0  0  0  0
 50 51  2  0  0  0  0
 51 52  1  0  0  0  0
 52 53  1  0  0  0  0
 51 54  1  0  0  0  0
 54 55  2  0  0  0  0
 47 56  1  0  0  0  0
 56 57  2  0  0  0  0
 57 58  1  0  0  0  0
 58 59  2  0  0  0  0
 59 60  1  0  0  0  0
 60 61  1  0  0  0  0
 59 62  1  0  0  0  0
 62 63  2  0  0  0  0
 46 64  1  0  0  0  0
 64 65  1  0  0  0  0
 45 66  1  0  0  0  0
 66 67  1  0  0  0  0
 67 68  2  0  0  0  0
 68 69  1  0  0  0  0
 69 70  1  0  0  0  0
 70 71  1  0  0  0  0
 69 72  1  0  0  0  0
 72 73  2  0  0  0  0
 73 74  1  0  0  0  0
 74 75  2  0  0  0  0
 75 76  1  0  0  0  0
 76 77  1  0  0  0  0
 75 78  1  0  0  0  0
 74 79  1  0  0  0  0
 79 80  2  0  0  0  0
 80 81  1  0  0  0  0
 81 82  2  0  0  0  0
 82 83  1  0  0  0  0
 83 84  2  0  0  0  0
 84 85  1  0  0  0  0
 85 86  2  0  0  0  0
 86 87  1  0  0  0  0
 87 88  1  0  0  0  0
 88 89  1  0  0  0  0
 87 90  1  0  0  0  0
 90 91  1  0  0  0  0
 87 92  1  0  0  0  0
 92 93  1  0  0  0  0
 86 94  1  0  0  0  0
 82 95  1  0  0  0  0
 95 96  2  0  0  0  0
 96 97  1  0  0  0  0
 97 98  1  0  0  0  0
 98 99  2  0  0  0  0
 99100  1  0  0  0  0
100101  2  0  0  0  0
101102  1  0  0  0  0
102103  1  0  0  0  0
103104  1  0  0  0  0
102105  1  0  0  0  0
105106  1  0  0  0  0
102107  1  0  0  0  0
107108  1  0  0  0  0
101109  1  0  0  0  0
 97110  2  0  0  0  0
110111  1  0  0  0  0
 96112  1  0  0  0  0
112113  2  0  0  0  0
113114  1  0  0  0  0
113115  1  0  0  0  0
115116  2  0  0  0  0
116117  1  0  0  0  0
117118  2  0  0  0  0
117119  1  0  0  0  0
119120  1  0  0  0  0
120121  1  0  0  0  0
121122  1  0  0  0  0
121123  2  0  0  0  0
123124  1  0  0  0  0
124125  1  0  0  0  0
125126  2  0  0  0  0
126127  1  0  0  0  0
127128  3  0  0  0  0
126129  1  0  0  0  0
129130  3  0  0  0  0
 11  2  1  0  0  0  0
 23 17  1  0  0  0  0
 65 24  1  0  0  0  0
 76 66  2  0  0  0  0
111 79  1  0  0  0  0
125116  1  0  0  0  0
 10  5  1  0  0  0  0
 22 18  1  0  0  0  0
 34 27  1  0  0  0  0
 42 35  1  0  0  0  0
 64 43  2  0  0  0  0
 73 67  1  0  0  0  0
110 81  1  0  0  0  0
124119  2  0  0  0  0
 23  7  1  0  0  0  0
 55 48  1  0  0  0  0
 63 56  1  0  0  0  0
 94 83  1  0  0  0  0
114 95  1  0  0  0  0
109 98  1  0  0  0  0
  1131  1  0  0  0  0
  6132  1  0  0  0  0
  9133  1  0  0  0  0
 17134  1  0  0  0  0
 18135  1  0  0  0  0
 19136  1  0  0  0  0
 20137  1  0  0  0  0
 21138  1  0  0  0  0
 22139  1  0  0  0  0
 22140  1  0  0  0  0
 23141  1  0  0  0  0
 28142  1  0  0  0  0
 29143  1  0  0  0  0
 32144  1  0  0  0  0
 32145  1  0  0  0  0
 32146  1  0  0  0  0
 33147  1  0  0  0  0
 34148  1  0  0  0  0
 36149  1  0  0  0  0
 37150  1  0  0  0  0
 40151  1  0  0  0  0
 40152  1  0  0  0  0
 40153  1  0  0  0  0
 41154  1  0  0  0  0
 42155  1  0  0  0  0
 49156  1  0  0  0  0
 50157  1  0  0  0  0
 53158  1  0  0  0  0
 53159  1  0  0  0  0
 53160  1  0  0  0  0
 54161  1  0  0  0  0
 55162  1  0  0  0  0
 57163  1  0  0  0  0
 58164  1  0  0  0  0
 61165  1  0  0  0  0
 61166  1  0  0  0  0
 61167  1  0  0  0  0
 62168  1  0  0  0  0
 63169  1  0  0  0  0
 70170  1  0  0  0  0
 70171  1  0  0  0  0
 71172  1  0  0  0  0
 71173  1  0  0  0  0
 71174  1  0  0  0  0
 80175  1  0  0  0  0
 84176  1  0  0  0  0
 85177  1  0  0  0  0
 88178  1  0  0  0  0
 88179  1  0  0  0  0
 89180  1  0  0  0  0
 89181  1  0  0  0  0
 89182  1  0  0  0  0
 90183  1  0  0  0  0
 90184  1  0  0  0  0
 91185  1  0  0  0  0
 91186  1  0  0  0  0
 91187  1  0  0  0  0
 92188  1  0  0  0  0
 92189  1  0  0  0  0
 93190  1  0  0  0  0
 93191  1  0  0  0  0
 93192  1  0  0  0  0
 99193  1  0  0  0  0
100194  1  0  0  0  0
103195  1  0  0  0  0
103196  1  0  0  0  0
104197  1  0  0  0  0
104198  1  0  0  0  0
104199  1  0  0  0  0
105200  1  0  0  0  0
105201  1  0  0  0  0
106202  1  0  0  0  0
106203  1  0  0  0  0
106204  1  0  0  0  0
107205  1  0  0  0  0
107206  1  0  0  0  0
108207  1  0  0  0  0
108208  1  0  0  0  0
108209  1  0  0  0  0
112210  1  0  0  0  0
115211  1  0  0  0  0
123212  1  0  0  0  0
M  END
