150

C         -2.93180       -2.76120       -5.50940
C         -3.10840       -1.88040       -6.54380
C         -3.14900       -0.41350       -6.37490
O         -3.13200        0.21480       -5.33110
C         -3.40460        0.14350       -7.71440
C         -3.46790        1.49000       -8.06470
C         -3.73440        1.70890       -9.39490
C         -3.93420        0.66590      -10.30820
C         -3.87810       -0.66690       -9.97430
C         -3.60210       -0.91250       -8.62700
C         -3.44340       -2.18070       -7.91510
C         -3.52480       -3.43030       -8.47730
C         -3.28650       -4.64020       -7.79330
N         -3.09330       -5.66890       -7.31990
C         -3.85230       -3.68120       -9.82450
N         -4.12300       -3.95980      -10.90560
C         -4.16750        1.61170      -11.45970
C         -5.62710        1.84000      -11.92420
C         -6.50460        1.57880      -10.72550
C         -6.31340        2.56660       -9.86140
C         -5.30300        3.51360      -10.45990
C         -5.65410        3.37670      -11.95000
C         -3.94230        2.77430      -10.44230
C         -2.32460       -2.42220       -4.27920
C         -1.30520       -1.44930       -4.14560
C         -0.74670       -1.06310       -2.86680
N          0.26140       -0.20110       -3.01040
S          0.48360        0.09080       -4.57530
N         -0.67360       -0.85580       -5.15490
C         -1.19010       -1.62240       -1.64580
C         -2.07780       -2.71590       -1.80730
N         -2.54190       -3.47330       -0.81490
S         -3.54620       -4.58030       -1.42010
N         -3.46820       -4.13570       -2.96110
C         -2.62570       -3.11080       -3.08360
C         -0.77410       -1.23530       -0.35180
C         -0.13860       -0.06900        0.11380
N          0.06530        1.11740       -0.54510
C         -0.78430        1.64810       -1.50920
C         -0.28910        2.57300       -2.43640
C         -1.11080        3.10240       -3.40090
C         -2.45620        2.73500       -3.47150
S         -3.40570        3.48270       -4.74040
C         -4.99840        2.62170       -4.67070
C         -2.96170        1.83950       -2.53600
C         -2.13750        1.31090       -1.56470
C          1.20830        1.85320       -0.16010
C          2.45740        1.23290       -0.15760
C          3.56960        1.92430        0.26320
C          3.45880        3.24740        0.69310
S          4.94380        4.02140        1.22300
C          4.39150        5.60540        1.91590
C          2.21710        3.87260        0.66980
C          1.10140        3.17920        0.24460
C          0.24290       -0.22460        1.47040
S          1.09240        0.77840        2.59860
C          0.89060       -0.42960        3.86050
C          0.24480       -1.57910        3.39820
N          0.08610       -2.75770        4.09590
C          1.04720       -3.18780        5.02220
C          2.39940       -2.91730        4.82910
C          3.32030       -3.19310        5.81870
C          2.90360       -3.75610        7.01830
S          3.97520       -4.01640        8.39440
C          5.33990       -2.86410        8.06900
C          1.57000       -4.13050        7.16950
C          0.65000       -3.85020        6.18410
C         -0.99080       -3.59180        3.75280
C         -2.25270       -3.04310        3.54120
C         -3.30150       -3.83210        3.11230
C         -3.10090       -5.18700        2.88960
S         -4.34650       -6.27280        2.27490
C         -5.62420       -5.13930        1.65810
C         -1.85480       -5.75060        3.16150
C         -0.80930       -4.96460        3.58930
C         -0.13970       -1.42510        2.04470
S         -1.01530       -2.41910        0.93090
C          1.45880       -0.17420        5.13410
C          1.04260       -0.64910        6.37250
C          1.90190       -0.32840        7.40760
C          1.65760       -0.74760        8.82150
C          1.07120        0.40050        9.64740
C          3.00040        0.44830        6.98150
S          2.89490        0.78180        5.26460
C          4.05140        0.81780        7.81980
C          5.17680        1.57640        7.57370
C          5.45890        2.31530        6.34400
O          4.80230        2.33740        5.31950
C          6.70840        3.06610        6.60140
C          7.15930        2.78490        7.90410
C          8.30900        3.39040        8.38370
C          8.99260        4.26920        7.55500
C          8.54830        4.53660        6.27000
Br         9.52310        5.74240        5.18840
C          7.39110        3.93250        5.76490
Cl         6.84800        4.24430        4.17220
C          6.23880        1.82700        8.51870
C          6.41650        1.24750        9.75180
C          7.48810        1.54100       10.61930
N          8.33080        1.73400       11.37510
C          5.58600        0.25890       10.31660
N          4.97210       -0.56450       10.83270
H         -3.28950       -3.77950       -5.59100
H         -3.30140        2.26570       -7.33300
H         -4.03500       -1.45720      -10.68930
H         -3.47610        1.52430      -12.29560
H         -5.89670        1.31840      -12.83850
H         -7.11100        0.69990      -10.60770
H         -6.72970        2.67770       -8.87700
H         -5.27770        4.51650      -10.04130
H         -4.90790        3.81230      -12.61310
H         -6.63800        3.77700      -12.19010
H         -3.10330        3.44600      -10.61380
H          0.75620        2.83880       -2.41600
H         -0.72020        3.80150       -4.12460
H         -5.57320        2.98770       -5.51600
H         -4.81460        1.55600       -4.77310
H         -5.51310        2.85840       -3.74390
H         -3.99760        1.54440       -2.55480
H         -2.55230        0.63110       -0.83580
H          2.53810        0.20910       -0.49070
H          4.53930        1.45130        0.26980
H          3.96100        6.22810        1.13710
H          5.28460        6.08180        2.30910
H          3.68450        5.42340        2.72010
H          2.10310        4.89570        0.98840
H          0.13580        3.66290        0.23650
H          2.73010       -2.46820        3.90450
H          4.35880       -2.96020        5.64650
H          5.85030       -2.73810        9.01890
H          4.93710       -1.91130        7.73660
H          6.02300       -3.27960        7.33350
H          1.26200       -4.61310        8.08390
H         -0.38980       -4.10790        6.32140
H         -2.40810       -1.98690        3.70630
H         -4.26500       -3.37670        2.95350
H         -5.16420       -4.39190        1.01840
H         -6.15460       -4.68060        2.48770
H         -6.30900       -5.75280        1.08120
H         -1.71400       -6.80940        3.00900
H          0.16090       -5.40050        3.77370
H          0.13290       -1.20440        6.51130
H          0.95620       -1.58320        8.81700
H          2.58090       -1.09370        9.28970
H          0.89510        0.06980       10.66720
H          0.12760        0.73150        9.21950
H          1.75270        1.24770        9.67160
H          3.95860        0.43130        8.82630
H          8.68040        3.20180        9.37680
H          9.88770        4.75480        7.91180
