
  xtb     02132200483D
 energy: -295.902269036956 gnorm: 0.000912608155 xtb: 6.4.1 (unknown)
169187  0     0  0            999 V2000
    6.4409    2.9983    5.1097 C   0  0  0  0  0  0  0  0  0  0  0  0
    7.5876    2.4583    4.6342 C   0  0  0  0  0  0  0  0  0  0  0  0
    7.7941    2.0216    3.2217 C   0  0  0  0  0  0  0  0  0  0  0  0
    7.0468    2.1816    2.2807 O   0  0  0  0  0  0  0  0  0  0  0  0
    9.1658    1.4909    3.1676 C   0  0  0  0  0  0  0  0  0  0  0  0
    9.7889    0.9054    2.0670 C   0  0  0  0  0  0  0  0  0  0  0  0
   11.0847    0.5133    2.2982 C   0  0  0  0  0  0  0  0  0  0  0  0
   11.7226    0.7007    3.5330 C   0  0  0  0  0  0  0  0  0  0  0  0
   11.1225    1.2792    4.6250 C   0  0  0  0  0  0  0  0  0  0  0  0
    9.7981    1.6789    4.4142 C   0  0  0  0  0  0  0  0  0  0  0  0
    8.8511    2.2954    5.3370 C   0  0  0  0  0  0  0  0  0  0  0  0
    9.0933    2.5979    6.6497 C   0  0  0  0  0  0  0  0  0  0  0  0
   10.3337    2.4181    7.2991 C   0  0  0  0  0  0  0  0  0  0  0  0
   11.3112    2.3071    7.8907 N   0  0  0  0  0  0  0  0  0  0  0  0
    8.1444    3.1202    7.5554 C   0  0  0  0  0  0  0  0  0  0  0  0
    7.4370    3.5306    8.3612 N   0  0  0  0  0  0  0  0  0  0  0  0
   13.0114    0.0845    3.0507 C   0  0  0  0  0  0  0  0  0  0  0  0
   14.1771    1.0377    2.6880 C   0  0  0  0  0  0  0  0  0  0  0  0
   13.5505    2.3489    2.2828 C   0  0  0  0  0  0  0  0  0  0  0  0
   12.9472    2.1663    1.1159 C   0  0  0  0  0  0  0  0  0  0  0  0
   13.1545    0.7277    0.7108 C   0  0  0  0  0  0  0  0  0  0  0  0
   14.5493    0.4769    1.3060 C   0  0  0  0  0  0  0  0  0  0  0  0
   12.2998   -0.1289    1.6774 C   0  0  0  0  0  0  0  0  0  0  0  0
    5.1767    2.9042    4.4288 C   0  0  0  0  0  0  0  0  0  0  0  0
    4.7785    1.7099    3.7686 C   0  0  0  0  0  0  0  0  0  0  0  0
    5.5486    0.6062    3.8789 N   0  0  0  0  0  0  0  0  0  0  0  0
    5.2078   -0.4574    3.2259 C   0  0  0  0  0  0  0  0  0  0  0  0
    4.0410   -0.4881    2.4036 C   0  0  0  0  0  0  0  0  0  0  0  0
    3.8036   -1.5890    1.7149 O   0  0  0  0  0  0  0  0  0  0  0  0
    2.6339   -1.6280    0.8978 C   0  0  0  0  0  0  0  0  0  0  0  0
    2.6348   -2.9376    0.1342 C   0  0  0  0  0  0  0  0  0  0  0  0
    3.2223    0.5382    2.3793 N   0  0  0  0  0  0  0  0  0  0  0  0
    3.5579    1.6517    3.0569 C   0  0  0  0  0  0  0  0  0  0  0  0
    2.6613    2.7617    3.0242 C   0  0  0  0  0  0  0  0  0  0  0  0
    3.0471    3.8812    3.7570 C   0  0  0  0  0  0  0  0  0  0  0  0
    4.2609    3.9448    4.4399 C   0  0  0  0  0  0  0  0  0  0  0  0
    4.5654    5.0826    5.0828 F   0  0  0  0  0  0  0  0  0  0  0  0
    2.2511    4.9627    3.8266 F   0  0  0  0  0  0  0  0  0  0  0  0
    1.4527    2.6861    2.2592 C   0  0  0  0  0  0  0  0  0  0  0  0
    0.5320    3.6690    1.9824 C   0  0  0  0  0  0  0  0  0  0  0  0
   -0.5395    3.2395    1.1814 C   0  0  0  0  0  0  0  0  0  0  0  0
   -1.5096    4.1694    0.6048 C   0  0  0  0  0  0  0  0  0  0  0  0
   -2.2618    3.9206   -0.3096 O   0  0  0  0  0  0  0  0  0  0  0  0
   -1.4386    5.3940    1.1514 O   0  0  0  0  0  0  0  0  0  0  0  0
   -0.4635    1.8836    0.8669 C   0  0  0  0  0  0  0  0  0  0  0  0
    0.9928    1.1824    1.5072 S   0  0  0  0  0  0  0  0  0  0  0  0
   -1.3795    1.0600    0.1673 C   0  0  0  0  0  0  0  0  0  0  0  0
   -2.7739    1.0868    0.1314 C   0  0  0  0  0  0  0  0  0  0  0  0
   -3.6039    1.8641    0.8959 N   0  0  0  0  0  0  0  0  0  0  0  0
   -4.9045    2.1177    0.4054 C   0  0  0  0  0  0  0  0  0  0  0  0
   -5.0814    2.6156   -0.8840 C   0  0  0  0  0  0  0  0  0  0  0  0
   -6.3510    2.7552   -1.3981 C   0  0  0  0  0  0  0  0  0  0  0  0
   -7.4611    2.4001   -0.6349 C   0  0  0  0  0  0  0  0  0  0  0  0
   -9.0358    2.5350   -1.4142 S   0  0  0  0  0  0  0  0  0  0  0  0
  -10.1258    1.5894   -0.3105 C   0  0  0  0  0  0  0  0  0  0  0  0
   -7.2871    1.9716    0.6745 C   0  0  0  0  0  0  0  0  0  0  0  0
   -6.0141    1.8303    1.1905 C   0  0  0  0  0  0  0  0  0  0  0  0
   -3.2311    2.3850    2.1362 C   0  0  0  0  0  0  0  0  0  0  0  0
   -2.3921    1.6799    2.9982 C   0  0  0  0  0  0  0  0  0  0  0  0
   -1.9533    2.2495    4.1746 C   0  0  0  0  0  0  0  0  0  0  0  0
   -2.3562    3.5341    4.5204 C   0  0  0  0  0  0  0  0  0  0  0  0
   -1.7799    4.3631    5.9675 S   0  0  0  0  0  0  0  0  0  0  0  0
   -0.1454    3.6093    6.2188 C   0  0  0  0  0  0  0  0  0  0  0  0
   -3.2652    4.2061    3.7088 C   0  0  0  0  0  0  0  0  0  0  0  0
   -3.6986    3.6396    2.5302 C   0  0  0  0  0  0  0  0  0  0  0  0
   -3.2739    0.1146   -0.7744 C   0  0  0  0  0  0  0  0  0  0  0  0
   -4.8718   -0.3312   -1.2497 S   0  0  0  0  0  0  0  0  0  0  0  0
   -4.2177   -1.5383   -2.3544 C   0  0  0  0  0  0  0  0  0  0  0  0
   -2.8086   -1.6616   -2.2317 C   0  0  0  0  0  0  0  0  0  0  0  0
   -2.0394   -2.5998   -2.8673 N   0  0  0  0  0  0  0  0  0  0  0  0
   -2.5256   -3.8873   -3.1659 C   0  0  0  0  0  0  0  0  0  0  0  0
   -3.3832   -4.5505   -2.2865 C   0  0  0  0  0  0  0  0  0  0  0  0
   -3.8976   -5.7813   -2.6228 C   0  0  0  0  0  0  0  0  0  0  0  0
   -3.5524   -6.3870   -3.8316 C   0  0  0  0  0  0  0  0  0  0  0  0
   -4.3134   -7.9362   -4.1920 S   0  0  0  0  0  0  0  0  0  0  0  0
   -4.0065   -8.1509   -5.9684 C   0  0  0  0  0  0  0  0  0  0  0  0
   -2.6444   -5.7609   -4.6734 C   0  0  0  0  0  0  0  0  0  0  0  0
   -2.1428   -4.5160   -4.3467 C   0  0  0  0  0  0  0  0  0  0  0  0
   -0.6942   -2.3105   -3.1521 C   0  0  0  0  0  0  0  0  0  0  0  0
    0.2938   -3.2738   -2.9477 C   0  0  0  0  0  0  0  0  0  0  0  0
    1.6132   -2.9734   -3.1964 C   0  0  0  0  0  0  0  0  0  0  0  0
    1.9798   -1.7028   -3.6397 C   0  0  0  0  0  0  0  0  0  0  0  0
    3.7055   -1.4162   -3.8533 S   0  0  0  0  0  0  0  0  0  0  0  0
    3.8113    0.3648   -4.1847 C   0  0  0  0  0  0  0  0  0  0  0  0
    0.9950   -0.7552   -3.8831 C   0  0  0  0  0  0  0  0  0  0  0  0
   -0.3308   -1.0614   -3.6472 C   0  0  0  0  0  0  0  0  0  0  0  0
   -2.2988   -0.6846   -1.3560 C   0  0  0  0  0  0  0  0  0  0  0  0
   -0.7126   -0.2692   -0.7851 S   0  0  0  0  0  0  0  0  0  0  0  0
   -4.9685   -2.1627   -3.3506 C   0  0  0  0  0  0  0  0  0  0  0  0
   -6.3212   -2.1117   -3.6022 C   0  0  0  0  0  0  0  0  0  0  0  0
   -7.3456   -1.5105   -2.7441 C   0  0  0  0  0  0  0  0  0  0  0  0
   -7.1884   -0.9287   -1.6824 O   0  0  0  0  0  0  0  0  0  0  0  0
   -8.6391   -1.7733   -3.3961 C   0  0  0  0  0  0  0  0  0  0  0  0
   -9.8942   -1.3542   -2.9661 C   0  0  0  0  0  0  0  0  0  0  0  0
  -10.9212   -1.7101   -3.8063 C   0  0  0  0  0  0  0  0  0  0  0  0
  -10.7147   -2.4331   -4.9877 C   0  0  0  0  0  0  0  0  0  0  0  0
   -9.4810   -2.8643   -5.4166 C   0  0  0  0  0  0  0  0  0  0  0  0
   -8.4222   -2.5104   -4.5768 C   0  0  0  0  0  0  0  0  0  0  0  0
   -6.9840   -2.7350   -4.7236 C   0  0  0  0  0  0  0  0  0  0  0  0
   -6.3951   -3.4041   -5.7700 C   0  0  0  0  0  0  0  0  0  0  0  0
   -5.0138   -3.4981   -6.0188 C   0  0  0  0  0  0  0  0  0  0  0  0
   -3.9130   -3.6035   -6.3368 N   0  0  0  0  0  0  0  0  0  0  0  0
   -7.0986   -4.0892   -6.7808 C   0  0  0  0  0  0  0  0  0  0  0  0
   -7.5902   -4.6956   -7.6238 N   0  0  0  0  0  0  0  0  0  0  0  0
  -12.1761   -2.3950   -5.3592 C   0  0  0  0  0  0  0  0  0  0  0  0
  -12.6104   -1.3825   -6.4487 C   0  0  0  0  0  0  0  0  0  0  0  0
  -11.6130   -0.2513   -6.4084 C   0  0  0  0  0  0  0  0  0  0  0  0
  -11.8116    0.4258   -5.2852 C   0  0  0  0  0  0  0  0  0  0  0  0
  -12.9480   -0.2368   -4.5458 C   0  0  0  0  0  0  0  0  0  0  0  0
  -13.7979   -0.7211   -5.7310 C   0  0  0  0  0  0  0  0  0  0  0  0
  -12.4068   -1.5961   -4.0376 C   0  0  0  0  0  0  0  0  0  0  0  0
    6.4315    3.5291    6.0528 H   0  0  0  0  0  0  0  0  0  0  0  0
    9.2609    0.7829    1.1342 H   0  0  0  0  0  0  0  0  0  0  0  0
   11.6278    1.4157    5.5664 H   0  0  0  0  0  0  0  0  0  0  0  0
   13.3501   -0.7960    3.5930 H   0  0  0  0  0  0  0  0  0  0  0  0
   14.9639    1.0924    3.4353 H   0  0  0  0  0  0  0  0  0  0  0  0
   13.5620    3.2320    2.8943 H   0  0  0  0  0  0  0  0  0  0  0  0
   12.3533    2.8661    0.5577 H   0  0  0  0  0  0  0  0  0  0  0  0
   13.0109    0.4993   -0.3421 H   0  0  0  0  0  0  0  0  0  0  0  0
   14.8302   -0.5752    1.3258 H   0  0  0  0  0  0  0  0  0  0  0  0
   15.3278    1.0564    0.8123 H   0  0  0  0  0  0  0  0  0  0  0  0
   12.1707   -1.1501    1.3239 H   0  0  0  0  0  0  0  0  0  0  0  0
    5.8213   -1.3398    3.3332 H   0  0  0  0  0  0  0  0  0  0  0  0
    2.6408   -0.7720    0.2154 H   0  0  0  0  0  0  0  0  0  0  0  0
    1.7495   -1.5417    1.5375 H   0  0  0  0  0  0  0  0  0  0  0  0
    1.7370   -2.9970   -0.4732 H   0  0  0  0  0  0  0  0  0  0  0  0
    3.5053   -2.9927   -0.5133 H   0  0  0  0  0  0  0  0  0  0  0  0
    2.6596   -3.7754    0.8256 H   0  0  0  0  0  0  0  0  0  0  0  0
    0.6120    4.6885    2.3096 H   0  0  0  0  0  0  0  0  0  0  0  0
   -2.0714    5.9839    0.7143 H   0  0  0  0  0  0  0  0  0  0  0  0
   -4.2124    2.8829   -1.4643 H   0  0  0  0  0  0  0  0  0  0  0  0
   -6.4985    3.1233   -2.4018 H   0  0  0  0  0  0  0  0  0  0  0  0
   -9.6679    0.6275   -0.0989 H   0  0  0  0  0  0  0  0  0  0  0  0
  -10.3139    2.1450    0.6040 H   0  0  0  0  0  0  0  0  0  0  0  0
  -11.0566    1.4563   -0.8538 H   0  0  0  0  0  0  0  0  0  0  0  0
   -8.1311    1.7283    1.2988 H   0  0  0  0  0  0  0  0  0  0  0  0
   -5.8766    1.4740    2.2010 H   0  0  0  0  0  0  0  0  0  0  0  0
   -2.0789    0.6786    2.7430 H   0  0  0  0  0  0  0  0  0  0  0  0
   -1.2984    1.6846    4.8191 H   0  0  0  0  0  0  0  0  0  0  0  0
    0.3978    4.2850    6.8717 H   0  0  0  0  0  0  0  0  0  0  0  0
    0.3576    3.5319    5.2603 H   0  0  0  0  0  0  0  0  0  0  0  0
   -0.2399    2.6368    6.6938 H   0  0  0  0  0  0  0  0  0  0  0  0
   -3.6038    5.1879    4.0008 H   0  0  0  0  0  0  0  0  0  0  0  0
   -4.3807    4.1746    1.8862 H   0  0  0  0  0  0  0  0  0  0  0  0
   -3.6586   -4.0859   -1.3516 H   0  0  0  0  0  0  0  0  0  0  0  0
   -4.5758   -6.2905   -1.9555 H   0  0  0  0  0  0  0  0  0  0  0  0
   -4.3028   -7.2511   -6.4993 H   0  0  0  0  0  0  0  0  0  0  0  0
   -4.6297   -8.9852   -6.2750 H   0  0  0  0  0  0  0  0  0  0  0  0
   -2.9615   -8.3892   -6.1450 H   0  0  0  0  0  0  0  0  0  0  0  0
   -2.3371   -6.2148   -5.6004 H   0  0  0  0  0  0  0  0  0  0  0  0
   -1.4657   -4.0196   -5.0235 H   0  0  0  0  0  0  0  0  0  0  0  0
    0.0195   -4.2521   -2.5825 H   0  0  0  0  0  0  0  0  0  0  0  0
    2.3808   -3.7144   -3.0360 H   0  0  0  0  0  0  0  0  0  0  0  0
    3.3579    0.5960   -5.1442 H   0  0  0  0  0  0  0  0  0  0  0  0
    4.8719    0.5946   -4.2162 H   0  0  0  0  0  0  0  0  0  0  0  0
    3.3372    0.9167   -3.3785 H   0  0  0  0  0  0  0  0  0  0  0  0
    1.2417    0.2233   -4.2610 H   0  0  0  0  0  0  0  0  0  0  0  0
   -1.0938   -0.3255   -3.8521 H   0  0  0  0  0  0  0  0  0  0  0  0
   -4.3816   -2.7452   -4.0488 H   0  0  0  0  0  0  0  0  0  0  0  0
  -10.0089   -0.7890   -2.0557 H   0  0  0  0  0  0  0  0  0  0  0  0
   -9.3395   -3.4201   -6.3285 H   0  0  0  0  0  0  0  0  0  0  0  0
  -12.6702   -3.3584   -5.4678 H   0  0  0  0  0  0  0  0  0  0  0  0
  -12.7971   -1.8232   -7.4244 H   0  0  0  0  0  0  0  0  0  0  0  0
  -10.8506   -0.0991   -7.1498 H   0  0  0  0  0  0  0  0  0  0  0  0
  -11.2478    1.2548   -4.8990 H   0  0  0  0  0  0  0  0  0  0  0  0
  -13.4435    0.3649   -3.7880 H   0  0  0  0  0  0  0  0  0  0  0  0
  -14.2310    0.0991   -6.3015 H   0  0  0  0  0  0  0  0  0  0  0  0
  -14.5794   -1.4244   -5.4461 H   0  0  0  0  0  0  0  0  0  0  0  0
  -13.0466   -2.0425   -3.2785 H   0  0  0  0  0  0  0  0  0  0  0  0
  1  2  2  0  0  0  0
  2  3  1  0  0  0  0
  3  4  2  0  0  0  0
  3  5  1  0  0  0  0
  5  6  2  0  0  0  0
  6  7  1  0  0  0  0
  7  8  2  0  0  0  0
  8  9  1  0  0  0  0
  9 10  2  0  0  0  0
 10 11  1  0  0  0  0
 11 12  2  0  0  0  0
 12 13  1  0  0  0  0
 13 14  3  0  0  0  0
 12 15  1  0  0  0  0
 15 16  3  0  0  0  0
  8 17  1  0  0  0  0
 17 18  1  0  0  0  0
 18 19  1  0  0  0  0
 19 20  2  0  0  0  0
 20 21  1  0  0  0  0
 21 22  1  0  0  0  0
 21 23  1  0  0  0  0
  1 24  1  0  0  0  0
 24 25  1  0  0  0  0
 25 26  2  0  0  0  0
 26 27  1  0  0  0  0
 27 28  2  0  0  0  0
 28 29  1  0  0  0  0
 29 30  1  0  0  0  0
 30 31  1  0  0  0  0
 28 32  1  0  0  0  0
 32 33  2  0  0  0  0
 33 34  1  0  0  0  0
 34 35  2  0  0  0  0
 35 36  1  0  0  0  0
 36 37  1  0  0  0  0
 35 38  1  0  0  0  0
 34 39  1  0  0  0  0
 39 40  2  0  0  0  0
 40 41  1  0  0  0  0
 41 42  1  0  0  0  0
 42 43  2  0  0  0  0
 42 44  1  0  0  0  0
 41 45  2  0  0  0  0
 45 46  1  0  0  0  0
 45 47  1  0  0  0  0
 47 48  2  0  0  0  0
 48 49  1  0  0  0  0
 49 50  1  0  0  0  0
 50 51  2  0  0  0  0
 51 52  1  0  0  0  0
 52 53  2  0  0  0  0
 53 54  1  0  0  0  0
 54 55  1  0  0  0  0
 53 56  1  0  0  0  0
 56 57  2  0  0  0  0
 49 58  1  0  0  0  0
 58 59  2  0  0  0  0
 59 60  1  0  0  0  0
 60 61  2  0  0  0  0
 61 62  1  0  0  0  0
 62 63  1  0  0  0  0
 61 64  1  0  0  0  0
 64 65  2  0  0  0  0
 48 66  1  0  0  0  0
 66 67  1  0  0  0  0
 67 68  1  0  0  0  0
 68 69  2  0  0  0  0
 69 70  1  0  0  0  0
 70 71  1  0  0  0  0
 71 72  2  0  0  0  0
 72 73  1  0  0  0  0
 73 74  2  0  0  0  0
 74 75  1  0  0  0  0
 75 76  1  0  0  0  0
 74 77  1  0  0  0  0
 77 78  2  0  0  0  0
 70 79  1  0  0  0  0
 79 80  2  0  0  0  0
 80 81  1  0  0  0  0
 81 82  2  0  0  0  0
 82 83  1  0  0  0  0
 83 84  1  0  0  0  0
 82 85  1  0  0  0  0
 85 86  2  0  0  0  0
 69 87  1  0  0  0  0
 87 88  1  0  0  0  0
 68 89  1  0  0  0  0
 89 90  2  0  0  0  0
 90 91  1  0  0  0  0
 91 92  2  0  0  0  0
 91 93  1  0  0  0  0
 93 94  2  0  0  0  0
 94 95  1  0  0  0  0
 95 96  2  0  0  0  0
 96 97  1  0  0  0  0
 97 98  2  0  0  0  0
 98 99  1  0  0  0  0
 99100  2  0  0  0  0
100101  1  0  0  0  0
101102  3  0  0  0  0
100103  1  0  0  0  0
103104  3  0  0  0  0
 96105  1  0  0  0  0
105106  1  0  0  0  0
106107  1  0  0  0  0
107108  2  0  0  0  0
108109  1  0  0  0  0
109110  1  0  0  0  0
109111  1  0  0  0  0
 11  2  1  0  0  0  0
 23 17  1  0  0  0  0
 36 24  2  0  0  0  0
 46 39  1  0  0  0  0
 88 47  1  0  0  0  0
 99 90  1  0  0  0  0
111105  1  0  0  0  0
 10  5  1  0  0  0  0
 22 18  1  0  0  0  0
 33 25  1  0  0  0  0
 57 50  1  0  0  0  0
 65 58  1  0  0  0  0
 87 66  2  0  0  0  0
 98 93  1  0  0  0  0
110106  1  0  0  0  0
 23  7  1  0  0  0  0
 78 71  1  0  0  0  0
 86 79  1  0  0  0  0
111 95  1  0  0  0  0
  1112  1  0  0  0  0
  6113  1  0  0  0  0
  9114  1  0  0  0  0
 17115  1  0  0  0  0
 18116  1  0  0  0  0
 19117  1  0  0  0  0
 20118  1  0  0  0  0
 21119  1  0  0  0  0
 22120  1  0  0  0  0
 22121  1  0  0  0  0
 23122  1  0  0  0  0
 27123  1  0  0  0  0
 30124  1  0  0  0  0
 30125  1  0  0  0  0
 31126  1  0  0  0  0
 31127  1  0  0  0  0
 31128  1  0  0  0  0
 40129  1  0  0  0  0
 44130  1  0  0  0  0
 51131  1  0  0  0  0
 52132  1  0  0  0  0
 55133  1  0  0  0  0
 55134  1  0  0  0  0
 55135  1  0  0  0  0
 56136  1  0  0  0  0
 57137  1  0  0  0  0
 59138  1  0  0  0  0
 60139  1  0  0  0  0
 63140  1  0  0  0  0
 63141  1  0  0  0  0
 63142  1  0  0  0  0
 64143  1  0  0  0  0
 65144  1  0  0  0  0
 72145  1  0  0  0  0
 73146  1  0  0  0  0
 76147  1  0  0  0  0
 76148  1  0  0  0  0
 76149  1  0  0  0  0
 77150  1  0  0  0  0
 78151  1  0  0  0  0
 80152  1  0  0  0  0
 81153  1  0  0  0  0
 84154  1  0  0  0  0
 84155  1  0  0  0  0
 84156  1  0  0  0  0
 85157  1  0  0  0  0
 86158  1  0  0  0  0
 89159  1  0  0  0  0
 94160  1  0  0  0  0
 97161  1  0  0  0  0
105162  1  0  0  0  0
106163  1  0  0  0  0
107164  1  0  0  0  0
108165  1  0  0  0  0
109166  1  0  0  0  0
110167  1  0  0  0  0
110168  1  0  0  0  0
111169  1  0  0  0  0
M  END
