205

C         -0.57780       -1.48920        5.58040
C         -0.30270       -2.56920        6.39050
C         -0.36840       -3.98110        6.01100
O         -0.58420       -4.45080        4.90480
C         -0.13890       -4.75270        7.24640
C         -0.08880       -6.13840        7.37670
C          0.17110       -6.57150        8.65520
C          0.36940       -5.69070        9.72550
C          0.32310       -4.32100        9.61030
C          0.05580       -3.86000        8.31870
C         -0.02430       -2.49300        7.80370
C          0.16390       -1.35570        8.55330
C          0.31240       -1.33230        9.95410
N          0.40450       -1.21830       11.09390
C          0.26890       -0.04640        8.05010
N          0.42210        1.04910        7.73340
C          0.59570       -6.81070       10.71080
C         -0.57560       -7.14860       11.65680
C         -0.25540       -8.54340       12.14370
C         -0.44560       -9.37830       11.13010
C         -0.89740       -8.56170        9.94080
C         -1.69720       -7.46780       10.66000
C          0.37260       -7.79370        9.51700
C         -0.85070       -1.42650        4.21620
C         -1.15680       -0.21950        3.53320
N         -1.40280        1.00000        4.11060
C         -1.06350        2.16010        3.38870
C          0.16810        2.24240        2.73710
C          0.48140        3.34890        1.98120
C         -0.41850        4.40760        1.87550
S          0.07260        5.74730        0.83820
C         -1.40710        6.79540        0.73780
C         -1.62300        4.35210        2.56600
C         -1.94520        3.23280        3.30820
C         -2.06070        1.13670        5.34510
C         -1.69220        2.15500        6.21920
C         -2.29210        2.26590        7.45840
C         -3.25460        1.34610        7.84940
S         -4.00960        1.34460        9.44340
C         -2.85620        2.32440       10.44660
C         -3.66670        0.36030        6.95240
C         -3.08590        0.26170        5.70930
C         -1.15990       -0.42170        2.14500
S         -1.40470        0.61360        0.77780
C         -1.12580       -0.72620       -0.32130
C         -0.83190       -1.90710        0.36110
N         -0.48800       -3.13770       -0.21400
C         -1.31810       -4.21650        0.17260
C         -0.83600       -5.27140        0.93820
C         -1.67200       -6.30920        1.30080
C         -3.00430       -6.29630        0.90820
S         -4.14720       -7.58630        1.29430
C         -3.33990       -8.46670        2.66230
C         -3.49120       -5.23530        0.14770
C         -2.65540       -4.20140       -0.21430
C          0.72690       -3.35530       -0.84490
C          0.98250       -4.57800       -1.47210
C          2.13110       -4.76570       -2.20370
C          3.05250       -3.73380       -2.36180
S          4.41340       -4.05870       -3.44530
C          5.53610       -2.66280       -3.17060
C          2.83010       -2.53020       -1.70990
C          1.69130       -2.35120       -0.94810
C         -0.89270       -1.72940        1.75660
S         -0.68720       -2.79170        3.10300
C         -1.07340       -0.49340       -1.71570
C         -1.09100        0.73230       -2.38630
N         -1.46440        1.95220       -1.83330
C         -2.73850        2.09900       -1.27320
C         -2.97030        3.08850       -0.31460
C         -4.20960        3.22550        0.26200
C         -5.25550        2.37440       -0.09440
S         -6.79410        2.64270        0.72660
C         -7.91220        1.42460       -0.02080
C         -5.03150        1.38680       -1.04280
C         -3.78640        1.25470       -1.62830
C         -0.66320        3.06490       -2.12580
C          0.72290        2.91680       -2.14080
C          1.53570        3.98450       -2.45730
C          0.97870        5.22210       -2.74410
S          2.05800        6.56990       -3.17050
C          1.51820        7.81470       -1.95690
C         -0.39980        5.37840       -2.73000
C         -1.21530        4.30780       -2.42940
C         -0.65910        0.58310       -3.72310
S         -0.20840        1.68700       -4.97420
C          0.35200        0.34090       -5.96560
C          0.17680       -0.89840       -5.35440
N          0.57320       -2.14040       -5.82790
C         -0.26260       -3.20690       -5.43980
C          0.23220       -4.36370       -4.84770
C         -0.63190       -5.32130       -4.35310
C         -2.00530       -5.13350       -4.43160
S         -3.19650       -6.24110       -3.74790
C         -2.22910       -7.27520       -2.61440
C         -2.50330       -4.00740       -5.08490
C         -1.64350       -3.05870       -5.58810
C          1.89180       -2.36600       -6.23560
C          2.19990       -3.47870       -7.01520
C          3.50350       -3.74500       -7.38450
C          4.52580       -2.88910       -6.99770
S          6.22760       -3.14280       -7.38750
C          6.29280       -4.89820       -7.84650
C          4.21630       -1.74970       -6.25970
C          2.92100       -1.49670       -5.87050
C         -0.41550       -0.73420       -4.08590
S         -0.75290       -1.83630       -2.80210
C          0.96610        0.71510       -7.18360
C          1.43820        0.03260       -8.30640
C          1.94990        1.00230       -9.15730
C          1.76320        2.23970       -8.52950
O          1.16700        2.02910       -7.33820
C          2.15450        3.51740       -8.95650
C          1.91420        4.72770       -8.34940
C          0.98930        4.99180       -7.21970
O          0.24270        4.23740       -6.63700
C          1.08520        6.44960       -6.97030
C          0.40890        7.18790       -6.02220
C          0.65330        8.55510       -5.98180
C         -0.05820        9.43730       -4.99740
F          0.78990       10.13530       -4.22050
F         -0.86190        8.76360       -4.16000
F         -0.83660       10.35160       -5.60600
C          1.55110        9.15030       -6.86280
C          2.21940        8.39970       -7.81830
C          1.97860        7.03450       -7.87810
C          2.49570        5.98740       -8.76340
C          3.38920        6.20350       -9.78320
C          3.91830        5.22390      -10.64880
N          4.40360        4.49820      -11.39590
C          3.91370        7.46810      -10.12320
N          4.37870        8.46200      -10.46200
H         -0.57710       -0.52490        6.07190
H         -0.23450       -6.78140        6.52260
H          0.48630       -3.65680       10.44260
H          1.56180       -6.81190       11.21210
H         -0.77810       -6.39880       12.41650
H          0.11820       -8.76500       13.12620
H         -0.26240      -10.43640       11.09680
H         -1.39420       -9.10040        9.13800
H         -2.58480       -7.86260       11.15160
H         -1.97540       -6.63020       10.02310
H          1.18980       -8.45110        9.22490
H          0.87290        1.42900        2.82480
H          1.42460        3.40870        1.46050
H         -1.15680        7.58680        0.03820
H         -2.24430        6.21800        0.35660
H         -1.62970        7.22480        1.71010
H         -2.32700        5.16710        2.52200
H         -2.89370        3.18390        3.82140
H         -0.91530        2.84800        5.93730
H         -1.97640        3.05660        8.11800
H         -1.84280        1.97120       10.28020
H         -3.14460        2.15230       11.47890
H         -2.95130        3.38030       10.21010
H         -4.44430       -0.32700        7.24820
H         -3.40380       -0.50800        5.02180
H          0.19630       -5.27560        1.25340
H         -1.27360       -7.11570        1.89410
H         -3.02170       -7.75000        3.41320
H         -2.50250       -9.05270        2.29430
H         -4.09640       -9.12770        3.07390
H         -4.52560       -5.23830       -0.15930
H         -3.02560       -3.37850       -0.80760
H          0.26520       -5.37880       -1.39200
H          2.32190       -5.71500       -2.68130
H          5.06330       -1.73900       -3.48930
H          6.40670       -2.86000       -3.78850
H          5.82100       -2.62360       -2.12320
H          3.53460       -1.71720       -1.78740
H          1.53750       -1.40770       -0.44520
H         -2.15400        3.72400       -0.01360
H         -4.38610        3.98470        1.00830
H         -7.98940        1.59990       -1.08980
H         -8.87680        1.58750        0.44990
H         -7.56380        0.41830        0.19260
H         -5.81770        0.71260       -1.34230
H         -3.63080        0.48630       -2.37110
H          1.15580        1.95710       -1.89790
H          2.60840        3.87030       -2.47580
H          0.48660        8.09530       -2.13860
H          1.63600        7.40460       -0.95840
H          2.16500        8.67470       -2.09490
H         -0.84380        6.33380       -2.96610
H         -2.28800        4.42820       -2.45210
H          1.29740       -4.49890       -4.74300
H         -0.21910       -6.20220       -3.88980
H         -2.95750       -7.84840       -2.04900
H         -1.58180       -7.94690       -3.17090
H         -1.66210       -6.63940       -1.94120
H         -3.57110       -3.88330       -5.17810
H         -2.03270       -2.17800       -6.07770
H          1.40940       -4.14490       -7.32740
H          3.70740       -4.62070       -7.97900
H          5.83310       -5.05300       -8.81850
H          5.80390       -5.48790       -7.07680
H          7.34740       -5.15070       -7.89670
H          5.01210       -1.07570       -5.98110
H          2.70580       -0.63310       -5.26010
H          1.40350       -1.02440       -8.46920
H          2.40180        0.85070      -10.11670
H          2.73950        3.50790       -9.86530
H         -0.28120        6.70330       -5.35020
H          1.72350       10.21440       -6.80230
H          2.90340        8.88770       -8.49210
