151

C          5.11990       -3.61960       -0.84320
C          5.06760       -4.95710       -0.56010
C          3.82620       -5.74330       -0.40320
O          2.67580       -5.35510       -0.48440
C          4.25190       -7.15160       -0.29300
C          3.42820       -8.26240       -0.13010
C          4.10180       -9.45920       -0.08880
C          5.49410       -9.54780       -0.21550
C          6.31800       -8.46060       -0.38650
C          5.65280       -7.23200       -0.41990
C          6.18210       -5.87900       -0.57790
C          7.51000       -5.54100       -0.64860
C          8.57170       -6.46790       -0.64300
N          9.48430       -7.16550       -0.64910
C          8.01000       -4.22360       -0.71410
N          8.50970       -3.18960       -0.74700
C          5.49000      -11.05060       -0.08380
C          5.92270      -11.65670        1.27400
C          5.62480      -10.61420        2.32290
C          4.30700      -10.52870        2.44590
C          3.69000      -11.51220        1.48240
C          4.75150      -12.62320        1.51240
C          3.93860      -10.95110        0.06030
C          4.08980       -2.67580       -0.61610
C          3.15340       -2.73320        0.43700
C          2.13040       -1.73040        0.59940
N          1.35560       -1.97980        1.65700
S          1.87340       -3.31800        2.38520
N          3.10310       -3.64060        1.41530
C          1.97490       -0.60430       -0.24470
C          2.90500       -0.55700       -1.31050
N          2.91280        0.31820       -2.31540
S          4.12600       -0.03150       -3.31270
N          4.69520       -1.32050       -2.54070
C          3.95490       -1.54540       -1.45670
C          0.89010        0.27550       -0.03080
C          0.56810        1.52460       -0.59870
N          1.43550        2.40310       -1.19000
C          2.78560        2.47650       -0.84300
C          3.71600        2.93710       -1.77540
C          5.06270        2.95900       -1.48000
C          5.51170        2.53220       -0.23450
S          7.20140        2.47230        0.24500
C          8.10430        2.73060       -1.30780
C          4.57780        2.13330        0.72310
C          3.23500        2.11110        0.42810
C          0.90500        3.35770       -2.08010
C          0.10710        2.95150       -3.14650
C         -0.46360        3.89320       -3.97900
C         -0.25050        5.24560       -3.74730
S         -1.01650        6.43710       -4.81370
C         -1.87830        7.46470       -3.58380
C          0.58170        5.65030       -2.71060
C          1.15610        4.71320       -1.87950
C         -0.79110        1.84100       -0.35450
S         -1.85250        3.11420       -0.85520
C         -3.18250        2.41740        0.07220
C         -2.77530        1.29820        0.80630
N         -3.51570        0.55680        1.71350
C         -3.12020       -0.79660        1.83170
C         -3.10620       -1.59450        0.69140
C         -2.51530       -2.84160        0.71840
C         -1.92270       -3.29900        1.88890
S         -0.95570       -4.77500        1.94930
C         -0.36600       -4.90420        0.23730
C         -2.04700       -2.55520        3.05970
C         -2.64300       -1.31380        3.03540
C         -4.30360        1.13250        2.71070
C         -5.26740        0.34960        3.35440
C         -6.08850        0.90280        4.30940
C         -5.98540        2.25480        4.63990
S         -7.13980        2.86370        5.82700
C         -6.90340        4.66220        5.78200
C         -5.01110        3.02930        4.02360
C         -4.17640        2.47160        3.07450
C         -1.43560        0.96200        0.50080
S         -0.38500       -0.31170        1.02700
C         -4.45260        3.01860       -0.09590
C         -5.68430        2.62910        0.41370
C         -6.71960        3.46710        0.02260
S         -8.39780        3.32190        0.47520
C         -8.37220        2.16420        1.88960
C         -8.46790        0.71190        1.46450
C         -6.31330        4.50160       -0.84800
S         -4.59830        4.38490       -1.16230
C         -7.17400        5.49090       -1.31320
C         -6.98350        6.43340       -2.29820
C         -5.86570        6.48170       -3.23250
O         -4.78860        5.92100       -3.13720
C         -6.31710        7.35210       -4.34520
C         -5.71560        7.57460       -5.57100
Cl        -4.19800        6.89790       -5.96520
C         -6.40150        8.35520       -6.51380
Cl        -5.68070        8.68540       -8.02960
C         -7.68280        8.82420       -6.23680
Cl        -8.53280        9.69880       -7.43630
C         -8.30000        8.57120       -5.00000
Cl        -9.94380        9.02090       -4.80450
C         -7.58580        7.88400       -4.02910
C         -7.92680        7.46640       -2.66990
C         -8.80220        8.06540       -1.80160
C         -9.47990        9.28690       -1.99830
N         -9.99950       10.31050       -2.01120
C         -8.99550        7.62860       -0.47120
N         -9.19730        7.34670        0.62340
H          5.99990       -3.21790       -1.33050
H          2.35800       -8.15350       -0.04430
H          7.38660       -8.54560       -0.49340
H          5.88860      -11.60480       -0.93130
H          6.92620      -12.07350        1.28280
H          6.37790      -10.02300        2.80990
H          3.73880       -9.85120        3.05620
H          2.66030      -11.79800        1.68150
H          4.80900      -13.12500        2.47730
H          4.62980      -13.36130        0.72060
H          3.32440      -11.44220       -0.69240
H          3.37860        3.24040       -2.75460
H          5.75490        3.30130       -2.23190
H          9.15020        2.57030       -1.06540
H          7.96130        3.74670       -1.66380
H          7.78080        2.00060       -2.04360
H          4.92500        1.83830        1.70130
H          2.52940        1.80720        1.18600
H         -0.06010        1.89750       -3.30950
H         -1.08790        3.59010       -4.80450
H         -2.69650        6.88660       -3.16190
H         -1.18840        7.78750       -2.81190
H         -2.26310        8.32510       -4.12170
H          0.78110        6.69910       -2.55220
H          1.79360        5.02230       -1.06430
H         -3.52000       -1.21040       -0.22970
H         -2.49700       -3.43650       -0.18040
H         -1.10360       -5.40840       -0.38020
H         -0.15680       -3.90740       -0.13940
H          0.55610       -5.47740        0.25820
H         -1.62370       -2.93890        3.97450
H         -2.68750       -0.71310        3.93110
H         -5.37150       -0.69170        3.08910
H         -6.83520        0.30000        4.80280
H         -7.03280        5.02670        4.76720
H         -7.67820        5.07260        6.42210
H         -5.92580        4.92330        6.17690
H         -4.88690        4.07000        4.27450
H         -3.41710        3.08440        2.61440
H         -5.81620        1.76120        1.02750
H         -7.47310        2.36830        2.46700
H         -9.24400        2.44900        2.47840
H         -9.38930        0.53930        0.91360
H         -7.63200        0.42870        0.82920
H         -8.46340        0.07570        2.34690
H         -8.15730        5.45760       -0.85590
