215

C         -6.77630       -1.82080       -2.86910
C         -7.49630       -0.75850       -3.35140
C         -6.94670        0.52620       -3.79930
O         -5.82680        0.75310       -4.22500
C         -8.04430        1.50150       -3.66270
C         -7.96460        2.88520       -3.80150
C         -9.15590        3.53750       -3.58920
C        -10.34160        2.86440       -3.26940
C        -10.43400        1.49930       -3.12700
C         -9.23040        0.81620       -3.32710
C         -8.92660       -0.60800       -3.19690
C         -9.83600       -1.60140       -2.93410
C         -9.53120       -2.97470       -2.84950
N         -9.36920       -4.11060       -2.78440
C        -11.21570       -1.38800       -2.74260
N        -12.34610       -1.27820       -2.57210
C        -11.13680        4.14270       -3.17320
C        -11.44520        4.65490       -1.75020
C        -11.78810        6.11270       -1.95750
C        -10.66600        6.75160       -2.26290
C         -9.54560        5.73690       -2.26660
C        -10.03750        4.79800       -1.15730
C         -9.81420        4.89390       -3.53130
C         -5.39390       -1.94410       -2.68120
C         -4.82030       -2.77170       -1.68900
N         -5.55450       -3.34820       -0.67970
C         -6.71130       -2.70270       -0.19220
C         -7.86180       -3.43670        0.09230
C         -9.02240       -2.78720        0.45130
C         -9.06030       -1.39610        0.53450
S        -10.61880       -0.66340        0.91340
C        -10.36850        1.09520        0.53450
C         -7.89430       -0.66900        0.32540
C         -6.72940       -1.31960       -0.02630
C         -5.10040       -4.50370       -0.03460
C         -5.26320       -4.64850        1.34050
C         -4.84690       -5.79720        1.98170
C         -4.26960       -6.82780        1.25160
S         -3.69360       -8.33770        1.95850
C         -4.31290       -8.28250        3.66540
C         -4.10900       -6.68580       -0.12570
C         -4.50910       -5.53480       -0.76350
C         -3.41520       -2.72810       -1.74640
S         -2.12320       -3.41640       -0.80530
C         -0.95530       -2.35620       -1.59530
C         -1.54560       -1.58970       -2.58990
N         -0.89730       -0.62440       -3.34730
C          0.41100       -0.77830       -3.79630
C          0.91900       -2.03490       -4.11760
C          2.22390       -2.17900       -4.54720
C          3.04860       -1.06750       -4.65890
S          4.75150       -1.15300       -5.13430
C          4.90880       -2.79500       -5.88980
C          2.54470        0.19240       -4.34430
C          1.24420        0.33650       -3.91770
C         -1.60500        0.57090       -3.57800
C         -1.67060        1.11880       -4.85450
C         -2.46270        2.22210       -5.09630
C         -3.21110        2.77870       -4.06830
S         -4.29570        4.15120       -4.34230
C         -4.96300        3.74990       -5.98550
C         -3.11010        2.26700       -2.78080
C         -2.30370        1.17730       -2.53540
C         -2.93440       -1.83000       -2.69270
S         -4.18530       -1.03300       -3.57140
C          0.32100       -2.01080       -1.03750
C          1.45490       -2.69940       -0.64040
N          1.79030       -4.00700       -0.92760
C          3.12100       -4.29540       -1.28070
C          3.89510       -3.38650       -2.00380
C          5.20010       -3.68060       -2.32740
C          5.76240       -4.90050       -1.95900
S          7.43320       -5.17840       -2.45870
C          7.91350       -6.67580       -1.55350
C          4.99290       -5.81720       -1.25530
C          3.69010       -5.51150       -0.91260
C          0.87280       -5.06910       -1.02000
C          0.04320       -5.41640        0.04330
C         -0.70590       -6.57240       -0.01880
C         -0.64540       -7.39770       -1.14100
S         -1.53630       -8.91900       -1.06260
C         -1.35850       -9.62490       -2.72770
C          0.13250       -7.01960       -2.22730
C          0.88430       -5.86480       -2.16180
C          2.39970       -1.81440       -0.04550
S          3.94970       -2.01300        0.71050
C          4.14710       -0.26690        0.82580
C          3.07470        0.41210        0.25890
N          3.08890        1.77700       -0.02250
C          1.82820        2.40880       -0.02740
C          1.36560        3.12780       -1.12490
C          0.10680        3.69600       -1.11340
C         -0.70830        3.55910        0.00160
S         -2.33280        4.23860        0.11060
C         -2.37000        5.48060       -1.21320
C         -0.24920        2.83870        1.10260
C          1.00430        2.26940        1.08920
C          4.06220        2.20450       -0.96090
C          4.44840        3.54670       -0.98750
C          5.37380        3.98320       -1.90860
C          5.94230        3.09150       -2.81940
S          7.09660        3.75930       -3.97050
C          7.59380        2.32620       -4.96880
C          5.57180        1.75430       -2.78540
C          4.63780        1.31920       -1.86520
C          2.05580       -0.47710       -0.13170
S          0.47040       -0.26370       -0.74860
C          5.22600        0.31680        1.52140
C          6.23640       -0.35570        2.20280
C          7.07900        0.43290        2.96840
C          6.80460        1.79510        2.94550
Se         5.33980        2.16200        1.79840
C          7.39240        2.89870        3.58580
C          8.34770        2.99590        4.56450
C          8.97560        1.91780        5.35650
O          8.93080        0.71560        5.18290
C          9.69090        2.59270        6.45800
C         10.36630        1.97740        7.50990
C         10.91590        2.85640        8.41160
C         10.80580        4.24640        8.27510
C         10.15070        4.86590        7.23780
C          9.58120        3.98810        6.30990
C          8.81060        4.26360        5.09970
C          8.62540        5.50760        4.55020
C          9.11550        6.70590        5.10910
N          9.47640        7.72220        5.50460
C          7.96320        5.79060        3.33670
N          7.46130        6.12010        2.35670
C         11.57260        4.51300        9.54670
C         10.73860        4.91300       10.78220
C         11.66210        4.63810       11.94690
C         11.76700        3.32170       12.07650
C         10.91600        2.68490       11.00170
C          9.78540        3.71810       10.91400
C         11.69590        2.96300        9.69890
H         -7.35340       -2.64020       -2.46040
H         -7.02950        3.36950       -4.03180
H        -11.35290        0.99560       -2.87650
H        -11.98510        4.22800       -3.84940
H        -12.16480        4.05710       -1.19730
H        -12.78710        6.50510       -1.91740
H        -10.54060        7.78480       -2.52870
H         -8.53330        6.12320       -2.18370
H         -9.48440        3.86280       -1.09160
H        -10.04860        5.28280       -0.18250
H         -9.78060        5.47960       -4.44810
H         -7.85040       -4.51070       -0.01030
H         -9.92360       -3.34930        0.64000
H         -9.71280        1.55380        1.26920
H         -9.97270        1.20230       -0.47170
H        -11.35410        1.54630        0.59170
H         -7.87970        0.40360        0.43400
H         -5.82970       -0.74670       -0.19710
H         -5.71480       -3.85040        1.91090
H         -4.97620       -5.87250        3.04910
H         -4.07420       -9.25170        4.09220
H         -5.38860       -8.13500        3.66180
H         -3.80780       -7.50110        4.22580
H         -3.67700       -7.49870       -0.68550
H         -4.39470       -5.43710       -1.83260
H          0.28660       -2.90620       -4.02980
H          2.58860       -3.16580       -4.78520
H          4.15430       -2.91150       -6.66220
H          5.90030       -2.82160       -6.33120
H          4.82590       -3.56930       -5.13190
H          3.18950        1.05400       -4.42500
H          0.86290        1.31270       -3.65890
H         -1.11270        0.66390       -5.65970
H         -2.51010        2.62940       -6.09400
H         -5.22390        2.69550       -5.99660
H         -4.23930        3.98720       -6.75970
H         -5.84870        4.36440       -6.11740
H         -3.67950        2.71410       -1.98100
H         -2.22930        0.77290       -1.53640
H          3.46790       -2.44500       -2.31380
H          5.80080       -2.96510       -2.86820
H          8.97500       -6.80350       -1.74170
H          7.74020       -6.53160       -0.49130
H          7.36810       -7.53620       -1.93070
H          5.39710       -6.77110       -0.95760
H          3.10480       -6.22510       -0.35220
H          0.01530       -4.79450        0.92530
H         -1.32380       -6.86700        0.81440
H         -0.32000       -9.87590       -2.92260
H         -1.74530       -8.93160       -3.46870
H         -1.95910      -10.52920       -2.72090
H          0.17800       -7.62220       -3.11980
H          1.51560       -5.58630       -2.99320
H          1.98810        3.22960       -2.00120
H         -0.23450        4.22770       -1.98720
H         -1.50050        6.12480       -1.12720
H         -3.27640        6.05530       -1.05060
H         -2.41690        5.00100       -2.18670
H         -0.88740        2.73550        1.96660
H          1.36300        1.71490        1.94420
H          4.00450        4.23900       -0.28700
H          5.67320        5.01940       -1.93050
H          8.08490        1.58880       -4.34090
H          8.29550        2.71280       -5.70140
H          6.73010        1.90150       -5.47190
H          5.98130        1.03630       -3.47700
H          4.34560        0.27980       -1.87420
H          6.32740       -1.42810        2.14020
H          7.88620        0.03170        3.55550
H          6.96740        3.84390        3.25880
H         10.42690        0.90220        7.57480
H         10.07450        5.93650        7.14890
H         12.48250        5.10030        9.43880
H         10.29630        5.90420       10.73130
H         12.17150        5.40360       12.50230
H         12.38180        2.76790       12.76190
H         10.63470        1.64590       11.15180
H          9.19520        3.76110       11.82810
H          9.12440        3.58130       10.06020
H         12.68860        2.51660        9.69340
