250

C         -0.52960       -2.76800        5.92430
C          0.79500       -2.48320        6.07600
C          1.42640       -1.31640        5.41140
O          0.88920       -0.52480        4.66490
C          2.78890       -1.23090        5.96120
C          3.77870       -0.31700        5.60860
C          4.97290       -0.50600        6.26090
C          5.15950       -1.50520        7.22560
C          4.18820       -2.40760        7.58970
C          2.97900       -2.26040        6.90530
C          1.77130       -3.07810        6.95300
C          1.64880       -4.30790        7.55020
C          2.69400       -4.96040        8.22900
N          3.53250       -5.54930        8.74910
C          0.49420       -5.10810        7.44080
N         -0.41090       -5.81010        7.35850
C          6.59610       -1.11640        7.46600
C          6.93200       -0.29320        8.73310
C          5.68630        0.48060        9.08660
C          5.51640        1.41850        8.16450
C          6.64380        1.29560        7.16950
C          7.77470        0.82440        8.09720
C          6.39210       -0.01230        6.38170
C         -1.26200       -2.32700        4.78540
C         -0.99110       -2.56150        3.43740
N         -0.07710       -3.46070        2.92180
C          1.28570       -3.48870        3.31920
C          2.15060       -2.49500        2.87220
C          3.48470       -2.53510        3.21570
C          3.97530       -3.57140        4.00720
S          5.68960       -3.50530        4.41670
C          5.93000       -4.89430        5.55860
C          3.11910       -4.58350        4.42340
C          1.78240       -4.54560        4.07060
C         -0.49470       -4.43440        2.01020
C          0.43980       -5.07110        1.18860
C          0.04230       -6.04610        0.30240
C         -1.29890       -6.40830        0.19550
S         -1.68680       -7.64850       -0.99830
C         -3.48640       -7.83970       -0.86430
C         -2.23040       -5.79170        1.01890
C         -1.82960       -4.82660        1.92160
C         -1.94420       -1.90150        2.62170
S         -2.07450       -1.67550        0.91590
C         -3.44490       -0.60120        1.15570
C         -3.83060       -0.50630        2.47760
N         -4.97370        0.14130        2.91290
C         -4.97680        0.76680        4.17250
C         -3.88090        1.51240        4.59140
C         -3.89730        2.17280        5.80340
C         -5.01700        2.09830        6.61910
S         -5.14960        2.92570        8.17130
C         -3.92180        4.25570        8.02850
C         -6.10110        1.31770        6.22280
C         -6.08150        0.65560        5.01640
C         -6.13360        0.13960        2.12920
C         -7.03420        1.20140        2.20570
C         -8.17930        1.22000        1.43490
C         -8.45610        0.16890        0.57260
S         -9.88850        0.10850       -0.46570
C        -10.99420        1.35590        0.24820
C         -7.57110       -0.90200        0.49930
C         -6.42910       -0.91990        1.26930
C         -2.93790       -1.22890        3.31350
S         -2.73930       -1.40040        5.02010
C         -3.88170        0.22160        0.05300
C         -3.51340        1.54180       -0.08170
N         -2.65480        2.17600        0.83470
C         -1.31090        1.73960        0.78310
C         -0.64740        1.69740       -0.43900
C          0.66260        1.26760       -0.52540
C          1.33090        0.84730        0.61380
S          3.00190        0.26530        0.60750
C          3.48310        0.32740       -1.13860
C          0.67160        0.87700        1.84070
C         -0.63220        1.31440        1.92380
C         -3.11580        3.12700        1.72210
C         -2.24010        3.87910        2.50790
C         -2.72220        4.77330        3.44110
C         -4.08820        4.96450        3.58650
S         -4.79010        6.04150        4.80770
C         -3.49190        7.29740        5.02870
C         -4.96500        4.26570        2.76570
C         -4.48800        3.35990        1.84490
C         -3.83980        2.04280       -1.35980
S         -3.26820        3.42820       -2.22220
C         -3.50630        2.55840       -3.76950
C         -4.25840        1.39250       -3.58490
N         -4.66640        0.57000       -4.59870
C         -5.74600       -0.31450       -4.46470
C         -6.79070       -0.04900       -3.58210
C         -7.85100       -0.92410       -3.45090
C         -7.89710       -2.07910       -4.21820
S         -9.19010       -3.27530       -4.12760
C        -10.41090       -2.51920       -3.01870
C         -6.87430       -2.33100       -5.13090
C         -5.81380       -1.46220       -5.25540
C         -4.08420        0.81350       -5.87840
C         -3.04910        0.01700       -6.34870
C         -2.32490        0.40230       -7.46150
C         -2.63020        1.59390       -8.10580
S         -1.64770        2.26820       -9.40850
C         -0.03850        1.46140       -9.16580
C         -3.74010        2.33190       -7.70250
C         -4.46240        1.94380       -6.59420
C         -4.41810        1.10450       -2.19990
S         -4.66750       -0.40610       -1.38230
C         -2.30600        2.56650       -4.57830
C         -1.47480        1.48850       -4.48810
C         -0.17710        1.70430       -4.98210
C          0.94440        0.87380       -4.79530
C          0.89660       -0.42160       -4.14990
C          1.80600       -1.43700       -4.28270
C          1.63340       -2.51510       -3.38550
C          2.57500       -3.67200       -3.29950
C          3.84060       -3.26770       -2.53970
C          0.56470       -2.30890       -2.56230
Cl        -0.01090       -3.33510       -1.31400
S         -0.25870       -0.82310       -2.89380
C          2.17290        1.45300       -5.10960
C          2.31550        2.74790       -5.67710
C          1.16170        3.50830       -6.01170
C          1.18060        4.74820       -6.74960
C          0.20530        5.16150       -7.61880
C          0.45200        6.40660       -8.23420
C         -0.45850        7.01660       -9.25060
C         -0.41500        6.22930      -10.56080
C          1.63490        6.94060       -7.80840
S          2.45940        5.93000       -6.66740
Cl         2.32680        8.43010       -8.28500
C         -0.05120        2.98830       -5.56680
S         -1.55830        3.88350       -5.43800
C          3.66610        3.14370       -5.69060
C          4.52960        2.24030       -5.09900
S          3.70160        0.76370       -4.66090
C          5.85140        2.56340       -4.71720
C          6.67170        1.88460       -3.85990
C          6.43130        0.54830       -3.28550
O          5.67420       -0.31380       -3.69450
C          7.30520        0.44220       -2.11010
C          7.30020       -0.57520       -1.15710
C          8.13990       -0.34450       -0.09550
C          8.93340        0.80700        0.00720
C          8.97730        1.79740       -0.94680
C          8.12470        1.58650       -2.03530
C          7.85270        2.42470       -3.20270
C          8.60180        3.49560       -3.60830
C          9.75420        3.95220       -2.93440
N         10.69810        4.36810       -2.43070
C          8.36120        4.24830       -4.77760
N          8.22960        4.89420       -5.71750
C          9.47560        0.40480        1.35700
C          8.85950        1.11170        2.58470
C          9.22170        0.20320        3.73810
C          8.48390       -0.89580        3.63280
C          7.61060       -0.74740        2.40920
C          7.37160        0.76760        2.43280
C          8.60150       -0.88490        1.23350
H         -1.07690       -3.29950        6.69330
H          3.59400        0.44120        4.86370
H          4.34120       -3.16700        8.33940
H          7.33390       -1.89090        7.26700
H          7.38530       -0.86590        9.53790
H          5.04500        0.23760        9.91370
H          4.70380        2.11460        8.06710
H          6.83630        2.16730        6.54940
H          8.64760        0.45630        7.56000
H          8.07620        1.58520        8.81560
H          6.99460       -0.08210        5.47820
H          1.77190       -1.69570        2.25580
H          4.15340       -1.76180        2.87040
H          5.75400       -5.83500        5.04520
H          5.27870       -4.78570        6.42110
H          6.96780       -4.83970        5.87240
H          3.47700       -5.40680        5.02100
H          1.11690       -5.33560        4.38790
H          1.48080       -4.79010        1.23910
H          0.76880       -6.53090       -0.33230
H         -3.75020       -8.19080        0.12920
H         -3.75560       -8.58870       -1.60260
H         -3.97810       -6.89950       -1.09700
H         -3.27390       -6.05890        0.97970
H         -2.56860       -4.38530        2.57300
H         -3.01440        1.59280        3.95510
H         -3.03280        2.74710        6.09360
H         -2.91540        3.85430        8.10820
H         -4.07500        4.77320        7.08600
H         -4.11580        4.92730        8.85890
H         -6.95850        1.24140        6.87350
H         -6.92700        0.05590        4.71370
H         -6.83460        2.02170        2.87730
H         -8.84240        2.06680        1.51330
H        -11.95180        1.21660       -0.24420
H        -11.09580        1.18230        1.31530
H        -10.61860        2.35450        0.04380
H         -7.78470       -1.72480       -0.16540
H         -5.76630       -1.76970        1.21000
H         -1.14790        2.01430       -1.34000
H          1.14550        1.27620       -1.48890
H          2.82950       -0.30210       -1.73440
H          3.47100        1.35400       -1.49470
H          4.49500       -0.06160       -1.17850
H          1.17500        0.54680        2.73530
H         -1.12120        1.31330        2.88580
H         -1.17410        3.75800        2.39290
H         -2.01920        5.31960        4.05070
H         -3.13790        7.62010        4.05460
H         -3.96320        8.12520        5.54900
H         -2.67670        6.90460        5.63020
H         -6.02610        4.43880        2.86300
H         -5.17620        2.81990        1.21180
H         -6.79430        0.86060       -3.00110
H         -8.63480       -0.68330       -2.75190
H        -11.24690       -3.21100       -2.99110
H         -9.99710       -2.39900       -2.02220
H        -10.73300       -1.56390       -3.42160
H         -6.92230       -3.22030       -5.74040
H         -5.03690       -1.67000       -5.97400
H         -2.77110       -0.87990       -5.81570
H         -1.50490       -0.21420       -7.79330
H         -0.06880        0.43720       -9.52610
H          0.23240        1.50310       -8.11470
H          0.67080        2.03540       -9.75410
H         -3.99910        3.23140       -8.23900
H         -5.28970        2.54350       -6.24660
H         -1.77630        0.59690       -3.97490
H          2.58120       -1.44410       -5.02650
H          2.84400       -3.99030       -4.30810
H          2.08600       -4.50330       -2.78970
H          3.59000       -2.98000       -1.52050
H          4.53600       -4.10280       -2.50190
H          4.32710       -2.42790       -3.03160
H         -0.66260        4.57240       -7.85400
H         -1.47820        7.01240       -8.85960
H         -0.16200        8.05050       -9.43120
H         -0.73360        5.20180      -10.40080
H          0.59550        6.22070      -10.96290
H         -1.07490        6.68610      -11.29390
H          4.00880        4.09850       -6.04550
H          6.17000        3.54550       -5.04660
H          6.67010       -1.44410       -1.27030
H          9.59920        2.67290       -0.85870
H         10.55660        0.30110        1.42500
H          9.12540        2.16040        2.68630
H          9.99280        0.42260        4.45350
H          8.51110       -1.78440        4.23600
H          6.74170       -1.39720        2.35670
H          6.78280        1.08040        3.29360
H          6.91420        1.15750        1.52560
H          9.10000       -1.85150        1.20760
