
  xtb     02052217373D
 energy: -347.362007209404 gnorm: 0.000484597892 xtb: 6.4.1 (unknown)
202222  0     0  0            999 V2000
   -3.2813   -4.3525    1.9865 C   0  0  0  0  0  0  0  0  0  0  0  0
   -4.1452   -4.3082    3.0586 C   0  0  0  0  0  0  0  0  0  0  0  0
   -4.0271   -3.4394    4.2289 C   0  0  0  0  0  0  0  0  0  0  0  0
   -3.1858   -2.5770    4.4405 O   0  0  0  0  0  0  0  0  0  0  0  0
   -5.0944   -3.8422    5.1583 C   0  0  0  0  0  0  0  0  0  0  0  0
   -5.3844   -3.2784    6.3980 C   0  0  0  0  0  0  0  0  0  0  0  0
   -6.4557   -3.8556    7.0367 C   0  0  0  0  0  0  0  0  0  0  0  0
   -7.1800   -4.9197    6.4849 C   0  0  0  0  0  0  0  0  0  0  0  0
   -6.9022   -5.4856    5.2622 C   0  0  0  0  0  0  0  0  0  0  0  0
   -5.8204   -4.9096    4.5924 C   0  0  0  0  0  0  0  0  0  0  0  0
   -5.2532   -5.2093    3.2765 C   0  0  0  0  0  0  0  0  0  0  0  0
   -5.7307   -6.1575    2.4042 C   0  0  0  0  0  0  0  0  0  0  0  0
   -5.2656   -6.3725    1.0924 C   0  0  0  0  0  0  0  0  0  0  0  0
   -4.9717   -6.5932    0.0028 N   0  0  0  0  0  0  0  0  0  0  0  0
   -6.7882   -7.0440    2.6911 C   0  0  0  0  0  0  0  0  0  0  0  0
   -7.6311   -7.8053    2.8623 N   0  0  0  0  0  0  0  0  0  0  0  0
   -8.1275   -4.9870    7.6565 C   0  0  0  0  0  0  0  0  0  0  0  0
   -9.5423   -4.3843    7.4730 C   0  0  0  0  0  0  0  0  0  0  0  0
   -9.4199   -3.3175    6.4133 C   0  0  0  0  0  0  0  0  0  0  0  0
   -8.7351   -2.3075    6.9329 C   0  0  0  0  0  0  0  0  0  0  0  0
   -8.3826   -2.6728    8.3537 C   0  0  0  0  0  0  0  0  0  0  0  0
   -9.6168   -3.5067    8.7328 C   0  0  0  0  0  0  0  0  0  0  0  0
   -7.3218   -3.7985    8.2699 C   0  0  0  0  0  0  0  0  0  0  0  0
   -2.2484   -3.4848    1.6354 C   0  0  0  0  0  0  0  0  0  0  0  0
   -1.4021   -3.6735    0.5123 C   0  0  0  0  0  0  0  0  0  0  0  0
   -1.3459   -4.7988   -0.2678 N   0  0  0  0  0  0  0  0  0  0  0  0
   -1.0327   -4.6691   -1.6329 C   0  0  0  0  0  0  0  0  0  0  0  0
   -1.5872   -3.6361   -2.3901 C   0  0  0  0  0  0  0  0  0  0  0  0
   -1.2807   -3.5106   -3.7266 C   0  0  0  0  0  0  0  0  0  0  0  0
   -0.4291   -4.4265   -4.3409 C   0  0  0  0  0  0  0  0  0  0  0  0
   -0.1180   -4.1951   -6.0605 S   0  0  0  0  0  0  0  0  0  0  0  0
    1.3468   -5.2232   -6.3755 C   0  0  0  0  0  0  0  0  0  0  0  0
    0.1093   -5.4686   -3.5958 C   0  0  0  0  0  0  0  0  0  0  0  0
   -0.1811   -5.5798   -2.2513 C   0  0  0  0  0  0  0  0  0  0  0  0
   -1.5081   -6.0901    0.2673 C   0  0  0  0  0  0  0  0  0  0  0  0
   -2.1695   -7.0753   -0.4664 C   0  0  0  0  0  0  0  0  0  0  0  0
   -2.3248   -8.3383    0.0583 C   0  0  0  0  0  0  0  0  0  0  0  0
   -1.8335   -8.6457    1.3259 C   0  0  0  0  0  0  0  0  0  0  0  0
   -2.1152  -10.2899    1.8952 S   0  0  0  0  0  0  0  0  0  0  0  0
   -1.3355  -10.3315    3.5350 C   0  0  0  0  0  0  0  0  0  0  0  0
   -1.1639   -7.6690    2.0534 C   0  0  0  0  0  0  0  0  0  0  0  0
   -0.9963   -6.4055    1.5230 C   0  0  0  0  0  0  0  0  0  0  0  0
   -0.6127   -2.5332    0.2845 C   0  0  0  0  0  0  0  0  0  0  0  0
    0.6054   -2.1176   -0.8781 S   0  0  0  0  0  0  0  0  0  0  0  0
    0.8076   -0.5402   -0.1280 C   0  0  0  0  0  0  0  0  0  0  0  0
   -0.0818   -0.3370    0.9276 C   0  0  0  0  0  0  0  0  0  0  0  0
   -0.2966    0.8621    1.6002 N   0  0  0  0  0  0  0  0  0  0  0  0
   -0.5102    2.0393    0.8749 C   0  0  0  0  0  0  0  0  0  0  0  0
   -0.1991    3.2815    1.4266 C   0  0  0  0  0  0  0  0  0  0  0  0
   -0.2847    4.4319    0.6678 C   0  0  0  0  0  0  0  0  0  0  0  0
   -0.6607    4.3634   -0.6668 C   0  0  0  0  0  0  0  0  0  0  0  0
   -0.6960    5.7387   -1.7716 S   0  0  0  0  0  0  0  0  0  0  0  0
   -0.1805    7.1493   -0.7555 C   0  0  0  0  0  0  0  0  0  0  0  0
   -1.0301    3.1317   -1.2066 C   0  0  0  0  0  0  0  0  0  0  0  0
   -0.9728    1.9896   -0.4426 C   0  0  0  0  0  0  0  0  0  0  0  0
   -0.5756    0.7785    2.9703 C   0  0  0  0  0  0  0  0  0  0  0  0
   -1.5722    1.5497    3.5658 C   0  0  0  0  0  0  0  0  0  0  0  0
   -1.8919    1.3611    4.8926 C   0  0  0  0  0  0  0  0  0  0  0  0
   -1.2350    0.3932    5.6427 C   0  0  0  0  0  0  0  0  0  0  0  0
   -1.7542    0.1112    7.3100 S   0  0  0  0  0  0  0  0  0  0  0  0
   -1.7062   -1.7084    7.3638 C   0  0  0  0  0  0  0  0  0  0  0  0
   -0.2024   -0.3368    5.0723 C   0  0  0  0  0  0  0  0  0  0  0  0
    0.1271   -0.1411    3.7478 C   0  0  0  0  0  0  0  0  0  0  0  0
   -0.8436   -1.4995    1.1831 C   0  0  0  0  0  0  0  0  0  0  0  0
   -1.9682   -1.9281    2.4191 S   0  0  0  0  0  0  0  0  0  0  0  0
    1.7562    0.3661   -0.6635 C   0  0  0  0  0  0  0  0  0  0  0  0
    2.3718    0.3054   -1.9090 C   0  0  0  0  0  0  0  0  0  0  0  0
    2.2558   -0.7830   -2.7871 N   0  0  0  0  0  0  0  0  0  0  0  0
    3.0771   -1.8910   -2.5811 C   0  0  0  0  0  0  0  0  0  0  0  0
    2.6979   -3.1521   -3.0491 C   0  0  0  0  0  0  0  0  0  0  0  0
    3.4948   -4.2489   -2.8239 C   0  0  0  0  0  0  0  0  0  0  0  0
    4.6905   -4.1265   -2.1178 C   0  0  0  0  0  0  0  0  0  0  0  0
    5.6272   -5.6096   -1.8965 S   0  0  0  0  0  0  0  0  0  0  0  0
    7.1597   -5.0447   -1.1058 C   0  0  0  0  0  0  0  0  0  0  0  0
    5.0620   -2.8838   -1.6289 C   0  0  0  0  0  0  0  0  0  0  0  0
    4.2631   -1.7792   -1.8594 C   0  0  0  0  0  0  0  0  0  0  0  0
    1.4614   -0.6261   -3.9299 C   0  0  0  0  0  0  0  0  0  0  0  0
    1.8249   -1.1797   -5.1535 C   0  0  0  0  0  0  0  0  0  0  0  0
    1.0026   -1.0557   -6.2552 C   0  0  0  0  0  0  0  0  0  0  0  0
   -0.1991   -0.3682   -6.1549 C   0  0  0  0  0  0  0  0  0  0  0  0
   -1.3459   -0.1882   -7.4836 S   0  0  0  0  0  0  0  0  0  0  0  0
   -0.7576   -1.3812   -8.7180 C   0  0  0  0  0  0  0  0  0  0  0  0
   -0.5394    0.2362   -4.9472 C   0  0  0  0  0  0  0  0  0  0  0  0
    0.2809    0.1124   -3.8487 C   0  0  0  0  0  0  0  0  0  0  0  0
    3.1190    1.4703   -2.1684 C   0  0  0  0  0  0  0  0  0  0  0  0
    3.9661    2.0732   -3.5432 S   0  0  0  0  0  0  0  0  0  0  0  0
    4.3791    3.5424   -2.6680 C   0  0  0  0  0  0  0  0  0  0  0  0
    3.8269    3.5803   -1.3835 C   0  0  0  0  0  0  0  0  0  0  0  0
    3.8004    4.6699   -0.5380 N   0  0  0  0  0  0  0  0  0  0  0  0
    3.7915    5.9805   -1.0425 C   0  0  0  0  0  0  0  0  0  0  0  0
    4.5233    6.9754   -0.3955 C   0  0  0  0  0  0  0  0  0  0  0  0
    4.6294    8.2371   -0.9449 C   0  0  0  0  0  0  0  0  0  0  0  0
    3.9943    8.5279   -2.1467 C   0  0  0  0  0  0  0  0  0  0  0  0
    4.1611   10.0892   -2.9591 S   0  0  0  0  0  0  0  0  0  0  0  0
    5.7898   10.6545   -2.3806 C   0  0  0  0  0  0  0  0  0  0  0  0
    3.1798    7.5683   -2.7432 C   0  0  0  0  0  0  0  0  0  0  0  0
    3.0820    6.3056   -2.1989 C   0  0  0  0  0  0  0  0  0  0  0  0
    3.6252    4.4676    0.8370 C   0  0  0  0  0  0  0  0  0  0  0  0
    4.2424    3.4009    1.4869 C   0  0  0  0  0  0  0  0  0  0  0  0
    3.9511    3.1174    2.8077 C   0  0  0  0  0  0  0  0  0  0  0  0
    3.0458    3.9054    3.5052 C   0  0  0  0  0  0  0  0  0  0  0  0
    2.5106    3.5636    5.1519 S   0  0  0  0  0  0  0  0  0  0  0  0
    2.8395    1.7871    5.3243 C   0  0  0  0  0  0  0  0  0  0  0  0
    2.5162    5.0395    2.8924 C   0  0  0  0  0  0  0  0  0  0  0  0
    2.8020    5.3182    1.5764 C   0  0  0  0  0  0  0  0  0  0  0  0
    3.1394    2.3752   -1.1140 C   0  0  0  0  0  0  0  0  0  0  0  0
    2.2373    1.7893    0.2352 S   0  0  0  0  0  0  0  0  0  0  0  0
    5.1441    4.5674   -3.3065 C   0  0  0  0  0  0  0  0  0  0  0  0
    5.0459    4.9005   -4.6513 C   0  0  0  0  0  0  0  0  0  0  0  0
    4.3078    4.1340   -5.4683 F   0  0  0  0  0  0  0  0  0  0  0  0
    5.5986    6.0706   -5.2062 C   0  0  0  0  0  0  0  0  0  0  0  0
    5.4143    6.2616   -6.5139 F   0  0  0  0  0  0  0  0  0  0  0  0
    6.3307    6.9908   -4.4726 C   0  0  0  0  0  0  0  0  0  0  0  0
    6.6516    6.5618   -3.1611 C   0  0  0  0  0  0  0  0  0  0  0  0
    6.0674    5.3759   -2.5866 C   0  0  0  0  0  0  0  0  0  0  0  0
    6.5702    5.2397   -1.3782 N   0  0  0  0  0  0  0  0  0  0  0  0
    7.3981    6.2663   -1.1982 O   0  0  0  0  0  0  0  0  0  0  0  0
    7.4487    7.0853   -2.2520 N   0  0  0  0  0  0  0  0  0  0  0  0
    6.7115    8.3047   -4.9164 C   0  0  0  0  0  0  0  0  0  0  0  0
    5.9057    9.1567   -5.5852 C   0  0  0  0  0  0  0  0  0  0  0  0
    4.4616    9.0061   -5.8939 C   0  0  0  0  0  0  0  0  0  0  0  0
    3.7448    8.0580   -5.6631 O   0  0  0  0  0  0  0  0  0  0  0  0
    4.0516   10.2980   -6.4912 C   0  0  0  0  0  0  0  0  0  0  0  0
    2.8073   10.6831   -6.9547 C   0  0  0  0  0  0  0  0  0  0  0  0
    2.6697   11.9624   -7.4759 C   0  0  0  0  0  0  0  0  0  0  0  0
    3.7488   12.8352   -7.5245 C   0  0  0  0  0  0  0  0  0  0  0  0
    4.9978   12.4545   -7.0533 C   0  0  0  0  0  0  0  0  0  0  0  0
    5.1399   11.1787   -6.5379 C   0  0  0  0  0  0  0  0  0  0  0  0
    6.3349   10.5283   -5.9588 C   0  0  0  0  0  0  0  0  0  0  0  0
    7.4338   11.0095   -5.7957 O   0  0  0  0  0  0  0  0  0  0  0  0
   -3.4276   -5.1697    1.2925 H   0  0  0  0  0  0  0  0  0  0  0  0
   -4.8055   -2.4536    6.7835 H   0  0  0  0  0  0  0  0  0  0  0  0
   -7.4726   -6.3023    4.8527 H   0  0  0  0  0  0  0  0  0  0  0  0
   -8.1449   -5.9277    8.2034 H   0  0  0  0  0  0  0  0  0  0  0  0
  -10.3297   -5.1185    7.3261 H   0  0  0  0  0  0  0  0  0  0  0  0
   -9.7824   -3.4280    5.4081 H   0  0  0  0  0  0  0  0  0  0  0  0
   -8.4104   -1.4053    6.4484 H   0  0  0  0  0  0  0  0  0  0  0  0
   -8.1146   -1.8480    9.0089 H   0  0  0  0  0  0  0  0  0  0  0  0
   -9.4947   -4.0663    9.6593 H   0  0  0  0  0  0  0  0  0  0  0  0
  -10.5283   -2.9128    8.7791 H   0  0  0  0  0  0  0  0  0  0  0  0
   -6.8153   -3.9619    9.2194 H   0  0  0  0  0  0  0  0  0  0  0  0
   -2.2667   -2.9371   -1.9261 H   0  0  0  0  0  0  0  0  0  0  0  0
   -1.6999   -2.7061   -4.3109 H   0  0  0  0  0  0  0  0  0  0  0  0
    1.0884   -6.2768   -6.3241 H   0  0  0  0  0  0  0  0  0  0  0  0
    2.1280   -4.9697   -5.6650 H   0  0  0  0  0  0  0  0  0  0  0  0
    1.6683   -4.9769   -7.3828 H   0  0  0  0  0  0  0  0  0  0  0  0
    0.7604   -6.1977   -4.0499 H   0  0  0  0  0  0  0  0  0  0  0  0
    0.2543   -6.3821   -1.6750 H   0  0  0  0  0  0  0  0  0  0  0  0
   -2.5727   -6.8402   -1.4383 H   0  0  0  0  0  0  0  0  0  0  0  0
   -2.8473   -9.0975   -0.5015 H   0  0  0  0  0  0  0  0  0  0  0  0
   -0.2712  -10.1338    3.4467 H   0  0  0  0  0  0  0  0  0  0  0  0
   -1.8186   -9.6183    4.1966 H   0  0  0  0  0  0  0  0  0  0  0  0
   -1.4926  -11.3400    3.9048 H   0  0  0  0  0  0  0  0  0  0  0  0
   -0.7597   -7.8793    3.0304 H   0  0  0  0  0  0  0  0  0  0  0  0
   -0.4691   -5.6530    2.0911 H   0  0  0  0  0  0  0  0  0  0  0  0
    0.1470    3.3427    2.4469 H   0  0  0  0  0  0  0  0  0  0  0  0
   -0.0318    5.3725    1.1273 H   0  0  0  0  0  0  0  0  0  0  0  0
    0.8421    7.0101   -0.4171 H   0  0  0  0  0  0  0  0  0  0  0  0
   -0.2286    8.0128   -1.4118 H   0  0  0  0  0  0  0  0  0  0  0  0
   -0.8640    7.2795    0.0782 H   0  0  0  0  0  0  0  0  0  0  0  0
   -1.3597    3.0861   -2.2334 H   0  0  0  0  0  0  0  0  0  0  0  0
   -1.2748    1.0440   -0.8680 H   0  0  0  0  0  0  0  0  0  0  0  0
   -2.1228    2.2647    2.9736 H   0  0  0  0  0  0  0  0  0  0  0  0
   -2.6808    1.9375    5.3501 H   0  0  0  0  0  0  0  0  0  0  0  0
   -2.0858   -2.0888    6.4196 H   0  0  0  0  0  0  0  0  0  0  0  0
   -2.3508   -2.0067    8.1849 H   0  0  0  0  0  0  0  0  0  0  0  0
   -0.6948   -2.0581    7.5509 H   0  0  0  0  0  0  0  0  0  0  0  0
    0.3414   -1.0649    5.6538 H   0  0  0  0  0  0  0  0  0  0  0  0
    0.9220   -0.7191    3.2974 H   0  0  0  0  0  0  0  0  0  0  0  0
    1.7593   -3.2583   -3.5686 H   0  0  0  0  0  0  0  0  0  0  0  0
    3.1964   -5.2241   -3.1781 H   0  0  0  0  0  0  0  0  0  0  0  0
    7.7883   -5.9259   -1.0236 H   0  0  0  0  0  0  0  0  0  0  0  0
    7.6451   -4.3015   -1.7315 H   0  0  0  0  0  0  0  0  0  0  0  0
    6.9471   -4.6510   -0.1159 H   0  0  0  0  0  0  0  0  0  0  0  0
    5.9738   -2.7543   -1.0681 H   0  0  0  0  0  0  0  0  0  0  0  0
    4.5720   -0.8187   -1.4747 H   0  0  0  0  0  0  0  0  0  0  0  0
    2.7627   -1.7068   -5.2455 H   0  0  0  0  0  0  0  0  0  0  0  0
    1.3136   -1.4963   -7.1880 H   0  0  0  0  0  0  0  0  0  0  0  0
   -1.5284   -1.4170   -9.4815 H   0  0  0  0  0  0  0  0  0  0  0  0
   -0.6478   -2.3561   -8.2522 H   0  0  0  0  0  0  0  0  0  0  0  0
    0.1760   -1.0394   -9.1557 H   0  0  0  0  0  0  0  0  0  0  0  0
   -1.4611    0.7940   -4.8808 H   0  0  0  0  0  0  0  0  0  0  0  0
    0.0061    0.5794   -2.9150 H   0  0  0  0  0  0  0  0  0  0  0  0
    5.0428    6.7414    0.5219 H   0  0  0  0  0  0  0  0  0  0  0  0
    5.2249    8.9800   -0.4396 H   0  0  0  0  0  0  0  0  0  0  0  0
    6.4820    9.8174   -2.3861 H   0  0  0  0  0  0  0  0  0  0  0  0
    6.1160   11.4094   -3.0894 H   0  0  0  0  0  0  0  0  0  0  0  0
    5.7074   11.0930   -1.3904 H   0  0  0  0  0  0  0  0  0  0  0  0
    2.6516    7.8081   -3.6515 H   0  0  0  0  0  0  0  0  0  0  0  0
    2.4601    5.5636   -2.6763 H   0  0  0  0  0  0  0  0  0  0  0  0
    4.9528    2.7910    0.9497 H   0  0  0  0  0  0  0  0  0  0  0  0
    4.4322    2.2769    3.2812 H   0  0  0  0  0  0  0  0  0  0  0  0
    2.4651    1.2682    4.4469 H   0  0  0  0  0  0  0  0  0  0  0  0
    3.9011    1.6091    5.4710 H   0  0  0  0  0  0  0  0  0  0  0  0
    2.2872    1.4706    6.2038 H   0  0  0  0  0  0  0  0  0  0  0  0
    1.8562    5.6801    3.4571 H   0  0  0  0  0  0  0  0  0  0  0  0
    2.3707    6.1870    1.1031 H   0  0  0  0  0  0  0  0  0  0  0  0
    7.6833    8.6642   -4.5950 H   0  0  0  0  0  0  0  0  0  0  0  0
    1.9743    9.9986   -6.9110 H   0  0  0  0  0  0  0  0  0  0  0  0
    1.7092   12.2856   -7.8495 H   0  0  0  0  0  0  0  0  0  0  0  0
    3.6125   13.8253   -7.9340 H   0  0  0  0  0  0  0  0  0  0  0  0
    5.8411   13.1275   -7.0837 H   0  0  0  0  0  0  0  0  0  0  0  0
  1  2  2  0  0  0  0
  2  3  1  0  0  0  0
  3  4  2  0  0  0  0
  3  5  1  0  0  0  0
  5  6  2  0  0  0  0
  6  7  1  0  0  0  0
  7  8  2  0  0  0  0
  8  9  1  0  0  0  0
  9 10  2  0  0  0  0
 10 11  1  0  0  0  0
 11 12  2  0  0  0  0
 12 13  1  0  0  0  0
 13 14  3  0  0  0  0
 12 15  1  0  0  0  0
 15 16  3  0  0  0  0
  8 17  1  0  0  0  0
 17 18  1  0  0  0  0
 18 19  1  0  0  0  0
 19 20  2  0  0  0  0
 20 21  1  0  0  0  0
 21 22  1  0  0  0  0
 21 23  1  0  0  0  0
  1 24  1  0  0  0  0
 24 25  2  0  0  0  0
 25 26  1  0  0  0  0
 26 27  1  0  0  0  0
 27 28  2  0  0  0  0
 28 29  1  0  0  0  0
 29 30  2  0  0  0  0
 30 31  1  0  0  0  0
 31 32  1  0  0  0  0
 30 33  1  0  0  0  0
 33 34  2  0  0  0  0
 26 35  1  0  0  0  0
 35 36  2  0  0  0  0
 36 37  1  0  0  0  0
 37 38  2  0  0  0  0
 38 39  1  0  0  0  0
 39 40  1  0  0  0  0
 38 41  1  0  0  0  0
 41 42  2  0  0  0  0
 25 43  1  0  0  0  0
 43 44  1  0  0  0  0
 44 45  1  0  0  0  0
 45 46  2  0  0  0  0
 46 47  1  0  0  0  0
 47 48  1  0  0  0  0
 48 49  2  0  0  0  0
 49 50  1  0  0  0  0
 50 51  2  0  0  0  0
 51 52  1  0  0  0  0
 52 53  1  0  0  0  0
 51 54  1  0  0  0  0
 54 55  2  0  0  0  0
 47 56  1  0  0  0  0
 56 57  2  0  0  0  0
 57 58  1  0  0  0  0
 58 59  2  0  0  0  0
 59 60  1  0  0  0  0
 60 61  1  0  0  0  0
 59 62  1  0  0  0  0
 62 63  2  0  0  0  0
 46 64  1  0  0  0  0
 64 65  1  0  0  0  0
 45 66  1  0  0  0  0
 66 67  2  0  0  0  0
 67 68  1  0  0  0  0
 68 69  1  0  0  0  0
 69 70  2  0  0  0  0
 70 71  1  0  0  0  0
 71 72  2  0  0  0  0
 72 73  1  0  0  0  0
 73 74  1  0  0  0  0
 72 75  1  0  0  0  0
 75 76  2  0  0  0  0
 68 77  1  0  0  0  0
 77 78  2  0  0  0  0
 78 79  1  0  0  0  0
 79 80  2  0  0  0  0
 80 81  1  0  0  0  0
 81 82  1  0  0  0  0
 80 83  1  0  0  0  0
 83 84  2  0  0  0  0
 67 85  1  0  0  0  0
 85 86  1  0  0  0  0
 86 87  1  0  0  0  0
 87 88  2  0  0  0  0
 88 89  1  0  0  0  0
 89 90  1  0  0  0  0
 90 91  2  0  0  0  0
 91 92  1  0  0  0  0
 92 93  2  0  0  0  0
 93 94  1  0  0  0  0
 94 95  1  0  0  0  0
 93 96  1  0  0  0  0
 96 97  2  0  0  0  0
 89 98  1  0  0  0  0
 98 99  2  0  0  0  0
 99100  1  0  0  0  0
100101  2  0  0  0  0
101102  1  0  0  0  0
102103  1  0  0  0  0
101104  1  0  0  0  0
104105  2  0  0  0  0
 88106  1  0  0  0  0
106107  1  0  0  0  0
 87108  1  0  0  0  0
108109  2  0  0  0  0
109110  1  0  0  0  0
109111  1  0  0  0  0
111112  1  0  0  0  0
111113  2  0  0  0  0
113114  1  0  0  0  0
114115  1  0  0  0  0
115116  2  0  0  0  0
116117  1  0  0  0  0
117118  1  0  0  0  0
113119  1  0  0  0  0
119120  2  0  0  0  0
120121  1  0  0  0  0
121122  2  0  0  0  0
121123  1  0  0  0  0
123124  2  0  0  0  0
124125  1  0  0  0  0
125126  2  0  0  0  0
126127  1  0  0  0  0
127128  2  0  0  0  0
128129  1  0  0  0  0
129130  2  0  0  0  0
 11  2  1  0  0  0  0
 23 17  1  0  0  0  0
 65 24  1  0  0  0  0
107 66  1  0  0  0  0
115108  1  0  0  0  0
129120  1  0  0  0  0
 10  5  1  0  0  0  0
 22 18  1  0  0  0  0
 34 27  1  0  0  0  0
 42 35  1  0  0  0  0
 64 43  2  0  0  0  0
 76 69  1  0  0  0  0
 84 77  1  0  0  0  0
106 85  2  0  0  0  0
118114  2  0  0  0  0
128123  1  0  0  0  0
 23  7  1  0  0  0  0
 55 48  1  0  0  0  0
 63 56  1  0  0  0  0
 97 90  1  0  0  0  0
105 98  1  0  0  0  0
  1131  1  0  0  0  0
  6132  1  0  0  0  0
  9133  1  0  0  0  0
 17134  1  0  0  0  0
 18135  1  0  0  0  0
 19136  1  0  0  0  0
 20137  1  0  0  0  0
 21138  1  0  0  0  0
 22139  1  0  0  0  0
 22140  1  0  0  0  0
 23141  1  0  0  0  0
 28142  1  0  0  0  0
 29143  1  0  0  0  0
 32144  1  0  0  0  0
 32145  1  0  0  0  0
 32146  1  0  0  0  0
 33147  1  0  0  0  0
 34148  1  0  0  0  0
 36149  1  0  0  0  0
 37150  1  0  0  0  0
 40151  1  0  0  0  0
 40152  1  0  0  0  0
 40153  1  0  0  0  0
 41154  1  0  0  0  0
 42155  1  0  0  0  0
 49156  1  0  0  0  0
 50157  1  0  0  0  0
 53158  1  0  0  0  0
 53159  1  0  0  0  0
 53160  1  0  0  0  0
 54161  1  0  0  0  0
 55162  1  0  0  0  0
 57163  1  0  0  0  0
 58164  1  0  0  0  0
 61165  1  0  0  0  0
 61166  1  0  0  0  0
 61167  1  0  0  0  0
 62168  1  0  0  0  0
 63169  1  0  0  0  0
 70170  1  0  0  0  0
 71171  1  0  0  0  0
 74172  1  0  0  0  0
 74173  1  0  0  0  0
 74174  1  0  0  0  0
 75175  1  0  0  0  0
 76176  1  0  0  0  0
 78177  1  0  0  0  0
 79178  1  0  0  0  0
 82179  1  0  0  0  0
 82180  1  0  0  0  0
 82181  1  0  0  0  0
 83182  1  0  0  0  0
 84183  1  0  0  0  0
 91184  1  0  0  0  0
 92185  1  0  0  0  0
 95186  1  0  0  0  0
 95187  1  0  0  0  0
 95188  1  0  0  0  0
 96189  1  0  0  0  0
 97190  1  0  0  0  0
 99191  1  0  0  0  0
100192  1  0  0  0  0
103193  1  0  0  0  0
103194  1  0  0  0  0
103195  1  0  0  0  0
104196  1  0  0  0  0
105197  1  0  0  0  0
119198  1  0  0  0  0
124199  1  0  0  0  0
125200  1  0  0  0  0
126201  1  0  0  0  0
127202  1  0  0  0  0
M  END
