
  xtb     02052221073D
 energy: -331.779091808917 gnorm: 0.000529927031 xtb: 6.4.1 (unknown)
202220  0     0  0            999 V2000
   -3.4181   -2.9193   -2.6723 C   0  0  0  0  0  0  0  0  0  0  0  0
   -4.5732   -2.6656   -3.3720 C   0  0  0  0  0  0  0  0  0  0  0  0
   -5.4928   -1.5451   -3.1592 C   0  0  0  0  0  0  0  0  0  0  0  0
   -5.6084   -0.8583   -2.1567 O   0  0  0  0  0  0  0  0  0  0  0  0
   -6.2965   -1.4336   -4.3876 C   0  0  0  0  0  0  0  0  0  0  0  0
   -7.2126   -0.4350   -4.7068 C   0  0  0  0  0  0  0  0  0  0  0  0
   -7.7847   -0.5820   -5.9483 C   0  0  0  0  0  0  0  0  0  0  0  0
   -7.4739   -1.6457   -6.8051 C   0  0  0  0  0  0  0  0  0  0  0  0
   -6.5729   -2.6393   -6.4994 C   0  0  0  0  0  0  0  0  0  0  0  0
   -5.9737   -2.5054   -5.2453 C   0  0  0  0  0  0  0  0  0  0  0  0
   -4.9560   -3.3305   -4.5960 C   0  0  0  0  0  0  0  0  0  0  0  0
   -4.4568   -4.5118   -5.0863 C   0  0  0  0  0  0  0  0  0  0  0  0
   -3.5403   -5.3487   -4.4226 C   0  0  0  0  0  0  0  0  0  0  0  0
   -2.8096   -6.1067   -3.9597 N   0  0  0  0  0  0  0  0  0  0  0  0
   -4.8124   -5.0864   -6.3225 C   0  0  0  0  0  0  0  0  0  0  0  0
   -5.0286   -5.6241   -7.3146 N   0  0  0  0  0  0  0  0  0  0  0  0
   -8.3919   -1.1437   -7.8913 C   0  0  0  0  0  0  0  0  0  0  0  0
   -7.7441   -0.4304   -9.1041 C   0  0  0  0  0  0  0  0  0  0  0  0
   -6.4446    0.1578   -8.6128 C   0  0  0  0  0  0  0  0  0  0  0  0
   -6.7379    1.1655   -7.8018 C   0  0  0  0  0  0  0  0  0  0  0  0
   -8.2407    1.2770   -7.7301 C   0  0  0  0  0  0  0  0  0  0  0  0
   -8.6126    0.8368   -9.1549 C   0  0  0  0  0  0  0  0  0  0  0  0
   -8.7371    0.0426   -6.9366 C   0  0  0  0  0  0  0  0  0  0  0  0
   -2.8053   -2.1768   -1.6588 C   0  0  0  0  0  0  0  0  0  0  0  0
   -1.4373   -2.2805   -1.3148 C   0  0  0  0  0  0  0  0  0  0  0  0
   -0.4837   -2.9485   -2.0341 N   0  0  0  0  0  0  0  0  0  0  0  0
   -0.6175   -3.1812   -3.4193 C   0  0  0  0  0  0  0  0  0  0  0  0
   -1.1399   -2.1997   -4.2633 C   0  0  0  0  0  0  0  0  0  0  0  0
   -1.3680   -2.4794   -5.5900 C   0  0  0  0  0  0  0  0  0  0  0  0
   -1.0527   -3.7357   -6.1100 C   0  0  0  0  0  0  0  0  0  0  0  0
   -1.4788   -4.0260   -7.7956 S   0  0  0  0  0  0  0  0  0  0  0  0
   -1.4295   -5.8337   -7.9338 C   0  0  0  0  0  0  0  0  0  0  0  0
   -0.4368   -4.6761   -5.2950 C   0  0  0  0  0  0  0  0  0  0  0  0
   -0.2275   -4.4023   -3.9567 C   0  0  0  0  0  0  0  0  0  0  0  0
    0.7718   -3.2317   -1.4591 C   0  0  0  0  0  0  0  0  0  0  0  0
    0.8715   -3.8695   -0.2268 C   0  0  0  0  0  0  0  0  0  0  0  0
    2.1102   -4.1560    0.3167 C   0  0  0  0  0  0  0  0  0  0  0  0
    3.2689   -3.8117   -0.3677 C   0  0  0  0  0  0  0  0  0  0  0  0
    4.9029   -4.1601    0.1856 S   0  0  0  0  0  0  0  0  0  0  0  0
    4.6834   -4.8618    1.8430 C   0  0  0  0  0  0  0  0  0  0  0  0
    3.1683   -3.1686   -1.6029 C   0  0  0  0  0  0  0  0  0  0  0  0
    1.9371   -2.8856   -2.1446 C   0  0  0  0  0  0  0  0  0  0  0  0
   -1.1440   -1.4664   -0.2047 C   0  0  0  0  0  0  0  0  0  0  0  0
    0.2917   -1.1504    0.6886 S   0  0  0  0  0  0  0  0  0  0  0  0
   -0.5174    0.1464    1.5922 C   0  0  0  0  0  0  0  0  0  0  0  0
   -1.8602    0.2449    1.2683 C   0  0  0  0  0  0  0  0  0  0  0  0
   -2.7825    1.1518    1.7333 N   0  0  0  0  0  0  0  0  0  0  0  0
   -2.8183    1.7204    3.0121 C   0  0  0  0  0  0  0  0  0  0  0  0
   -3.2963    3.0248    3.1236 C   0  0  0  0  0  0  0  0  0  0  0  0
   -3.5125    3.5973    4.3586 C   0  0  0  0  0  0  0  0  0  0  0  0
   -3.2555    2.8685    5.5123 C   0  0  0  0  0  0  0  0  0  0  0  0
   -3.5834    3.4799    7.1361 S   0  0  0  0  0  0  0  0  0  0  0  0
   -4.5469    4.9927    6.8465 C   0  0  0  0  0  0  0  0  0  0  0  0
   -2.7322    1.5812    5.4071 C   0  0  0  0  0  0  0  0  0  0  0  0
   -2.5187    1.0076    4.1707 C   0  0  0  0  0  0  0  0  0  0  0  0
   -3.9461    1.3863    0.9496 C   0  0  0  0  0  0  0  0  0  0  0  0
   -5.1960    1.0111    1.4280 C   0  0  0  0  0  0  0  0  0  0  0  0
   -6.3196    1.1881    0.6457 C   0  0  0  0  0  0  0  0  0  0  0  0
   -6.2062    1.7526   -0.6179 C   0  0  0  0  0  0  0  0  0  0  0  0
   -7.5953    1.9563   -1.6874 S   0  0  0  0  0  0  0  0  0  0  0  0
   -8.6066    0.5098   -1.2503 C   0  0  0  0  0  0  0  0  0  0  0  0
   -4.9673    2.1868   -1.0721 C   0  0  0  0  0  0  0  0  0  0  0  0
   -3.8449    1.9961   -0.2955 C   0  0  0  0  0  0  0  0  0  0  0  0
   -2.1999   -0.6875    0.2411 C   0  0  0  0  0  0  0  0  0  0  0  0
   -3.6365   -0.9648   -0.6800 S   0  0  0  0  0  0  0  0  0  0  0  0
    0.4345    0.8759    2.3895 C   0  0  0  0  0  0  0  0  0  0  0  0
    1.6430    1.2729    1.8343 C   0  0  0  0  0  0  0  0  0  0  0  0
    1.9321    1.3025    0.4774 N   0  0  0  0  0  0  0  0  0  0  0  0
    3.2020    0.8705    0.0631 C   0  0  0  0  0  0  0  0  0  0  0  0
    3.9177    1.6028   -0.8798 C   0  0  0  0  0  0  0  0  0  0  0  0
    5.2002    1.2310   -1.2305 C   0  0  0  0  0  0  0  0  0  0  0  0
    5.7833    0.1167   -0.6423 C   0  0  0  0  0  0  0  0  0  0  0  0
    7.4316   -0.4184   -0.9962 S   0  0  0  0  0  0  0  0  0  0  0  0
    8.2627    1.1262   -1.4736 C   0  0  0  0  0  0  0  0  0  0  0  0
    5.0511   -0.6462    0.2609 C   0  0  0  0  0  0  0  0  0  0  0  0
    3.7742   -0.2744    0.6155 C   0  0  0  0  0  0  0  0  0  0  0  0
    0.9854    1.7063   -0.4655 C   0  0  0  0  0  0  0  0  0  0  0  0
    0.8679    1.0217   -1.6749 C   0  0  0  0  0  0  0  0  0  0  0  0
   -0.0886    1.3921   -2.5973 C   0  0  0  0  0  0  0  0  0  0  0  0
   -0.9314    2.4633   -2.3348 C   0  0  0  0  0  0  0  0  0  0  0  0
   -2.2102    2.9628   -3.4604 S   0  0  0  0  0  0  0  0  0  0  0  0
   -2.8794    1.3575   -3.9961 C   0  0  0  0  0  0  0  0  0  0  0  0
   -0.7809    3.1827   -1.1523 C   0  0  0  0  0  0  0  0  0  0  0  0
    0.1549    2.7973   -0.2164 C   0  0  0  0  0  0  0  0  0  0  0  0
    2.5902    1.6101    2.8221 C   0  0  0  0  0  0  0  0  0  0  0  0
    4.2552    2.0292    2.7331 S   0  0  0  0  0  0  0  0  0  0  0  0
    4.3639    2.0090    4.4923 C   0  0  0  0  0  0  0  0  0  0  0  0
    3.1529    1.6463    5.0943 C   0  0  0  0  0  0  0  0  0  0  0  0
    3.0731    1.3356    6.4298 N   0  0  0  0  0  0  0  0  0  0  0  0
    1.8626    1.3610    7.1294 C   0  0  0  0  0  0  0  0  0  0  0  0
    0.9318    2.3791    6.9234 C   0  0  0  0  0  0  0  0  0  0  0  0
   -0.2224    2.4199    7.6727 C   0  0  0  0  0  0  0  0  0  0  0  0
   -0.4816    1.4451    8.6352 C   0  0  0  0  0  0  0  0  0  0  0  0
   -1.9793    1.6101    9.5501 S   0  0  0  0  0  0  0  0  0  0  0  0
   -1.9052    0.2552   10.7592 C   0  0  0  0  0  0  0  0  0  0  0  0
    0.4338    0.4180    8.8265 C   0  0  0  0  0  0  0  0  0  0  0  0
    1.5935    0.3800    8.0812 C   0  0  0  0  0  0  0  0  0  0  0  0
    4.2110    0.8003    7.0782 C   0  0  0  0  0  0  0  0  0  0  0  0
    4.9723   -0.1910    6.4682 C   0  0  0  0  0  0  0  0  0  0  0  0
    6.1056   -0.6829    7.0829 C   0  0  0  0  0  0  0  0  0  0  0  0
    6.4890   -0.1966    8.3258 C   0  0  0  0  0  0  0  0  0  0  0  0
    7.9321   -0.7362    9.1857 S   0  0  0  0  0  0  0  0  0  0  0  0
    8.8788   -1.6151    7.9103 C   0  0  0  0  0  0  0  0  0  0  0  0
    5.7000    0.7611    8.9602 C   0  0  0  0  0  0  0  0  0  0  0  0
    4.5715    1.2562    8.3439 C   0  0  0  0  0  0  0  0  0  0  0  0
    2.1401    1.4503    4.1256 C   0  0  0  0  0  0  0  0  0  0  0  0
    0.4701    0.9691    4.1502 S   0  0  0  0  0  0  0  0  0  0  0  0
    5.5843    2.3753    5.1115 C   0  0  0  0  0  0  0  0  0  0  0  0
    6.8187    2.1003    4.5907 C   0  0  0  0  0  0  0  0  0  0  0  0
    7.0099    1.0631    3.6599 C   0  0  0  0  0  0  0  0  0  0  0  0
    8.1813    0.7187    3.0401 C   0  0  0  0  0  0  0  0  0  0  0  0
    9.3831    1.5752    2.9319 C   0  0  0  0  0  0  0  0  0  0  0  0
    9.5904    2.6363    3.4845 O   0  0  0  0  0  0  0  0  0  0  0  0
   10.2699    0.8767    1.9772 C   0  0  0  0  0  0  0  0  0  0  0  0
   11.4756    1.2823    1.4410 C   0  0  0  0  0  0  0  0  0  0  0  0
   12.0998    0.4547    0.5184 C   0  0  0  0  0  0  0  0  0  0  0  0
   11.5339   -0.7570    0.1313 C   0  0  0  0  0  0  0  0  0  0  0  0
   12.2168   -1.6377   -0.8667 C   0  0  0  0  0  0  0  0  0  0  0  0
   10.3198   -1.1657    0.6842 C   0  0  0  0  0  0  0  0  0  0  0  0
    9.6908   -0.3506    1.6062 C   0  0  0  0  0  0  0  0  0  0  0  0
    8.4210   -0.5019    2.3104 C   0  0  0  0  0  0  0  0  0  0  0  0
    7.6635   -1.6458    2.3579 C   0  0  0  0  0  0  0  0  0  0  0  0
    6.4701   -1.8017    3.0877 C   0  0  0  0  0  0  0  0  0  0  0  0
    5.4994   -2.0369    3.6597 N   0  0  0  0  0  0  0  0  0  0  0  0
    8.0200   -2.8612    1.7392 C   0  0  0  0  0  0  0  0  0  0  0  0
    8.2539   -3.9001    1.3087 N   0  0  0  0  0  0  0  0  0  0  0  0
   -2.8404   -3.7703   -3.0087 H   0  0  0  0  0  0  0  0  0  0  0  0
   -7.4143    0.3768   -4.0252 H   0  0  0  0  0  0  0  0  0  0  0  0
   -6.3370   -3.4463   -7.1731 H   0  0  0  0  0  0  0  0  0  0  0  0
   -9.1973   -1.8138   -8.1853 H   0  0  0  0  0  0  0  0  0  0  0  0
   -7.6863   -1.0353  -10.0051 H   0  0  0  0  0  0  0  0  0  0  0  0
   -5.4776   -0.2440   -8.8531 H   0  0  0  0  0  0  0  0  0  0  0  0
   -6.0649    1.7766   -7.2292 H   0  0  0  0  0  0  0  0  0  0  0  0
   -8.6348    2.2271   -7.3793 H   0  0  0  0  0  0  0  0  0  0  0  0
   -8.2817    1.5439   -9.9141 H   0  0  0  0  0  0  0  0  0  0  0  0
   -9.6744    0.6304   -9.2823 H   0  0  0  0  0  0  0  0  0  0  0  0
   -9.7691    0.1491   -6.6078 H   0  0  0  0  0  0  0  0  0  0  0  0
   -1.3997   -1.2346   -3.8564 H   0  0  0  0  0  0  0  0  0  0  0  0
   -1.8021   -1.7366   -6.2422 H   0  0  0  0  0  0  0  0  0  0  0  0
   -0.4011   -6.1826   -7.9625 H   0  0  0  0  0  0  0  0  0  0  0  0
   -1.9274   -6.0687   -8.8692 H   0  0  0  0  0  0  0  0  0  0  0  0
   -1.9764   -6.2750   -7.1060 H   0  0  0  0  0  0  0  0  0  0  0  0
   -0.1427   -5.6375   -5.6814 H   0  0  0  0  0  0  0  0  0  0  0  0
    0.2139   -5.1507   -3.3171 H   0  0  0  0  0  0  0  0  0  0  0  0
   -0.0267   -4.1561    0.2999 H   0  0  0  0  0  0  0  0  0  0  0  0
    2.1575   -4.6547    1.2710 H   0  0  0  0  0  0  0  0  0  0  0  0
    4.1088   -5.7814    1.7878 H   0  0  0  0  0  0  0  0  0  0  0  0
    4.2156   -4.1314    2.4969 H   0  0  0  0  0  0  0  0  0  0  0  0
    5.6893   -5.0757    2.1920 H   0  0  0  0  0  0  0  0  0  0  0  0
    4.0728   -2.8958   -2.1242 H   0  0  0  0  0  0  0  0  0  0  0  0
    1.8644   -2.3916   -3.1025 H   0  0  0  0  0  0  0  0  0  0  0  0
   -3.5191    3.5840    2.2271 H   0  0  0  0  0  0  0  0  0  0  0  0
   -3.8892    4.6058    4.4071 H   0  0  0  0  0  0  0  0  0  0  0  0
   -4.8729    5.3164    7.8301 H   0  0  0  0  0  0  0  0  0  0  0  0
   -5.4089    4.7685    6.2254 H   0  0  0  0  0  0  0  0  0  0  0  0
   -3.9239    5.7604    6.3968 H   0  0  0  0  0  0  0  0  0  0  0  0
   -2.5214    1.0255    6.3073 H   0  0  0  0  0  0  0  0  0  0  0  0
   -2.1580   -0.0077    4.0989 H   0  0  0  0  0  0  0  0  0  0  0  0
   -5.2805    0.5636    2.4077 H   0  0  0  0  0  0  0  0  0  0  0  0
   -7.2789    0.8737    1.0251 H   0  0  0  0  0  0  0  0  0  0  0  0
   -9.3210    0.3791   -2.0574 H   0  0  0  0  0  0  0  0  0  0  0  0
   -9.1376    0.6803   -0.3183 H   0  0  0  0  0  0  0  0  0  0  0  0
   -7.9491   -0.3518   -1.1827 H   0  0  0  0  0  0  0  0  0  0  0  0
   -4.8879    2.6564   -2.0399 H   0  0  0  0  0  0  0  0  0  0  0  0
   -2.8733    2.2952   -0.6515 H   0  0  0  0  0  0  0  0  0  0  0  0
    3.4670    2.4764   -1.3275 H   0  0  0  0  0  0  0  0  0  0  0  0
    5.7401    1.8199   -1.9552 H   0  0  0  0  0  0  0  0  0  0  0  0
    7.9981    1.9083   -0.7683 H   0  0  0  0  0  0  0  0  0  0  0  0
    9.3274    0.9204   -1.4174 H   0  0  0  0  0  0  0  0  0  0  0  0
    7.9950    1.4054   -2.4885 H   0  0  0  0  0  0  0  0  0  0  0  0
    5.4911   -1.5394    0.6726 H   0  0  0  0  0  0  0  0  0  0  0  0
    3.2153   -0.8646    1.3263 H   0  0  0  0  0  0  0  0  0  0  0  0
    1.5244    0.1874   -1.8757 H   0  0  0  0  0  0  0  0  0  0  0  0
   -0.1714    0.8461   -3.5245 H   0  0  0  0  0  0  0  0  0  0  0  0
   -3.8323    1.5718   -4.4700 H   0  0  0  0  0  0  0  0  0  0  0  0
   -3.0383    0.7261   -3.1263 H   0  0  0  0  0  0  0  0  0  0  0  0
   -2.2150    0.8878   -4.7158 H   0  0  0  0  0  0  0  0  0  0  0  0
   -1.4023    4.0483   -0.9767 H   0  0  0  0  0  0  0  0  0  0  0  0
    0.2506    3.3395    0.7126 H   0  0  0  0  0  0  0  0  0  0  0  0
    1.1316    3.1512    6.1957 H   0  0  0  0  0  0  0  0  0  0  0  0
   -0.9350    3.2162    7.5323 H   0  0  0  0  0  0  0  0  0  0  0  0
   -1.9250   -0.7042   10.2506 H   0  0  0  0  0  0  0  0  0  0  0  0
   -2.7967    0.3650   11.3686 H   0  0  0  0  0  0  0  0  0  0  0  0
   -1.0199    0.3564   11.3800 H   0  0  0  0  0  0  0  0  0  0  0  0
    0.2583   -0.3598    9.5515 H   0  0  0  0  0  0  0  0  0  0  0  0
    2.3016   -0.4202    8.2364 H   0  0  0  0  0  0  0  0  0  0  0  0
    4.6813   -0.5885    5.5077 H   0  0  0  0  0  0  0  0  0  0  0  0
    6.6686   -1.4530    6.5815 H   0  0  0  0  0  0  0  0  0  0  0  0
    8.9899   -0.9785    7.0373 H   0  0  0  0  0  0  0  0  0  0  0  0
    9.8506   -1.8142    8.3511 H   0  0  0  0  0  0  0  0  0  0  0  0
    8.3927   -2.5526    7.6557 H   0  0  0  0  0  0  0  0  0  0  0  0
    5.9918    1.1193    9.9353 H   0  0  0  0  0  0  0  0  0  0  0  0
    3.9680    2.0068    8.8325 H   0  0  0  0  0  0  0  0  0  0  0  0
    5.5144    2.9293    6.0393 H   0  0  0  0  0  0  0  0  0  0  0  0
    7.6921    2.5951    4.9874 H   0  0  0  0  0  0  0  0  0  0  0  0
    6.1554    0.4264    3.4710 H   0  0  0  0  0  0  0  0  0  0  0  0
   11.9107    2.2255    1.7342 H   0  0  0  0  0  0  0  0  0  0  0  0
   13.0420    0.7577    0.0847 H   0  0  0  0  0  0  0  0  0  0  0  0
   12.9708   -1.0898   -1.4261 H   0  0  0  0  0  0  0  0  0  0  0  0
   11.4931   -2.0612   -1.5599 H   0  0  0  0  0  0  0  0  0  0  0  0
   12.7059   -2.4661   -0.3540 H   0  0  0  0  0  0  0  0  0  0  0  0
    9.8782   -2.0977    0.3688 H   0  0  0  0  0  0  0  0  0  0  0  0
  1  2  2  0  0  0  0
  2  3  1  0  0  0  0
  3  4  2  0  0  0  0
  3  5  1  0  0  0  0
  5  6  2  0  0  0  0
  6  7  1  0  0  0  0
  7  8  2  0  0  0  0
  8  9  1  0  0  0  0
  9 10  2  0  0  0  0
 10 11  1  0  0  0  0
 11 12  2  0  0  0  0
 12 13  1  0  0  0  0
 13 14  3  0  0  0  0
 12 15  1  0  0  0  0
 15 16  3  0  0  0  0
  8 17  1  0  0  0  0
 17 18  1  0  0  0  0
 18 19  1  0  0  0  0
 19 20  2  0  0  0  0
 20 21  1  0  0  0  0
 21 22  1  0  0  0  0
 21 23  1  0  0  0  0
  1 24  1  0  0  0  0
 24 25  2  0  0  0  0
 25 26  1  0  0  0  0
 26 27  1  0  0  0  0
 27 28  2  0  0  0  0
 28 29  1  0  0  0  0
 29 30  2  0  0  0  0
 30 31  1  0  0  0  0
 31 32  1  0  0  0  0
 30 33  1  0  0  0  0
 33 34  2  0  0  0  0
 26 35  1  0  0  0  0
 35 36  2  0  0  0  0
 36 37  1  0  0  0  0
 37 38  2  0  0  0  0
 38 39  1  0  0  0  0
 39 40  1  0  0  0  0
 38 41  1  0  0  0  0
 41 42  2  0  0  0  0
 25 43  1  0  0  0  0
 43 44  1  0  0  0  0
 44 45  1  0  0  0  0
 45 46  2  0  0  0  0
 46 47  1  0  0  0  0
 47 48  1  0  0  0  0
 48 49  2  0  0  0  0
 49 50  1  0  0  0  0
 50 51  2  0  0  0  0
 51 52  1  0  0  0  0
 52 53  1  0  0  0  0
 51 54  1  0  0  0  0
 54 55  2  0  0  0  0
 47 56  1  0  0  0  0
 56 57  2  0  0  0  0
 57 58  1  0  0  0  0
 58 59  2  0  0  0  0
 59 60  1  0  0  0  0
 60 61  1  0  0  0  0
 59 62  1  0  0  0  0
 62 63  2  0  0  0  0
 46 64  1  0  0  0  0
 64 65  1  0  0  0  0
 45 66  1  0  0  0  0
 66 67  2  0  0  0  0
 67 68  1  0  0  0  0
 68 69  1  0  0  0  0
 69 70  2  0  0  0  0
 70 71  1  0  0  0  0
 71 72  2  0  0  0  0
 72 73  1  0  0  0  0
 73 74  1  0  0  0  0
 72 75  1  0  0  0  0
 75 76  2  0  0  0  0
 68 77  1  0  0  0  0
 77 78  2  0  0  0  0
 78 79  1  0  0  0  0
 79 80  2  0  0  0  0
 80 81  1  0  0  0  0
 81 82  1  0  0  0  0
 80 83  1  0  0  0  0
 83 84  2  0  0  0  0
 67 85  1  0  0  0  0
 85 86  1  0  0  0  0
 86 87  1  0  0  0  0
 87 88  2  0  0  0  0
 88 89  1  0  0  0  0
 89 90  1  0  0  0  0
 90 91  2  0  0  0  0
 91 92  1  0  0  0  0
 92 93  2  0  0  0  0
 93 94  1  0  0  0  0
 94 95  1  0  0  0  0
 93 96  1  0  0  0  0
 96 97  2  0  0  0  0
 89 98  1  0  0  0  0
 98 99  2  0  0  0  0
 99100  1  0  0  0  0
100101  2  0  0  0  0
101102  1  0  0  0  0
102103  1  0  0  0  0
101104  1  0  0  0  0
104105  2  0  0  0  0
 88106  1  0  0  0  0
106107  1  0  0  0  0
 87108  1  0  0  0  0
108109  2  0  0  0  0
109110  1  0  0  0  0
110111  2  0  0  0  0
111112  1  0  0  0  0
112113  2  0  0  0  0
112114  1  0  0  0  0
114115  2  0  0  0  0
115116  1  0  0  0  0
116117  2  0  0  0  0
117118  1  0  0  0  0
117119  1  0  0  0  0
119120  2  0  0  0  0
120121  1  0  0  0  0
121122  2  0  0  0  0
122123  1  0  0  0  0
123124  3  0  0  0  0
122125  1  0  0  0  0
125126  3  0  0  0  0
 11  2  1  0  0  0  0
 23 17  1  0  0  0  0
 65 24  1  0  0  0  0
107 66  1  0  0  0  0
121111  1  0  0  0  0
 10  5  1  0  0  0  0
 22 18  1  0  0  0  0
 34 27  1  0  0  0  0
 42 35  1  0  0  0  0
 64 43  2  0  0  0  0
 76 69  1  0  0  0  0
 84 77  1  0  0  0  0
106 85  2  0  0  0  0
120114  1  0  0  0  0
 23  7  1  0  0  0  0
 55 48  1  0  0  0  0
 63 56  1  0  0  0  0
 97 90  1  0  0  0  0
105 98  1  0  0  0  0
  1127  1  0  0  0  0
  6128  1  0  0  0  0
  9129  1  0  0  0  0
 17130  1  0  0  0  0
 18131  1  0  0  0  0
 19132  1  0  0  0  0
 20133  1  0  0  0  0
 21134  1  0  0  0  0
 22135  1  0  0  0  0
 22136  1  0  0  0  0
 23137  1  0  0  0  0
 28138  1  0  0  0  0
 29139  1  0  0  0  0
 32140  1  0  0  0  0
 32141  1  0  0  0  0
 32142  1  0  0  0  0
 33143  1  0  0  0  0
 34144  1  0  0  0  0
 36145  1  0  0  0  0
 37146  1  0  0  0  0
 40147  1  0  0  0  0
 40148  1  0  0  0  0
 40149  1  0  0  0  0
 41150  1  0  0  0  0
 42151  1  0  0  0  0
 49152  1  0  0  0  0
 50153  1  0  0  0  0
 53154  1  0  0  0  0
 53155  1  0  0  0  0
 53156  1  0  0  0  0
 54157  1  0  0  0  0
 55158  1  0  0  0  0
 57159  1  0  0  0  0
 58160  1  0  0  0  0
 61161  1  0  0  0  0
 61162  1  0  0  0  0
 61163  1  0  0  0  0
 62164  1  0  0  0  0
 63165  1  0  0  0  0
 70166  1  0  0  0  0
 71167  1  0  0  0  0
 74168  1  0  0  0  0
 74169  1  0  0  0  0
 74170  1  0  0  0  0
 75171  1  0  0  0  0
 76172  1  0  0  0  0
 78173  1  0  0  0  0
 79174  1  0  0  0  0
 82175  1  0  0  0  0
 82176  1  0  0  0  0
 82177  1  0  0  0  0
 83178  1  0  0  0  0
 84179  1  0  0  0  0
 91180  1  0  0  0  0
 92181  1  0  0  0  0
 95182  1  0  0  0  0
 95183  1  0  0  0  0
 95184  1  0  0  0  0
 96185  1  0  0  0  0
 97186  1  0  0  0  0
 99187  1  0  0  0  0
100188  1  0  0  0  0
103189  1  0  0  0  0
103190  1  0  0  0  0
103191  1  0  0  0  0
104192  1  0  0  0  0
105193  1  0  0  0  0
108194  1  0  0  0  0
109195  1  0  0  0  0
110196  1  0  0  0  0
115197  1  0  0  0  0
116198  1  0  0  0  0
118199  1  0  0  0  0
118200  1  0  0  0  0
118201  1  0  0  0  0
119202  1  0  0  0  0
M  END
