
  xtb     02052211533D
 energy: -418.354168389426 gnorm: 0.000301431983 xtb: 6.4.1 (unknown)
253276  0     0  0            999 V2000
    6.6720    6.8550    0.6578 C   0  0  0  0  0  0  0  0  0  0  0  0
    7.9966    6.4869    0.7833 C   0  0  0  0  0  0  0  0  0  0  0  0
    8.4367    5.1754    1.2729 C   0  0  0  0  0  0  0  0  0  0  0  0
    7.7356    4.2302    1.5997 O   0  0  0  0  0  0  0  0  0  0  0  0
    9.9023    5.2674    1.4184 C   0  0  0  0  0  0  0  0  0  0  0  0
   10.7717    4.2618    1.8299 C   0  0  0  0  0  0  0  0  0  0  0  0
   12.0964    4.6308    1.8250 C   0  0  0  0  0  0  0  0  0  0  0  0
   12.5244    5.9103    1.4524 C   0  0  0  0  0  0  0  0  0  0  0  0
   11.6749    6.9161    1.0532 C   0  0  0  0  0  0  0  0  0  0  0  0
   10.3262    6.5566    1.0417 C   0  0  0  0  0  0  0  0  0  0  0  0
    9.1524    7.3239    0.6310 C   0  0  0  0  0  0  0  0  0  0  0  0
    9.1681    8.5682    0.0489 C   0  0  0  0  0  0  0  0  0  0  0  0
    8.0340    9.1880   -0.5098 C   0  0  0  0  0  0  0  0  0  0  0  0
    7.1718    9.7346   -1.0384 N   0  0  0  0  0  0  0  0  0  0  0  0
   10.3207    9.3518   -0.1446 C   0  0  0  0  0  0  0  0  0  0  0  0
   11.2108   10.0502   -0.3458 N   0  0  0  0  0  0  0  0  0  0  0  0
   13.9798    5.5732    1.6636 C   0  0  0  0  0  0  0  0  0  0  0  0
   14.8123    5.3035    0.3923 C   0  0  0  0  0  0  0  0  0  0  0  0
   16.0167    4.5458    0.9023 C   0  0  0  0  0  0  0  0  0  0  0  0
   15.6115    3.3316    1.2515 C   0  0  0  0  0  0  0  0  0  0  0  0
   14.1260    3.2483    0.9836 C   0  0  0  0  0  0  0  0  0  0  0  0
   14.0298    4.1523   -0.2520 C   0  0  0  0  0  0  0  0  0  0  0  0
   13.5023    4.1435    2.0755 C   0  0  0  0  0  0  0  0  0  0  0  0
    5.6077    5.9700    0.4827 C   0  0  0  0  0  0  0  0  0  0  0  0
    5.5710    4.6599   -0.0478 C   0  0  0  0  0  0  0  0  0  0  0  0
    6.5307    4.0859   -0.8189 N   0  0  0  0  0  0  0  0  0  0  0  0
    6.5551    2.6895   -1.0336 C   0  0  0  0  0  0  0  0  0  0  0  0
    6.6781    2.2025   -2.3339 C   0  0  0  0  0  0  0  0  0  0  0  0
    6.7467    0.8459   -2.5563 C   0  0  0  0  0  0  0  0  0  0  0  0
    6.7090   -0.0465   -1.4847 C   0  0  0  0  0  0  0  0  0  0  0  0
    6.8275   -1.7587   -1.8811 S   0  0  0  0  0  0  0  0  0  0  0  0
    6.5874   -2.5923   -0.2864 C   0  0  0  0  0  0  0  0  0  0  0  0
    6.6038    0.4416   -0.1894 C   0  0  0  0  0  0  0  0  0  0  0  0
    6.5197    1.8017    0.0327 C   0  0  0  0  0  0  0  0  0  0  0  0
    7.5525    4.8215   -1.4423 C   0  0  0  0  0  0  0  0  0  0  0  0
    7.2896    6.0165   -2.1068 C   0  0  0  0  0  0  0  0  0  0  0  0
    8.3147    6.7527   -2.6636 C   0  0  0  0  0  0  0  0  0  0  0  0
    9.6296    6.3078   -2.5607 C   0  0  0  0  0  0  0  0  0  0  0  0
   11.0284    7.2069   -3.1322 S   0  0  0  0  0  0  0  0  0  0  0  0
   10.3340    8.7505   -3.7830 C   0  0  0  0  0  0  0  0  0  0  0  0
    9.8861    5.0771   -1.9578 C   0  0  0  0  0  0  0  0  0  0  0  0
    8.8618    4.3384   -1.4096 C   0  0  0  0  0  0  0  0  0  0  0  0
    4.3063    4.0684    0.1997 C   0  0  0  0  0  0  0  0  0  0  0  0
    3.6273    2.4948   -0.0486 S   0  0  0  0  0  0  0  0  0  0  0  0
    2.1014    3.0177    0.6340 C   0  0  0  0  0  0  0  0  0  0  0  0
    2.1109    4.3422    0.9991 C   0  0  0  0  0  0  0  0  0  0  0  0
    0.9823    5.0450    1.4673 N   0  0  0  0  0  0  0  0  0  0  0  0
    0.7955    5.2168    2.8403 C   0  0  0  0  0  0  0  0  0  0  0  0
   -0.4838    5.4072    3.3596 C   0  0  0  0  0  0  0  0  0  0  0  0
   -0.6870    5.5431    4.7181 C   0  0  0  0  0  0  0  0  0  0  0  0
    0.3879    5.4750    5.5923 C   0  0  0  0  0  0  0  0  0  0  0  0
    0.2452    5.5986    7.3477 S   0  0  0  0  0  0  0  0  0  0  0  0
   -1.4622    6.1568    7.6085 C   0  0  0  0  0  0  0  0  0  0  0  0
    1.6675    5.2846    5.0825 C   0  0  0  0  0  0  0  0  0  0  0  0
    1.8717    5.1636    3.7251 C   0  0  0  0  0  0  0  0  0  0  0  0
    0.2620    5.7793    0.5170 C   0  0  0  0  0  0  0  0  0  0  0  0
    0.0835    5.2809   -0.7747 C   0  0  0  0  0  0  0  0  0  0  0  0
   -0.6159    6.0052   -1.7153 C   0  0  0  0  0  0  0  0  0  0  0  0
   -1.1562    7.2465   -1.3932 C   0  0  0  0  0  0  0  0  0  0  0  0
   -2.0673    8.0865   -2.6585 S   0  0  0  0  0  0  0  0  0  0  0  0
   -2.1333    9.8016   -2.0705 C   0  0  0  0  0  0  0  0  0  0  0  0
   -0.9717    7.7554   -0.1153 C   0  0  0  0  0  0  0  0  0  0  0  0
   -0.2601    7.0351    0.8229 C   0  0  0  0  0  0  0  0  0  0  0  0
    3.3752    4.9292    0.7638 C   0  0  0  0  0  0  0  0  0  0  0  0
    4.0119    6.5050    1.0371 S   0  0  0  0  0  0  0  0  0  0  0  0
    0.9947    2.0958    0.7555 C   0  0  0  0  0  0  0  0  0  0  0  0
    0.5453    1.4975    1.9107 C   0  0  0  0  0  0  0  0  0  0  0  0
    1.1607    1.6646    3.1487 N   0  0  0  0  0  0  0  0  0  0  0  0
    0.3808    1.8895    4.2810 C   0  0  0  0  0  0  0  0  0  0  0  0
   -0.9120    2.3987    4.1474 C   0  0  0  0  0  0  0  0  0  0  0  0
   -1.7012    2.6067    5.2556 C   0  0  0  0  0  0  0  0  0  0  0  0
   -1.2158    2.3362    6.5301 C   0  0  0  0  0  0  0  0  0  0  0  0
   -2.3080    2.6446    7.8876 S   0  0  0  0  0  0  0  0  0  0  0  0
   -1.1921    2.6928    9.3186 C   0  0  0  0  0  0  0  0  0  0  0  0
    0.0666    1.8281    6.6725 C   0  0  0  0  0  0  0  0  0  0  0  0
    0.8509    1.5992    5.5600 C   0  0  0  0  0  0  0  0  0  0  0  0
    2.5405    1.4009    3.2094 C   0  0  0  0  0  0  0  0  0  0  0  0
    3.0612    0.3084    2.5154 C   0  0  0  0  0  0  0  0  0  0  0  0
    4.4071    0.0259    2.5689 C   0  0  0  0  0  0  0  0  0  0  0  0
    5.2737    0.8391    3.2950 C   0  0  0  0  0  0  0  0  0  0  0  0
    6.9762    0.3651    3.3314 S   0  0  0  0  0  0  0  0  0  0  0  0
    7.8404    1.8462    3.9226 C   0  0  0  0  0  0  0  0  0  0  0  0
    4.7620    1.9327    3.9799 C   0  0  0  0  0  0  0  0  0  0  0  0
    3.4071    2.2012    3.9464 C   0  0  0  0  0  0  0  0  0  0  0  0
   -0.5636    0.6526    1.6483 C   0  0  0  0  0  0  0  0  0  0  0  0
   -1.5020   -0.4375    2.6055 S   0  0  0  0  0  0  0  0  0  0  0  0
   -2.4225   -0.9087    1.1876 C   0  0  0  0  0  0  0  0  0  0  0  0
   -1.9903   -0.2831    0.0306 C   0  0  0  0  0  0  0  0  0  0  0  0
   -2.4600   -0.5298   -1.2501 N   0  0  0  0  0  0  0  0  0  0  0  0
   -2.5455    0.5409   -2.1498 C   0  0  0  0  0  0  0  0  0  0  0  0
   -2.8976    1.8124   -1.7018 C   0  0  0  0  0  0  0  0  0  0  0  0
   -2.9517    2.8814   -2.5746 C   0  0  0  0  0  0  0  0  0  0  0  0
   -2.6765    2.6904   -3.9214 C   0  0  0  0  0  0  0  0  0  0  0  0
   -2.7204    3.9866   -5.1204 S   0  0  0  0  0  0  0  0  0  0  0  0
   -3.7575    5.2514   -4.3325 C   0  0  0  0  0  0  0  0  0  0  0  0
   -2.3287    1.4195   -4.3758 C   0  0  0  0  0  0  0  0  0  0  0  0
   -2.2571    0.3579   -3.5025 C   0  0  0  0  0  0  0  0  0  0  0  0
   -2.8197   -1.8293   -1.6336 C   0  0  0  0  0  0  0  0  0  0  0  0
   -2.0871   -2.9283   -1.1806 C   0  0  0  0  0  0  0  0  0  0  0  0
   -2.5018   -4.2086   -1.4667 C   0  0  0  0  0  0  0  0  0  0  0  0
   -3.6436   -4.4264   -2.2354 C   0  0  0  0  0  0  0  0  0  0  0  0
   -4.1092   -6.1112   -2.4790 S   0  0  0  0  0  0  0  0  0  0  0  0
   -5.5141   -6.0305   -3.6249 C   0  0  0  0  0  0  0  0  0  0  0  0
   -4.3390   -3.3377   -2.7410 C   0  0  0  0  0  0  0  0  0  0  0  0
   -3.9351   -2.0522   -2.4357 C   0  0  0  0  0  0  0  0  0  0  0  0
   -0.9322    0.6165    0.3153 C   0  0  0  0  0  0  0  0  0  0  0  0
    0.0867    1.6079   -0.6649 S   0  0  0  0  0  0  0  0  0  0  0  0
   -3.4110   -1.9470    1.2432 C   0  0  0  0  0  0  0  0  0  0  0  0
   -4.6181   -1.9599    0.6150 C   0  0  0  0  0  0  0  0  0  0  0  0
   -5.2409   -3.2340    0.6049 C   0  0  0  0  0  0  0  0  0  0  0  0
   -6.4188   -3.6083   -0.0623 C   0  0  0  0  0  0  0  0  0  0  0  0
   -7.2950   -2.5931   -0.6636 C   0  0  0  0  0  0  0  0  0  0  0  0
   -7.6497   -1.4693    0.0760 C   0  0  0  0  0  0  0  0  0  0  0  0
   -8.4787   -0.5109   -0.4800 C   0  0  0  0  0  0  0  0  0  0  0  0
   -8.9509   -0.6550   -1.7673 C   0  0  0  0  0  0  0  0  0  0  0  0
   -8.6097   -1.7815   -2.5199 C   0  0  0  0  0  0  0  0  0  0  0  0
   -9.1085   -1.8051   -3.7840 O   0  0  0  0  0  0  0  0  0  0  0  0
   -8.8817   -2.9191   -4.6240 C   0  0  0  0  0  0  0  0  0  0  0  0
   -9.7977   -4.0971   -4.3114 C   0  0  0  0  0  0  0  0  0  0  0  0
   -7.7888   -2.7490   -1.9559 C   0  0  0  0  0  0  0  0  0  0  0  0
   -6.7016   -4.9668   -0.1055 C   0  0  0  0  0  0  0  0  0  0  0  0
   -5.8833   -5.9408    0.5274 C   0  0  0  0  0  0  0  0  0  0  0  0
   -4.7250   -5.5593    1.2340 C   0  0  0  0  0  0  0  0  0  0  0  0
   -3.8360   -6.5502    1.8514 C   0  0  0  0  0  0  0  0  0  0  0  0
   -3.4403   -6.4174    3.1816 C   0  0  0  0  0  0  0  0  0  0  0  0
   -2.6024   -7.3604    3.7407 C   0  0  0  0  0  0  0  0  0  0  0  0
   -2.1414   -8.4372    3.0004 C   0  0  0  0  0  0  0  0  0  0  0  0
   -2.5222   -8.5714    1.6683 C   0  0  0  0  0  0  0  0  0  0  0  0
   -2.1348   -9.5739    0.8409 O   0  0  0  0  0  0  0  0  0  0  0  0
   -1.3231  -10.6141    1.3492 C   0  0  0  0  0  0  0  0  0  0  0  0
   -1.1125  -11.6205    0.2290 C   0  0  0  0  0  0  0  0  0  0  0  0
   -3.3690   -7.6191    1.1018 C   0  0  0  0  0  0  0  0  0  0  0  0
   -4.4432   -4.2084    1.2583 C   0  0  0  0  0  0  0  0  0  0  0  0
   -3.0089   -3.5001    1.9531 S   0  0  0  0  0  0  0  0  0  0  0  0
   -6.3976   -7.2361    0.3605 C   0  0  0  0  0  0  0  0  0  0  0  0
   -7.5507   -7.2957   -0.3970 C   0  0  0  0  0  0  0  0  0  0  0  0
   -8.0611   -5.6998   -0.9162 S   0  0  0  0  0  0  0  0  0  0  0  0
   -8.1810   -8.5250   -0.6833 C   0  0  0  0  0  0  0  0  0  0  0  0
   -9.2773   -8.8097   -1.4456 C   0  0  0  0  0  0  0  0  0  0  0  0
  -10.0907   -7.8406   -2.2023 C   0  0  0  0  0  0  0  0  0  0  0  0
   -9.9487   -6.6325   -2.2588 O   0  0  0  0  0  0  0  0  0  0  0  0
  -11.1177   -8.6289   -2.8923 C   0  0  0  0  0  0  0  0  0  0  0  0
  -12.1188   -8.1830   -3.7393 C   0  0  0  0  0  0  0  0  0  0  0  0
  -12.9914   -9.1108   -4.2870 C   0  0  0  0  0  0  0  0  0  0  0  0
  -14.0094   -8.8218   -5.1254 O   0  0  0  0  0  0  0  0  0  0  0  0
  -14.2243   -7.4760   -5.4822 C   0  0  0  0  0  0  0  0  0  0  0  0
  -12.8436  -10.4926   -3.9708 C   0  0  0  0  0  0  0  0  0  0  0  0
  -13.7451  -11.3069   -4.5564 O   0  0  0  0  0  0  0  0  0  0  0  0
  -13.6792  -12.6923   -4.3000 C   0  0  0  0  0  0  0  0  0  0  0  0
  -11.8335  -10.9203   -3.1205 C   0  0  0  0  0  0  0  0  0  0  0  0
  -10.9622   -9.9844   -2.5762 C   0  0  0  0  0  0  0  0  0  0  0  0
   -9.8298  -10.1356   -1.6730 C   0  0  0  0  0  0  0  0  0  0  0  0
   -9.3907  -11.3234   -1.1446 C   0  0  0  0  0  0  0  0  0  0  0  0
   -8.3045  -11.4937   -0.2617 C   0  0  0  0  0  0  0  0  0  0  0  0
   -7.4415  -11.7335    0.4583 N   0  0  0  0  0  0  0  0  0  0  0  0
   -9.9870  -12.5711   -1.4198 C   0  0  0  0  0  0  0  0  0  0  0  0
  -10.4280  -13.6152   -1.6069 N   0  0  0  0  0  0  0  0  0  0  0  0
    6.4096    7.9014    0.7594 H   0  0  0  0  0  0  0  0  0  0  0  0
   10.4036    3.2857    2.1061 H   0  0  0  0  0  0  0  0  0  0  0  0
   12.0165    7.8983    0.7721 H   0  0  0  0  0  0  0  0  0  0  0  0
   14.5077    6.1775    2.3988 H   0  0  0  0  0  0  0  0  0  0  0  0
   15.0058    6.1802   -0.2193 H   0  0  0  0  0  0  0  0  0  0  0  0
   16.9962    4.9747    1.0055 H   0  0  0  0  0  0  0  0  0  0  0  0
   16.1844    2.5439    1.7049 H   0  0  0  0  0  0  0  0  0  0  0  0
   13.6975    2.2519    0.9107 H   0  0  0  0  0  0  0  0  0  0  0  0
   14.5479    3.7322   -1.1124 H   0  0  0  0  0  0  0  0  0  0  0  0
   13.0114    4.4149   -0.5322 H   0  0  0  0  0  0  0  0  0  0  0  0
   13.7138    3.7943    3.0848 H   0  0  0  0  0  0  0  0  0  0  0  0
    6.7167    2.8938   -3.1627 H   0  0  0  0  0  0  0  0  0  0  0  0
    6.8343    0.4599   -3.5601 H   0  0  0  0  0  0  0  0  0  0  0  0
    6.6190   -3.6551   -0.5054 H   0  0  0  0  0  0  0  0  0  0  0  0
    7.3884   -2.3335    0.3997 H   0  0  0  0  0  0  0  0  0  0  0  0
    5.6160   -2.3285    0.1209 H   0  0  0  0  0  0  0  0  0  0  0  0
    6.6124   -0.2185    0.6603 H   0  0  0  0  0  0  0  0  0  0  0  0
    6.4651    2.1883    1.0372 H   0  0  0  0  0  0  0  0  0  0  0  0
    6.2760    6.3802   -2.1829 H   0  0  0  0  0  0  0  0  0  0  0  0
    8.0759    7.6760   -3.1653 H   0  0  0  0  0  0  0  0  0  0  0  0
   11.1898    9.3438   -4.0896 H   0  0  0  0  0  0  0  0  0  0  0  0
    9.7885    9.2757   -3.0046 H   0  0  0  0  0  0  0  0  0  0  0  0
    9.7011    8.5417   -4.6405 H   0  0  0  0  0  0  0  0  0  0  0  0
   10.9029    4.7185   -1.9126 H   0  0  0  0  0  0  0  0  0  0  0  0
    9.0684    3.3914   -0.9348 H   0  0  0  0  0  0  0  0  0  0  0  0
   -1.3306    5.4404    2.6904 H   0  0  0  0  0  0  0  0  0  0  0  0
   -1.6914    5.6840    5.0826 H   0  0  0  0  0  0  0  0  0  0  0  0
   -1.6429    7.0569    7.0287 H   0  0  0  0  0  0  0  0  0  0  0  0
   -2.1585    5.3648    7.3475 H   0  0  0  0  0  0  0  0  0  0  0  0
   -1.5397    6.3781    8.6686 H   0  0  0  0  0  0  0  0  0  0  0  0
    2.5031    5.2473    5.7659 H   0  0  0  0  0  0  0  0  0  0  0  0
    2.8738    5.0408    3.3448 H   0  0  0  0  0  0  0  0  0  0  0  0
    0.4946    4.3223   -1.0499 H   0  0  0  0  0  0  0  0  0  0  0  0
   -0.7427    5.6108   -2.7120 H   0  0  0  0  0  0  0  0  0  0  0  0
   -2.8116    9.8865   -1.2260 H   0  0  0  0  0  0  0  0  0  0  0  0
   -2.5131   10.3832   -2.9048 H   0  0  0  0  0  0  0  0  0  0  0  0
   -1.1333   10.1344   -1.8093 H   0  0  0  0  0  0  0  0  0  0  0  0
   -1.3676    8.7194    0.1621 H   0  0  0  0  0  0  0  0  0  0  0  0
   -0.0998    7.4569    1.8036 H   0  0  0  0  0  0  0  0  0  0  0  0
   -1.2958    2.6463    3.1700 H   0  0  0  0  0  0  0  0  0  0  0  0
   -2.7041    2.9898    5.1425 H   0  0  0  0  0  0  0  0  0  0  0  0
   -0.3623    3.3600    9.1036 H   0  0  0  0  0  0  0  0  0  0  0  0
   -0.8457    1.6916    9.5588 H   0  0  0  0  0  0  0  0  0  0  0  0
   -1.7831    3.0826   10.1416 H   0  0  0  0  0  0  0  0  0  0  0  0
    0.4660    1.5929    7.6457 H   0  0  0  0  0  0  0  0  0  0  0  0
    1.8351    1.1758    5.6892 H   0  0  0  0  0  0  0  0  0  0  0  0
    2.4001   -0.3284    1.9465 H   0  0  0  0  0  0  0  0  0  0  0  0
    4.7959   -0.8423    2.0605 H   0  0  0  0  0  0  0  0  0  0  0  0
    7.6267    2.6868    3.2674 H   0  0  0  0  0  0  0  0  0  0  0  0
    8.8967    1.5984    3.8749 H   0  0  0  0  0  0  0  0  0  0  0  0
    7.5652    2.0580    4.9518 H   0  0  0  0  0  0  0  0  0  0  0  0
    5.4079    2.5815    4.5496 H   0  0  0  0  0  0  0  0  0  0  0  0
    3.0112    3.0350    4.5025 H   0  0  0  0  0  0  0  0  0  0  0  0
   -3.1326    1.9661   -0.6585 H   0  0  0  0  0  0  0  0  0  0  0  0
   -3.2081    3.8568   -2.1931 H   0  0  0  0  0  0  0  0  0  0  0  0
   -3.9981    5.9629   -5.1159 H   0  0  0  0  0  0  0  0  0  0  0  0
   -4.6650    4.7893   -3.9560 H   0  0  0  0  0  0  0  0  0  0  0  0
   -3.2122    5.7591   -3.5425 H   0  0  0  0  0  0  0  0  0  0  0  0
   -2.1069    1.2799   -5.4225 H   0  0  0  0  0  0  0  0  0  0  0  0
   -1.9762   -0.6217   -3.8591 H   0  0  0  0  0  0  0  0  0  0  0  0
   -1.1990   -2.7709   -0.5869 H   0  0  0  0  0  0  0  0  0  0  0  0
   -1.9498   -5.0575   -1.0927 H   0  0  0  0  0  0  0  0  0  0  0  0
   -5.7536   -7.0622   -3.8642 H   0  0  0  0  0  0  0  0  0  0  0  0
   -6.3679   -5.5649   -3.1414 H   0  0  0  0  0  0  0  0  0  0  0  0
   -5.2258   -5.5002   -4.5278 H   0  0  0  0  0  0  0  0  0  0  0  0
   -5.2119   -3.4720   -3.3576 H   0  0  0  0  0  0  0  0  0  0  0  0
   -4.5044   -1.2124   -2.8061 H   0  0  0  0  0  0  0  0  0  0  0  0
   -5.0338   -1.0949    0.1305 H   0  0  0  0  0  0  0  0  0  0  0  0
   -7.2989   -1.3636    1.0914 H   0  0  0  0  0  0  0  0  0  0  0  0
   -8.7590    0.3573    0.0981 H   0  0  0  0  0  0  0  0  0  0  0  0
   -9.5906    0.0872   -2.2178 H   0  0  0  0  0  0  0  0  0  0  0  0
   -7.8275   -3.2221   -4.5919 H   0  0  0  0  0  0  0  0  0  0  0  0
   -9.0944   -2.5411   -5.6291 H   0  0  0  0  0  0  0  0  0  0  0  0
  -10.8346   -3.7738   -4.3613 H   0  0  0  0  0  0  0  0  0  0  0  0
   -9.6119   -4.5013   -3.3201 H   0  0  0  0  0  0  0  0  0  0  0  0
   -9.6382   -4.8851   -5.0431 H   0  0  0  0  0  0  0  0  0  0  0  0
   -7.5121   -3.6281   -2.5131 H   0  0  0  0  0  0  0  0  0  0  0  0
   -3.8065   -5.5925    3.7733 H   0  0  0  0  0  0  0  0  0  0  0  0
   -2.2999   -7.2631    4.7729 H   0  0  0  0  0  0  0  0  0  0  0  0
   -1.4877   -9.1567    3.4675 H   0  0  0  0  0  0  0  0  0  0  0  0
   -1.8189  -11.0967    2.2028 H   0  0  0  0  0  0  0  0  0  0  0  0
   -0.3573  -10.2101    1.6850 H   0  0  0  0  0  0  0  0  0  0  0  0
   -0.4922  -12.4407    0.5792 H   0  0  0  0  0  0  0  0  0  0  0  0
   -0.6273  -11.1389   -0.6155 H   0  0  0  0  0  0  0  0  0  0  0  0
   -2.0712  -12.0118   -0.0998 H   0  0  0  0  0  0  0  0  0  0  0  0
   -3.6295   -7.7173    0.0592 H   0  0  0  0  0  0  0  0  0  0  0  0
   -5.9423   -8.1132    0.7848 H   0  0  0  0  0  0  0  0  0  0  0  0
   -7.6801   -9.3637   -0.2146 H   0  0  0  0  0  0  0  0  0  0  0  0
  -12.1934   -7.1283   -3.9489 H   0  0  0  0  0  0  0  0  0  0  0  0
  -14.4499   -6.8603   -4.6061 H   0  0  0  0  0  0  0  0  0  0  0  0
  -13.3604   -7.0579   -6.0081 H   0  0  0  0  0  0  0  0  0  0  0  0
  -15.0842   -7.4847   -6.1493 H   0  0  0  0  0  0  0  0  0  0  0  0
  -12.7294  -13.1188   -4.6358 H   0  0  0  0  0  0  0  0  0  0  0  0
  -13.8188  -12.9119   -3.2375 H   0  0  0  0  0  0  0  0  0  0  0  0
  -14.4951  -13.1317   -4.8707 H   0  0  0  0  0  0  0  0  0  0  0  0
  -11.7302  -11.9654   -2.8886 H   0  0  0  0  0  0  0  0  0  0  0  0
  1  2  2  0  0  0  0
  2  3  1  0  0  0  0
  3  4  2  0  0  0  0
  3  5  1  0  0  0  0
  5  6  2  0  0  0  0
  6  7  1  0  0  0  0
  7  8  2  0  0  0  0
  8  9  1  0  0  0  0
  9 10  2  0  0  0  0
 10 11  1  0  0  0  0
 11 12  2  0  0  0  0
 12 13  1  0  0  0  0
 13 14  3  0  0  0  0
 12 15  1  0  0  0  0
 15 16  3  0  0  0  0
  8 17  1  0  0  0  0
 17 18  1  0  0  0  0
 18 19  1  0  0  0  0
 19 20  2  0  0  0  0
 20 21  1  0  0  0  0
 21 22  1  0  0  0  0
 21 23  1  0  0  0  0
  1 24  1  0  0  0  0
 24 25  2  0  0  0  0
 25 26  1  0  0  0  0
 26 27  1  0  0  0  0
 27 28  2  0  0  0  0
 28 29  1  0  0  0  0
 29 30  2  0  0  0  0
 30 31  1  0  0  0  0
 31 32  1  0  0  0  0
 30 33  1  0  0  0  0
 33 34  2  0  0  0  0
 26 35  1  0  0  0  0
 35 36  2  0  0  0  0
 36 37  1  0  0  0  0
 37 38  2  0  0  0  0
 38 39  1  0  0  0  0
 39 40  1  0  0  0  0
 38 41  1  0  0  0  0
 41 42  2  0  0  0  0
 25 43  1  0  0  0  0
 43 44  1  0  0  0  0
 44 45  1  0  0  0  0
 45 46  2  0  0  0  0
 46 47  1  0  0  0  0
 47 48  1  0  0  0  0
 48 49  2  0  0  0  0
 49 50  1  0  0  0  0
 50 51  2  0  0  0  0
 51 52  1  0  0  0  0
 52 53  1  0  0  0  0
 51 54  1  0  0  0  0
 54 55  2  0  0  0  0
 47 56  1  0  0  0  0
 56 57  2  0  0  0  0
 57 58  1  0  0  0  0
 58 59  2  0  0  0  0
 59 60  1  0  0  0  0
 60 61  1  0  0  0  0
 59 62  1  0  0  0  0
 62 63  2  0  0  0  0
 46 64  1  0  0  0  0
 64 65  1  0  0  0  0
 45 66  1  0  0  0  0
 66 67  2  0  0  0  0
 67 68  1  0  0  0  0
 68 69  1  0  0  0  0
 69 70  2  0  0  0  0
 70 71  1  0  0  0  0
 71 72  2  0  0  0  0
 72 73  1  0  0  0  0
 73 74  1  0  0  0  0
 72 75  1  0  0  0  0
 75 76  2  0  0  0  0
 68 77  1  0  0  0  0
 77 78  2  0  0  0  0
 78 79  1  0  0  0  0
 79 80  2  0  0  0  0
 80 81  1  0  0  0  0
 81 82  1  0  0  0  0
 80 83  1  0  0  0  0
 83 84  2  0  0  0  0
 67 85  1  0  0  0  0
 85 86  1  0  0  0  0
 86 87  1  0  0  0  0
 87 88  2  0  0  0  0
 88 89  1  0  0  0  0
 89 90  1  0  0  0  0
 90 91  2  0  0  0  0
 91 92  1  0  0  0  0
 92 93  2  0  0  0  0
 93 94  1  0  0  0  0
 94 95  1  0  0  0  0
 93 96  1  0  0  0  0
 96 97  2  0  0  0  0
 89 98  1  0  0  0  0
 98 99  2  0  0  0  0
 99100  1  0  0  0  0
100101  2  0  0  0  0
101102  1  0  0  0  0
102103  1  0  0  0  0
101104  1  0  0  0  0
104105  2  0  0  0  0
 88106  1  0  0  0  0
106107  1  0  0  0  0
 87108  1  0  0  0  0
108109  2  0  0  0  0
109110  1  0  0  0  0
110111  2  0  0  0  0
111112  1  0  0  0  0
112113  2  0  0  0  0
113114  1  0  0  0  0
114115  2  0  0  0  0
115116  1  0  0  0  0
116117  1  0  0  0  0
117118  1  0  0  0  0
118119  1  0  0  0  0
116120  2  0  0  0  0
111121  1  0  0  0  0
121122  2  0  0  0  0
122123  1  0  0  0  0
123124  1  0  0  0  0
124125  2  0  0  0  0
125126  1  0  0  0  0
126127  2  0  0  0  0
127128  1  0  0  0  0
128129  1  0  0  0  0
129130  1  0  0  0  0
130131  1  0  0  0  0
128132  2  0  0  0  0
123133  2  0  0  0  0
133134  1  0  0  0  0
122135  1  0  0  0  0
135136  2  0  0  0  0
136137  1  0  0  0  0
136138  1  0  0  0  0
138139  2  0  0  0  0
139140  1  0  0  0  0
140141  2  0  0  0  0
140142  1  0  0  0  0
142143  2  0  0  0  0
143144  1  0  0  0  0
144145  1  0  0  0  0
145146  1  0  0  0  0
144147  2  0  0  0  0
147148  1  0  0  0  0
148149  1  0  0  0  0
147150  1  0  0  0  0
150151  2  0  0  0  0
151152  1  0  0  0  0
152153  2  0  0  0  0
153154  1  0  0  0  0
154155  3  0  0  0  0
153156  1  0  0  0  0
156157  3  0  0  0  0
 11  2  1  0  0  0  0
 23 17  1  0  0  0  0
 65 24  1  0  0  0  0
107 66  1  0  0  0  0
134108  1  0  0  0  0
152139  1  0  0  0  0
 10  5  1  0  0  0  0
 22 18  1  0  0  0  0
 34 27  1  0  0  0  0
 42 35  1  0  0  0  0
 64 43  2  0  0  0  0
 76 69  1  0  0  0  0
 84 77  1  0  0  0  0
106 85  2  0  0  0  0
133110  1  0  0  0  0
151142  1  0  0  0  0
 23  7  1  0  0  0  0
 55 48  1  0  0  0  0
 63 56  1  0  0  0  0
 97 90  1  0  0  0  0
105 98  1  0  0  0  0
120112  1  0  0  0  0
137121  1  0  0  0  0
132124  1  0  0  0  0
  1158  1  0  0  0  0
  6159  1  0  0  0  0
  9160  1  0  0  0  0
 17161  1  0  0  0  0
 18162  1  0  0  0  0
 19163  1  0  0  0  0
 20164  1  0  0  0  0
 21165  1  0  0  0  0
 22166  1  0  0  0  0
 22167  1  0  0  0  0
 23168  1  0  0  0  0
 28169  1  0  0  0  0
 29170  1  0  0  0  0
 32171  1  0  0  0  0
 32172  1  0  0  0  0
 32173  1  0  0  0  0
 33174  1  0  0  0  0
 34175  1  0  0  0  0
 36176  1  0  0  0  0
 37177  1  0  0  0  0
 40178  1  0  0  0  0
 40179  1  0  0  0  0
 40180  1  0  0  0  0
 41181  1  0  0  0  0
 42182  1  0  0  0  0
 49183  1  0  0  0  0
 50184  1  0  0  0  0
 53185  1  0  0  0  0
 53186  1  0  0  0  0
 53187  1  0  0  0  0
 54188  1  0  0  0  0
 55189  1  0  0  0  0
 57190  1  0  0  0  0
 58191  1  0  0  0  0
 61192  1  0  0  0  0
 61193  1  0  0  0  0
 61194  1  0  0  0  0
 62195  1  0  0  0  0
 63196  1  0  0  0  0
 70197  1  0  0  0  0
 71198  1  0  0  0  0
 74199  1  0  0  0  0
 74200  1  0  0  0  0
 74201  1  0  0  0  0
 75202  1  0  0  0  0
 76203  1  0  0  0  0
 78204  1  0  0  0  0
 79205  1  0  0  0  0
 82206  1  0  0  0  0
 82207  1  0  0  0  0
 82208  1  0  0  0  0
 83209  1  0  0  0  0
 84210  1  0  0  0  0
 91211  1  0  0  0  0
 92212  1  0  0  0  0
 95213  1  0  0  0  0
 95214  1  0  0  0  0
 95215  1  0  0  0  0
 96216  1  0  0  0  0
 97217  1  0  0  0  0
 99218  1  0  0  0  0
100219  1  0  0  0  0
103220  1  0  0  0  0
103221  1  0  0  0  0
103222  1  0  0  0  0
104223  1  0  0  0  0
105224  1  0  0  0  0
109225  1  0  0  0  0
113226  1  0  0  0  0
114227  1  0  0  0  0
115228  1  0  0  0  0
118229  1  0  0  0  0
118230  1  0  0  0  0
119231  1  0  0  0  0
119232  1  0  0  0  0
119233  1  0  0  0  0
120234  1  0  0  0  0
125235  1  0  0  0  0
126236  1  0  0  0  0
127237  1  0  0  0  0
130238  1  0  0  0  0
130239  1  0  0  0  0
131240  1  0  0  0  0
131241  1  0  0  0  0
131242  1  0  0  0  0
132243  1  0  0  0  0
135244  1  0  0  0  0
138245  1  0  0  0  0
143246  1  0  0  0  0
146247  1  0  0  0  0
146248  1  0  0  0  0
146249  1  0  0  0  0
149250  1  0  0  0  0
149251  1  0  0  0  0
149252  1  0  0  0  0
150253  1  0  0  0  0
M  END
