188

C         -1.01550       -8.33360       -2.80220
C         -1.02980       -8.48600       -4.14310
C         -0.87430       -7.36020       -5.10880
O         -0.82340       -6.17410       -4.86570
C         -0.65520       -7.99320       -6.41980
C         -0.39890       -7.34020       -7.62520
C         -0.18250       -8.18520       -8.68600
C         -0.21470       -9.58200       -8.56120
C         -0.46850      -10.23990       -7.38220
C         -0.69260       -9.39720       -6.28720
C         -0.97890       -9.72980       -4.89780
C         -1.24770      -10.97470       -4.40070
C         -1.62160      -11.23670       -3.06410
N         -1.95400      -11.52460       -2.00410
C         -1.23100      -12.16160       -5.16420
N         -1.23060      -13.16120       -5.72820
C          0.11390       -9.79930      -10.01690
C          1.56810      -10.20360      -10.34040
C          1.71590       -9.87730      -11.80910
C          1.74490       -8.55600      -11.92790
C          1.61730       -7.96700      -10.54160
C          2.35850       -9.03830       -9.73110
C          0.14800       -8.24340      -10.15640
C         -1.21740       -7.05610       -2.15470
C         -0.39100       -6.60370       -1.14910
F          0.64740       -7.35910       -0.76060
C         -0.53660       -5.33260       -0.57200
F          0.40630       -4.96160        0.30090
C         -1.56220       -4.48350       -0.94100
C         -2.50830       -4.97680       -1.88240
N         -3.59860       -4.24790       -2.16920
C         -4.43770       -4.66780       -3.08080
C         -5.58530       -3.75530       -3.38530
C         -5.19250       -2.80110       -4.51700
C         -4.22910       -5.91520       -3.73660
N         -3.20990       -6.67170       -3.41610
C         -2.32230       -6.23310       -2.51140
C         -5.18370       -6.49060       -4.73820
C         -6.25670       -7.31970       -4.02710
C         -1.63610       -3.10650       -0.45330
C         -1.88640       -2.04110       -1.29550
F         -2.07790       -2.21370       -2.61470
C         -1.81490       -0.71780       -0.84690
F         -2.03600        0.25820       -1.74610
C         -1.39920       -0.39230        0.42830
C         -1.17890       -1.46330        1.32830
N         -0.78790       -1.19730        2.59510
C         -0.64850       -2.20560        3.41670
O         -0.23950       -2.01690        4.66430
C          0.09910       -0.68270        5.03640
C          0.41450       -0.66470        6.52040
C         -0.96890       -3.55360        3.02750
N         -1.30540       -3.81050        1.80150
C         -1.36760       -2.80080        0.90530
C         -0.92700       -4.65620        4.02370
C         -1.10600        0.98640        0.79230
C          0.13200        1.49000        1.14650
N          1.30390        0.76140        1.20800
C          2.31280        1.12950        2.10340
C          3.65440        0.95990        1.75560
C          4.65180        1.31350        2.63510
C          4.33960        1.84330        3.88580
S          5.69310        2.27950        4.93260
C          4.96160        2.26960        6.59530
C          3.00850        2.02240        4.23490
C          2.00570        1.67240        3.35040
C          1.50350       -0.31570        0.32550
C          2.04050       -1.51860        0.78170
C          2.17230       -2.58880       -0.07430
C          1.76200       -2.48790       -1.40300
S          1.89130       -3.94250       -2.39600
C          0.87040       -3.57300       -3.84990
C          1.28260       -1.27380       -1.87610
C          1.15870       -0.19870       -1.01760
C          0.05630        2.89030        1.35260
S          1.22330        4.10270        1.72340
C         -0.01140        5.36560        1.61160
C         -1.26430        4.84040        1.25670
N         -2.43130        5.54190        1.11260
C         -2.43770        6.85430        0.62440
C         -3.24680        7.82790        1.20980
C         -3.15080        9.14050        0.80200
C         -2.24340        9.50610       -0.18880
S         -2.06020       11.21930       -0.56930
C         -0.27550       11.31590       -0.91220
C         -1.50140        8.52510       -0.83590
C         -1.60280        7.20880       -0.43530
C         -3.63400        4.96240        1.55960
C         -4.80250        5.11350        0.81540
C         -5.97650        4.54710        1.25750
C         -6.00680        3.81770        2.44590
S         -7.56760        3.13670        2.90340
C         -7.22170        2.23880        4.44290
C         -4.84410        3.67650        3.19250
C         -3.66650        4.24920        2.75410
C         -1.20200        3.42920        1.14710
S         -2.34230        2.21580        0.67960
C          0.36330        6.69780        1.84460
C          1.42860        7.14610        2.57770
C          2.00880        8.47750        2.29670
O          1.53260        9.34300        1.58860
C          3.30700        8.49330        3.00160
C          4.30190        9.46550        2.93200
C          5.42830        9.16850        3.66330
C          5.56310        7.99020        4.40840
C          4.58640        7.02590        4.49610
C          3.43300        7.31280        3.76450
C          2.20520        6.53470        3.62030
C          1.76040        5.57940        4.50420
C          0.47640        5.00440        4.45900
N         -0.57140        4.53260        4.49950
C          2.47490        5.16420        5.63870
N          2.98790        4.79020        6.59770
C          6.95930        8.33850        4.85940
C          8.11680        7.61280        4.14130
C          9.32140        8.47790        4.43340
C          9.19470        9.59670        3.73150
C          7.90220        9.50650        2.95250
C          7.86510        7.99760        2.67760
C          6.80860        9.65500        4.03170
H         -0.84440       -9.18000       -2.14920
H         -0.38110       -6.26270       -7.67690
H         -0.48440      -11.31380       -7.29940
H         -0.62130      -10.35920      -10.59140
H          1.83950      -11.20950      -10.03250
H          1.72870      -10.61550      -12.58920
H          1.78690       -7.97000      -12.82720
H          1.93450       -6.93520      -10.41690
H          2.24430       -8.93840       -8.65330
H          3.41690       -9.08420       -9.98170
H         -0.56480       -7.76360      -10.82440
H         -6.47430       -4.32120       -3.66240
H         -5.79970       -3.17160       -2.48940
H         -4.95430       -3.35090       -5.42510
H         -4.31760       -2.22610       -4.22620
H         -6.00930       -2.11560       -4.72830
H         -5.64970       -5.70010       -5.32560
H         -4.61860       -7.14130       -5.40730
H         -6.94210       -7.74780       -4.75420
H         -5.79060       -8.12760       -3.46860
H         -6.82600       -6.70610       -3.33220
H          0.96530       -0.36430        4.44620
H         -0.74080       -0.02180        4.79620
H         -0.44960       -0.98770        7.09460
H          0.68350        0.34370        6.82100
H          1.24370       -1.33330        6.73530
H         -1.23640       -5.58400        3.55290
H         -1.57870       -4.42600        4.86460
H          0.08530       -4.75930        4.41090
H          3.90610        0.54960        0.78930
H          5.68810        1.18600        2.36290
H          4.31830        3.13520        6.73440
H          4.41550        1.34230        6.73930
H          5.79970        2.31950        7.28340
H          2.73880        2.43510        5.19380
H          0.97470        1.82220        3.63450
H          2.33930       -1.61070        1.81530
H          2.57080       -3.52520        0.28180
H          0.66840       -4.52820       -4.32530
H          1.40930       -2.92110       -4.53170
H         -0.06840       -3.12910       -3.53980
H          1.00350       -1.15180       -2.91060
H          0.78380        0.74280       -1.39260
H         -3.91590        7.55430        2.01140
H         -3.74880        9.90390        1.27470
H         -0.06350       10.98450       -1.92460
H         -0.00990       12.36320       -0.80860
H          0.26070       10.71940       -0.17940
H         -0.83430        8.78350       -1.64230
H         -1.01380        6.44730       -0.92540
H         -4.78050        5.67270       -0.10780
H         -6.88510        4.65630        0.68580
H         -6.89280        2.93110        5.21240
H         -6.48140        1.46510        4.26200
H         -8.16450        1.78640        4.73430
H         -4.84000        3.13420        4.12370
H         -2.77020        4.15890        3.34980
H         -0.18010        7.47580        1.32240
H          4.16560       10.36010        2.34460
H          4.70180        6.11500        5.06070
H          7.10600        8.41310        5.93520
H          8.20420        6.55480        4.37300
H         10.08850        8.21990        5.13990
H          9.83420       10.45990        3.73460
H          7.79670       10.17400        2.10130
H          6.91600        7.64080        2.28220
H          8.67490        7.67840        2.02360
H          6.85400       10.60770        4.55630
