229

C          1.00190       -4.62400       -5.79880
C          2.16810       -5.25560       -6.16770
C          3.31590       -5.48240       -5.27360
O          3.41300       -5.15240       -4.10560
C          4.25770       -6.32600       -6.04140
C          5.51200       -6.77350       -5.63770
C          6.17650       -7.51320       -6.58780
C          5.62330       -7.81600       -7.83770
C          4.38260       -7.38910       -8.24660
C          3.70380       -6.61310       -7.30450
C          2.41550       -5.93620       -7.40780
C          1.66120       -5.80430       -8.54910
C          1.95690       -6.41340       -9.78190
N          2.14230       -6.85810      -10.82550
C          0.54580       -4.95050       -8.65790
N         -0.33190       -4.23200       -8.84290
C          6.83840       -8.59370       -8.27940
C          7.78040       -7.88710       -9.27620
C          9.08320       -8.64140       -9.14380
C          9.61200       -8.32950       -7.96740
C          8.67310       -7.36160       -7.28370
C          8.13510       -6.60860       -8.50740
C          7.46390       -8.23860       -6.89230
C          0.85720       -3.64290       -4.81320
C          1.76570       -2.72000       -4.25690
N          3.08290       -2.52480       -4.58640
C          3.95680       -2.10460       -3.56260
C          3.87000       -2.67870       -2.29830
C          4.74780       -2.31220       -1.29900
C          5.73500       -1.37100       -1.55550
S          6.96120       -0.90870       -0.37350
C          6.33920       -1.58910        1.18930
C          5.81530       -0.78320       -2.81590
C          4.93030       -1.13900       -3.80930
C          3.60500       -2.78340       -5.85510
C          2.84690       -2.58290       -7.00760
C          3.34580       -2.91290       -8.25250
C          4.62250       -3.44860       -8.37400
S          5.33470       -4.00390       -9.88480
C          4.07340       -3.64480      -11.13710
C          5.40960       -3.58780       -7.23110
C          4.91050       -3.26640       -5.99110
C          1.11160       -1.89090       -3.31530
S          1.62650       -0.54790       -2.34200
C         -0.01910       -0.30750       -1.77790
C         -0.88820       -1.29280       -2.24100
N         -2.19470       -1.48090       -1.79820
C         -2.46150       -1.38280       -0.42720
C         -1.47530       -1.71830        0.49790
C         -1.63540       -1.44830        1.84200
C         -2.80080       -0.84630        2.29530
S         -3.06930       -0.35730        3.97130
C         -1.44740       -0.57620        4.74720
C         -3.83040       -0.59630        1.38920
C         -3.66630       -0.85770        0.04750
C         -3.19920       -1.64030       -2.75930
C         -4.31220       -2.43870       -2.51830
C         -5.29270       -2.58870       -3.48010
C         -5.16540       -1.96080       -4.71160
S         -6.33970       -2.07990       -6.02120
C         -7.64850       -3.13780       -5.34190
C         -4.04290       -1.17490       -4.96290
C         -3.07900       -1.00550       -3.99680
C         -0.24300       -2.14760       -3.15770
S         -0.78640       -3.41120       -4.19170
C         -0.42890        0.76860       -0.93790
C          0.19970        1.37180        0.14010
N          1.52390        1.15930        0.52640
C          2.59820        1.56760       -0.24410
C          2.41850        2.21010       -1.47260
C          3.50580        2.60760       -2.21870
C          4.80010        2.40560       -1.75190
S          6.12300        2.92630       -2.80400
C          7.60240        2.73050       -1.76860
C          4.98580        1.81490       -0.51150
C          3.89940        1.38910        0.22420
C          1.72460        0.46340        1.75300
C          1.80460        1.13570        2.96340
C          1.92950        0.43390        4.14960
C          1.99680       -0.95380        4.13070
S          2.11800       -1.95690        5.57290
C          2.01830       -0.78460        6.95240
C          1.96700       -1.62650        2.90810
C          1.82770       -0.92460        1.73020
C         -0.70280        2.20650        0.84060
S         -0.62270        3.09720        2.31560
C         -2.30620        3.59270        2.15150
C         -2.91980        3.03110        1.03010
N         -4.25910        3.03740        0.72180
C         -4.63580        2.76780       -0.60710
C         -4.04740        3.45340       -1.66610
C         -4.38960        3.16120       -2.97380
C         -5.32640        2.17290       -3.24350
S         -5.84360        1.70800       -4.86090
C         -4.55850        2.40600       -5.93550
C         -5.93920        1.50480       -2.18340
C         -5.60420        1.79990       -0.88330
C         -5.27660        3.05170        1.69120
C         -5.10330        2.50660        2.96120
C         -6.14300        2.50230        3.86590
C         -7.38130        3.03990        3.52440
S         -8.64750        2.95460        4.75120
C        -10.01860        3.90670        4.03100
C         -7.56110        3.58380        2.25860
C         -6.51770        3.58900        1.35590
C         -1.96700        2.29460        0.27800
S         -2.05130        1.39650       -1.19080
C         -2.80130        4.42910        3.17920
C         -3.84440        5.34950        3.16820
O         -4.53630        5.61140        2.02410
C         -4.64730        6.98450        1.65220
C         -5.49310        7.04770        0.39260
C         -4.02720        5.97710        4.41730
O         -4.98630        6.90240        4.69150
C         -6.31610        6.37890        4.75120
C         -6.54360        5.57870        6.02510
C         -3.11610        5.56700        5.39350
S         -2.01580        4.39670        4.72650
C         -3.03660        6.08770        6.69730
C         -2.29740        5.64100        7.75570
C         -1.93210        6.56120        8.85950
O         -2.43390        7.63240        9.11840
C         -0.78600        5.91420        9.53760
C         -0.01500        6.43360       10.57460
C          0.99570        5.60100       10.99370
C          1.23270        4.34410       10.42160
C          0.47780        3.81570        9.40150
C         -0.55840        4.64490        8.96560
C         -1.59460        4.40110        7.96720
C         -2.00870        3.16440        7.52950
C         -3.26890        2.97410        6.92730
N         -4.32650        2.79470        6.51770
C         -1.27390        1.98100        7.67630
N         -0.68950        0.98990        7.70320
C          2.39810        4.05800       11.33600
C          2.13100        3.08840       12.50670
C          3.25590        3.37220       13.47590
C          3.02890        4.56070       14.02040
C          1.74660        5.10020       13.42880
C          0.97490        3.78890       13.23210
C          2.13100        5.45750       11.97730
H          0.08390       -4.91070       -6.29920
H          5.90130       -6.52890       -4.66160
H          3.96410       -7.63050       -9.20960
H          6.66990       -9.64200       -8.51900
H          7.37830       -7.77090      -10.27850
H          9.44780       -9.34330       -9.87090
H         10.50510       -8.71990       -7.51530
H          9.08790       -6.76940       -6.47210
H          7.27720       -5.97120       -8.30410
H          8.90800       -6.02750       -9.00760
H          7.72870       -9.04910       -6.21530
H          3.13880       -3.45130       -2.11880
H          4.66790       -2.78920       -0.33560
H          6.98520       -1.18750        1.96390
H          5.31660       -1.25970        1.34890
H          6.40900       -2.67300        1.18090
H          6.57940       -0.04870       -3.01440
H          4.99600       -0.67660       -4.78260
H          1.85040       -2.17380       -6.93370
H          2.71960       -2.75910       -9.11670
H          4.51080       -3.94900      -12.08290
H          3.86000       -2.58010      -11.15380
H          3.17770       -4.22890      -10.94800
H          6.41210       -3.97500       -7.32760
H          5.51830       -3.41290       -5.11190
H         -0.55940       -2.17860        0.15900
H         -0.83760       -1.70300        2.52040
H         -1.54950       -0.19330        5.75860
H         -1.18190       -1.62900        4.78010
H         -0.70410        0.00260        4.20540
H         -4.75030       -0.16290        1.75200
H         -4.44900       -0.60710       -0.65130
H         -4.40720       -2.95180       -1.57290
H         -6.14400       -3.21150       -3.25740
H         -7.24940       -4.12030       -5.10730
H         -8.08830       -2.66850       -4.46680
H         -8.39290       -3.22160       -6.12760
H         -3.94490       -0.69760       -5.92530
H         -2.22360       -0.37460       -4.19000
H          1.42260        2.40800       -1.83850
H          3.35950        3.08850       -3.17380
H          7.50810        3.34220       -0.87630
H          8.43060        3.08560       -2.37410
H          7.75210        1.68460       -1.51390
H          5.97270        1.67530       -0.10420
H          4.06090        0.92980        1.18810
H          1.76930        2.21420        2.97970
H          1.96580        0.97900        5.07860
H          1.07410       -0.24810        6.92650
H          2.06650       -1.39540        7.84880
H          2.86770       -0.10790        6.92480
H          2.04290       -2.70350        2.90180
H          1.80180       -1.44030        0.78150
H         -3.31760        4.22320       -1.46080
H         -3.92100        3.71430       -3.77180
H         -4.65060        3.48720       -5.98540
H         -4.73520        1.97840       -6.91760
H         -3.58130        2.10800       -5.56830
H         -6.67170        0.74260       -2.40110
H         -6.07840        1.27550       -0.06770
H         -4.16550        2.05660        3.24440
H         -5.99610        2.07770        4.84580
H         -9.68930        4.91580        3.80050
H        -10.40300        3.40510        3.14770
H        -10.78670        3.93570        4.79760
H         -8.50730        4.00700        1.96080
H         -6.66400        4.01780        0.37610
H         -3.64160        7.38590        1.46300
H         -5.10640        7.57030        2.45490
H         -6.49460        6.67960        0.59790
H         -5.55450        8.07430        0.04340
H         -5.04980        6.43010       -0.38440
H         -6.51550        5.76020        3.86730
H         -6.95650        7.26450        4.72760
H         -6.30180        6.18560        6.89440
H         -5.92030        4.68670        6.03610
H         -7.58350        5.27350        6.08700
H         -3.56990        7.02090        6.84810
H         -0.22630        7.40650       10.98970
H          0.66670        2.85000        8.96070
H          3.35520        3.88340       10.84780
H          1.98490        2.05170       12.21520
H          4.10160        2.72560       13.61990
H          3.64710        5.10510       14.71000
H          1.25100        5.89610       13.97820
H          0.07170        3.89050       12.63340
H          0.73200        3.30890       14.17860
H          2.91050        6.21500       11.91810
