178

C          1.36680        7.26800       -2.77890
C          2.37730        7.80440       -2.05200
C          3.30050        7.00690       -1.18970
O          3.35840        5.80120       -1.07760
C          4.05090        7.98940       -0.39490
C          5.00960        7.70550        0.57620
C          5.53320        8.82030        1.18320
C          5.14240       10.12370        0.84340
C          4.20290       10.41670       -0.11630
C          3.64600        9.29560       -0.74110
C          2.62850        9.21120       -1.78300
C          2.05340       10.26700       -2.43800
C          2.33350       11.62310       -2.16890
N          2.50710       12.74470       -1.99500
C          1.11120       10.14990       -3.48250
N          0.34900       10.14140       -4.34090
C          6.07430       10.74920        1.85190
C          5.45910       11.28890        3.16660
C          4.19570       10.49920        3.40100
C          4.54740        9.26180        3.72400
C          6.05440        9.19220        3.71690
C          6.39170       10.61620        4.18710
C          6.49890        9.29670        2.23640
C          1.24650        5.85320       -3.02140
C          2.32290        5.05190       -3.36890
F          3.48150        5.61250       -3.73600
C          2.24630        3.65760       -3.39850
F          3.33710        3.00210       -3.81100
C          1.09600        2.97540       -3.02140
C         -0.07530        3.78390       -2.89860
N         -1.26070        3.17730       -2.78270
C         -2.35860        3.88270       -2.66140
C         -3.64260        3.11490       -2.65680
C         -4.18740        3.01990       -4.08430
C         -2.28170        5.30290       -2.60460
N         -1.12770        5.91740       -2.70900
C         -0.00870        5.19850       -2.89000
C         -3.47460        6.17880       -2.37190
C         -3.72990        6.33240       -0.86990
C          1.01450        1.58250       -2.67680
C          2.01930        0.74290       -2.20650
N          3.37810        1.06920       -2.02900
C          3.74350        1.82670       -0.91260
C          5.01380        1.68770       -0.34210
C          5.40050        2.47410        0.71850
C          4.52460        3.40750        1.26660
S          5.15460        4.42600        2.56890
C          3.69110        5.31210        3.17580
C          3.23350        3.48570        0.77330
C          2.84820        2.69860       -0.29420
C          4.30950        0.57270       -2.95190
C          4.03750       -0.56530       -3.71310
C          4.94780       -1.02930       -4.63740
C          6.15280       -0.36660       -4.84460
S          7.24630       -1.06670       -6.04290
C          8.62160        0.11530       -6.12190
C          6.41470        0.78990       -4.12330
C          5.50270        1.25390       -3.19850
C          1.49480       -0.50520       -1.81930
S          2.18170       -1.89990       -1.05820
C          0.60190       -2.67400       -1.02930
C         -0.40710       -1.85380       -1.52390
N         -1.76470       -2.11790       -1.48650
C         -2.33250       -2.83560       -0.42380
C         -3.37420       -3.73550       -0.66010
C         -3.86810       -4.51150        0.36400
C         -3.33320       -4.41560        1.64750
S         -3.99650       -5.50550        2.86750
C         -3.29530       -4.87960        4.41740
C         -2.32100       -3.49830        1.89580
C         -1.83640       -2.70930        0.87130
C         -2.58380       -1.60340       -2.50000
C         -2.14040       -1.57040       -3.82250
C         -2.95470       -1.07440       -4.81560
C         -4.23280       -0.61030       -4.51560
S         -5.20190       -0.00950       -5.86580
C         -6.89880       -0.05560       -5.21660
C         -4.67390       -0.62870       -3.19920
C         -3.85490       -1.11940       -2.20200
C          0.12550       -0.62940       -1.99720
S         -0.57060        0.83820       -2.59900
C          0.50010       -3.97390       -0.45400
C          1.23170       -4.46530        0.59940
C          0.81670       -5.73080        1.04650
S          1.74470       -6.47450        2.31630
C          1.58310       -8.27490        2.09330
C          1.94640       -8.74240        0.69820
C         -0.27890       -6.22290        0.33410
S         -0.62550       -5.16440       -1.02910
C         -1.18000       -7.28460        0.50860
C         -1.56640       -7.87330        1.68610
C         -1.33960       -7.31510        3.02800
O         -0.70580       -6.31220        3.31650
C         -2.12220       -8.15410        3.95600
C         -2.22540       -8.00880        5.33680
C         -3.08610       -8.89990        5.93160
C         -3.79250       -9.86820        5.20710
C         -3.69000      -10.03170        3.84640
C         -2.81890       -9.13520        3.22260
C         -2.44330       -9.01740        1.81720
C         -2.76590       -9.90130        0.81990
C         -2.24970       -9.84640       -0.49140
N         -1.83380       -9.88640       -1.56150
C         -3.60800      -11.01940        0.98490
N         -4.28730      -11.94310        1.04850
C         -4.47600      -10.40680        6.43890
C         -5.95200      -10.00730        6.67990
C         -6.15670       -8.67900        5.99490
C         -5.49140       -7.76250        6.68470
C         -4.82020       -8.45430        7.84500
C         -5.85990       -9.54630        8.14360
C         -3.68870       -9.32740        7.24700
H          0.54870        7.87800       -3.13630
H          5.29700        6.68890        0.79640
H          3.91200       11.42370       -0.36490
H          6.83570       11.41190        1.44620
H          5.36450       12.37040        3.21070
H          3.20690       10.89370        3.25640
H          3.90750        8.41770        3.90380
H          6.49900        8.36360        4.26180
H          7.44020       10.87920        4.05590
H          6.09190       10.80230        5.21730
H          7.53960        9.01190        2.09740
H         -4.37650        3.59250       -2.00780
H         -3.43750        2.10830       -2.28980
H         -5.13810        2.49530       -4.08560
H         -3.49060        2.47140       -4.71240
H         -4.33750        4.00760       -4.51470
H         -4.35750        5.76590       -2.85860
H         -3.26050        7.15950       -2.79750
H         -2.86290        6.77940       -0.38990
H         -3.92070        5.36730       -0.40480
H         -4.59010        6.97520       -0.70200
H          5.69700        0.94780       -0.72890
H          6.39030        2.37030        1.13700
H          2.93300        4.59960        3.48780
H          4.03310        5.88490        4.03230
H          3.31150        5.98100        2.40780
H          2.51140        4.16670        1.19290
H          1.83260        2.78810       -0.64370
H          3.10850       -1.09850       -3.59620
H          4.72880       -1.91540       -5.21330
H          9.12890        0.16190       -5.16260
H          9.29770       -0.27270       -6.87750
H          8.25300        1.09180       -6.42220
H          7.31990        1.35380       -4.28000
H          5.70690        2.18050       -2.68630
H         -3.77020       -3.84070       -1.65850
H         -4.66090       -5.21950        0.17720
H         -3.56910       -3.83660        4.54710
H         -3.73810       -5.48520        5.20180
H         -2.21660       -5.01400        4.40840
H         -1.88850       -3.39720        2.87710
H         -1.04850       -1.99990        1.07720
H         -1.16240       -1.95500       -4.06890
H         -2.61620       -1.05630       -5.83990
H         -7.05760        0.74330       -4.49760
H         -7.54590        0.09410       -6.07510
H         -7.09060       -1.02710       -4.77170
H         -5.65130       -0.25750       -2.93510
H         -4.20220       -1.12770       -1.17940
H          2.02320       -3.91380        1.07500
H          2.28250       -8.67100        2.83060
H          0.57240       -8.57950        2.37140
H          1.23200       -8.38190       -0.03840
H          1.94230       -9.83000        0.66850
H          2.93810       -8.38970        0.42480
H         -1.70390       -7.57900       -0.39330
H         -1.65850       -7.25540        5.86220
H         -4.23950      -10.78080        3.30110
H         -4.28700      -11.45350        6.66920
H         -6.67410      -10.78440        6.44400
H         -6.69920       -8.55340        5.07640
H         -5.37950       -6.71760        6.46050
H         -4.51150       -7.81810        8.67090
H         -5.49570      -10.31890        8.81960
H         -6.79910       -9.14240        8.51860
H         -2.98690       -9.67060        8.00510
