
  xtb     02092205373D
 energy: -342.324342537628 gnorm: 0.000493887081 xtb: 6.4.1 (unknown)
203222  0     0  0            999 V2000
   -4.5417   -4.2357   -1.2509 C   0  0  0  0  0  0  0  0  0  0  0  0
   -5.7453   -3.8498   -1.7964 C   0  0  0  0  0  0  0  0  0  0  0  0
   -6.2897   -2.4887   -1.8952 C   0  0  0  0  0  0  0  0  0  0  0  0
   -6.0508   -1.5278   -1.1825 O   0  0  0  0  0  0  0  0  0  0  0  0
   -7.2512   -2.5126   -3.0114 C   0  0  0  0  0  0  0  0  0  0  0  0
   -7.9101   -1.4258   -3.5799 C   0  0  0  0  0  0  0  0  0  0  0  0
   -8.7555   -1.7646   -4.6093 C   0  0  0  0  0  0  0  0  0  0  0  0
   -8.9293   -3.0844   -5.0459 C   0  0  0  0  0  0  0  0  0  0  0  0
   -8.2816   -4.1659   -4.4953 C   0  0  0  0  0  0  0  0  0  0  0  0
   -7.4215   -3.8432   -3.4439 C   0  0  0  0  0  0  0  0  0  0  0  0
   -6.5913   -4.7022   -2.6025 C   0  0  0  0  0  0  0  0  0  0  0  0
   -6.6979   -6.0670   -2.5027 C   0  0  0  0  0  0  0  0  0  0  0  0
   -7.5120   -6.8647   -3.3306 C   0  0  0  0  0  0  0  0  0  0  0  0
   -8.1406   -7.5697   -3.9840 N   0  0  0  0  0  0  0  0  0  0  0  0
   -6.1302   -6.8193   -1.4596 C   0  0  0  0  0  0  0  0  0  0  0  0
   -5.7925   -7.4764   -0.5792 N   0  0  0  0  0  0  0  0  0  0  0  0
   -9.9262   -2.6866   -6.1053 C   0  0  0  0  0  0  0  0  0  0  0  0
  -11.4245   -2.9515   -5.8172 C   0  0  0  0  0  0  0  0  0  0  0  0
  -11.5805   -2.9420   -4.3167 C   0  0  0  0  0  0  0  0  0  0  0  0
  -11.4178   -1.6931   -3.9009 C   0  0  0  0  0  0  0  0  0  0  0  0
  -11.1485   -0.8355   -5.1126 C   0  0  0  0  0  0  0  0  0  0  0  0
  -12.0033   -1.5691   -6.1584 C   0  0  0  0  0  0  0  0  0  0  0  0
   -9.7342   -1.2161   -5.6168 C   0  0  0  0  0  0  0  0  0  0  0  0
   -3.5718   -3.4488   -0.6189 C   0  0  0  0  0  0  0  0  0  0  0  0
   -2.2082   -3.8003   -0.4583 C   0  0  0  0  0  0  0  0  0  0  0  0
   -1.6107   -4.9788   -0.8408 N   0  0  0  0  0  0  0  0  0  0  0  0
   -0.3022   -4.9007   -1.3559 C   0  0  0  0  0  0  0  0  0  0  0  0
   -0.0053   -3.9581   -2.3358 C   0  0  0  0  0  0  0  0  0  0  0  0
    1.2728   -3.8485   -2.8456 C   0  0  0  0  0  0  0  0  0  0  0  0
    2.2754   -4.6900   -2.3842 C   0  0  0  0  0  0  0  0  0  0  0  0
    3.9343   -4.6571   -2.9727 S   0  0  0  0  0  0  0  0  0  0  0  0
    3.9116   -3.3898   -4.2761 C   0  0  0  0  0  0  0  0  0  0  0  0
    1.9820   -5.6370   -1.4042 C   0  0  0  0  0  0  0  0  0  0  0  0
    0.7076   -5.7439   -0.8947 C   0  0  0  0  0  0  0  0  0  0  0  0
   -2.1595   -6.2413   -0.5777 C   0  0  0  0  0  0  0  0  0  0  0  0
   -2.9121   -6.4718    0.5712 C   0  0  0  0  0  0  0  0  0  0  0  0
   -3.4168   -7.7275    0.8353 C   0  0  0  0  0  0  0  0  0  0  0  0
   -3.1812   -8.7753   -0.0483 C   0  0  0  0  0  0  0  0  0  0  0  0
   -3.7801  -10.4093    0.2066 S   0  0  0  0  0  0  0  0  0  0  0  0
   -5.2037  -10.1468    1.3029 C   0  0  0  0  0  0  0  0  0  0  0  0
   -2.4173   -8.5494   -1.1914 C   0  0  0  0  0  0  0  0  0  0  0  0
   -1.9127   -7.2967   -1.4565 C   0  0  0  0  0  0  0  0  0  0  0  0
   -1.4652   -2.7213    0.0510 C   0  0  0  0  0  0  0  0  0  0  0  0
    0.2176   -2.4713    0.4263 S   0  0  0  0  0  0  0  0  0  0  0  0
   -0.1259   -0.8158    0.9011 C   0  0  0  0  0  0  0  0  0  0  0  0
   -1.4822   -0.5266    0.8594 C   0  0  0  0  0  0  0  0  0  0  0  0
   -1.9984    0.6775    1.3332 N   0  0  0  0  0  0  0  0  0  0  0  0
   -3.0928    1.2051    0.6377 C   0  0  0  0  0  0  0  0  0  0  0  0
   -4.2254    1.6763    1.2956 C   0  0  0  0  0  0  0  0  0  0  0  0
   -5.3359    2.0557    0.5699 C   0  0  0  0  0  0  0  0  0  0  0  0
   -5.3326    1.9582   -0.8142 C   0  0  0  0  0  0  0  0  0  0  0  0
   -6.7876    2.3375   -1.7563 S   0  0  0  0  0  0  0  0  0  0  0  0
   -8.0013    1.3181   -0.8582 C   0  0  0  0  0  0  0  0  0  0  0  0
   -4.1823    1.5573   -1.4784 C   0  0  0  0  0  0  0  0  0  0  0  0
   -3.0678    1.1898   -0.7567 C   0  0  0  0  0  0  0  0  0  0  0  0
   -1.7910    0.9366    2.7013 C   0  0  0  0  0  0  0  0  0  0  0  0
   -1.7084   -0.1211    3.6043 C   0  0  0  0  0  0  0  0  0  0  0  0
   -1.4848    0.1115    4.9437 C   0  0  0  0  0  0  0  0  0  0  0  0
   -1.3334    1.4127    5.4015 C   0  0  0  0  0  0  0  0  0  0  0  0
   -1.0074    1.7618    7.1083 S   0  0  0  0  0  0  0  0  0  0  0  0
   -2.0037    0.4893    7.9476 C   0  0  0  0  0  0  0  0  0  0  0  0
   -1.4074    2.4744    4.5054 C   0  0  0  0  0  0  0  0  0  0  0  0
   -1.6406    2.2414    3.1649 C   0  0  0  0  0  0  0  0  0  0  0  0
   -2.2327   -1.6028    0.3513 C   0  0  0  0  0  0  0  0  0  0  0  0
   -3.8921   -1.8052   -0.0489 S   0  0  0  0  0  0  0  0  0  0  0  0
    0.9022    0.1441    1.0311 C   0  0  0  0  0  0  0  0  0  0  0  0
    2.2661   -0.0956    1.1567 C   0  0  0  0  0  0  0  0  0  0  0  0
    2.7258   -1.3072    1.6613 N   0  0  0  0  0  0  0  0  0  0  0  0
    2.2181   -1.6296    2.9370 C   0  0  0  0  0  0  0  0  0  0  0  0
    2.0514   -0.6122    3.8753 C   0  0  0  0  0  0  0  0  0  0  0  0
    1.5295   -0.8778    5.1220 C   0  0  0  0  0  0  0  0  0  0  0  0
    1.1642   -2.1755    5.4523 C   0  0  0  0  0  0  0  0  0  0  0  0
    0.4583   -2.5685    7.0290 S   0  0  0  0  0  0  0  0  0  0  0  0
    1.3216   -1.4052    8.1320 C   0  0  0  0  0  0  0  0  0  0  0  0
    1.3229   -3.1964    4.5209 C   0  0  0  0  0  0  0  0  0  0  0  0
    1.8499   -2.9298    3.2728 C   0  0  0  0  0  0  0  0  0  0  0  0
    3.8459   -1.9340    1.1209 C   0  0  0  0  0  0  0  0  0  0  0  0
    4.6866   -2.7213    1.9085 C   0  0  0  0  0  0  0  0  0  0  0  0
    5.7912   -3.3247    1.3533 C   0  0  0  0  0  0  0  0  0  0  0  0
    6.0975   -3.1472    0.0058 C   0  0  0  0  0  0  0  0  0  0  0  0
    7.5615   -3.9458   -0.5712 S   0  0  0  0  0  0  0  0  0  0  0  0
    7.5301   -3.6800   -2.3654 C   0  0  0  0  0  0  0  0  0  0  0  0
    5.2687   -2.3593   -0.7800 C   0  0  0  0  0  0  0  0  0  0  0  0
    4.1478   -1.7703   -0.2290 C   0  0  0  0  0  0  0  0  0  0  0  0
    3.0183    1.0663    0.8836 C   0  0  0  0  0  0  0  0  0  0  0  0
    4.7037    1.4495    0.8567 S   0  0  0  0  0  0  0  0  0  0  0  0
    4.3259    3.1275    0.4681 C   0  0  0  0  0  0  0  0  0  0  0  0
    2.9513    3.3838    0.4510 C   0  0  0  0  0  0  0  0  0  0  0  0
    2.3316    4.6059    0.3352 N   0  0  0  0  0  0  0  0  0  0  0  0
    1.0385    4.6360   -0.2216 C   0  0  0  0  0  0  0  0  0  0  0  0
    0.7935    3.9914   -1.4348 C   0  0  0  0  0  0  0  0  0  0  0  0
   -0.4721    3.9900   -1.9745 C   0  0  0  0  0  0  0  0  0  0  0  0
   -1.5223    4.6325   -1.3196 C   0  0  0  0  0  0  0  0  0  0  0  0
   -3.0900    4.5796   -2.1199 S   0  0  0  0  0  0  0  0  0  0  0  0
   -4.2449    5.2108   -0.8744 C   0  0  0  0  0  0  0  0  0  0  0  0
   -1.2769    5.2863   -0.1180 C   0  0  0  0  0  0  0  0  0  0  0  0
   -0.0068    5.2878    0.4246 C   0  0  0  0  0  0  0  0  0  0  0  0
    2.8568    5.7651    0.9275 C   0  0  0  0  0  0  0  0  0  0  0  0
    3.6266    5.6960    2.0843 C   0  0  0  0  0  0  0  0  0  0  0  0
    4.1806    6.8345    2.6311 C   0  0  0  0  0  0  0  0  0  0  0  0
    3.9780    8.0666    2.0224 C   0  0  0  0  0  0  0  0  0  0  0  0
    4.6831    9.5699    2.6065 S   0  0  0  0  0  0  0  0  0  0  0  0
    5.9174    9.0148    3.8158 C   0  0  0  0  0  0  0  0  0  0  0  0
    3.1700    8.1468    0.8891 C   0  0  0  0  0  0  0  0  0  0  0  0
    2.6144    7.0109    0.3461 C   0  0  0  0  0  0  0  0  0  0  0  0
    2.2292    2.1845    0.6408 C   0  0  0  0  0  0  0  0  0  0  0  0
    0.5351    1.8319    0.7283 S   0  0  0  0  0  0  0  0  0  0  0  0
    5.4452    3.9526    0.1888 C   0  0  0  0  0  0  0  0  0  0  0  0
    5.4091    5.2044   -0.4732 C   0  0  0  0  0  0  0  0  0  0  0  0
    6.4721    5.9475   -0.5905 N   0  0  0  0  0  0  0  0  0  0  0  0
    7.6439    5.4989   -0.1057 C   0  0  0  0  0  0  0  0  0  0  0  0
    7.7127    4.1629    0.3441 C   0  0  0  0  0  0  0  0  0  0  0  0
    6.6443    3.4294    0.4936 N   0  0  0  0  0  0  0  0  0  0  0  0
    8.7842    6.3433   -0.2585 C   0  0  0  0  0  0  0  0  0  0  0  0
    9.9825    6.2763    0.3824 C   0  0  0  0  0  0  0  0  0  0  0  0
   11.1844    6.9091   -0.2236 C   0  0  0  0  0  0  0  0  0  0  0  0
   11.2150    7.6859   -1.1478 O   0  0  0  0  0  0  0  0  0  0  0  0
   12.3332    6.3341    0.5158 C   0  0  0  0  0  0  0  0  0  0  0  0
   13.6811    6.4979    0.2742 C   0  0  0  0  0  0  0  0  0  0  0  0
   14.5642    5.8215    1.1062 C   0  0  0  0  0  0  0  0  0  0  0  0
   16.4329    6.0082    0.8223 Br  0  0  0  0  0  0  0  0  0  0  0  0
   14.1169    5.0081    2.1394 C   0  0  0  0  0  0  0  0  0  0  0  0
   12.7600    4.8557    2.3807 C   0  0  0  0  0  0  0  0  0  0  0  0
   11.8596    5.5258    1.5659 C   0  0  0  0  0  0  0  0  0  0  0  0
   10.4009    5.5910    1.5863 C   0  0  0  0  0  0  0  0  0  0  0  0
    9.6087    5.2891    2.6641 C   0  0  0  0  0  0  0  0  0  0  0  0
   10.0860    4.7061    3.8549 C   0  0  0  0  0  0  0  0  0  0  0  0
   10.4259    4.2229    4.8391 N   0  0  0  0  0  0  0  0  0  0  0  0
    8.2460    5.6337    2.7452 C   0  0  0  0  0  0  0  0  0  0  0  0
    7.1561    5.9588    2.9051 N   0  0  0  0  0  0  0  0  0  0  0  0
   -4.2458   -5.2653   -1.4267 H   0  0  0  0  0  0  0  0  0  0  0  0
   -7.7397   -0.4211   -3.2269 H   0  0  0  0  0  0  0  0  0  0  0  0
   -8.4160   -5.1759   -4.8459 H   0  0  0  0  0  0  0  0  0  0  0  0
   -9.6530   -2.9230   -7.1318 H   0  0  0  0  0  0  0  0  0  0  0  0
  -11.8389   -3.8111   -6.3369 H   0  0  0  0  0  0  0  0  0  0  0  0
  -11.7303   -3.8261   -3.7251 H   0  0  0  0  0  0  0  0  0  0  0  0
  -11.4053   -1.3256   -2.8912 H   0  0  0  0  0  0  0  0  0  0  0  0
  -11.3122    0.2322   -4.9919 H   0  0  0  0  0  0  0  0  0  0  0  0
  -11.8016   -1.2545   -7.1814 H   0  0  0  0  0  0  0  0  0  0  0  0
  -13.0708   -1.4977   -5.9552 H   0  0  0  0  0  0  0  0  0  0  0  0
   -9.3367   -0.4903   -6.3236 H   0  0  0  0  0  0  0  0  0  0  0  0
   -0.7856   -3.3061   -2.7013 H   0  0  0  0  0  0  0  0  0  0  0  0
    1.4669   -3.1081   -3.6043 H   0  0  0  0  0  0  0  0  0  0  0  0
    3.6728   -2.4200   -3.8490 H   0  0  0  0  0  0  0  0  0  0  0  0
    4.9141   -3.3734   -4.6931 H   0  0  0  0  0  0  0  0  0  0  0  0
    3.2011   -3.6674   -5.0489 H   0  0  0  0  0  0  0  0  0  0  0  0
    2.7692   -6.2821   -1.0456 H   0  0  0  0  0  0  0  0  0  0  0  0
    0.4854   -6.4761   -0.1334 H   0  0  0  0  0  0  0  0  0  0  0  0
   -3.0947   -5.6606    1.2607 H   0  0  0  0  0  0  0  0  0  0  0  0
   -3.9884   -7.8825    1.7349 H   0  0  0  0  0  0  0  0  0  0  0  0
   -4.8707   -9.9819    2.3238 H   0  0  0  0  0  0  0  0  0  0  0  0
   -5.7753   -9.3053    0.9253 H   0  0  0  0  0  0  0  0  0  0  0  0
   -5.7917  -11.0577    1.2514 H   0  0  0  0  0  0  0  0  0  0  0  0
   -2.2365   -9.3659   -1.8731 H   0  0  0  0  0  0  0  0  0  0  0  0
   -1.3312   -7.1215   -2.3497 H   0  0  0  0  0  0  0  0  0  0  0  0
   -4.2449    1.7129    2.3748 H   0  0  0  0  0  0  0  0  0  0  0  0
   -6.2162    2.4040    1.0887 H   0  0  0  0  0  0  0  0  0  0  0  0
   -8.8774    1.2463   -1.4953 H   0  0  0  0  0  0  0  0  0  0  0  0
   -8.2714    1.7893    0.0821 H   0  0  0  0  0  0  0  0  0  0  0  0
   -7.5641    0.3375   -0.6918 H   0  0  0  0  0  0  0  0  0  0  0  0
   -4.1753    1.5230   -2.5561 H   0  0  0  0  0  0  0  0  0  0  0  0
   -2.1726    0.8627   -1.2647 H   0  0  0  0  0  0  0  0  0  0  0  0
   -1.8287   -1.1366    3.2575 H   0  0  0  0  0  0  0  0  0  0  0  0
   -1.4354   -0.7258    5.6208 H   0  0  0  0  0  0  0  0  0  0  0  0
   -1.5439   -0.4905    7.8601 H   0  0  0  0  0  0  0  0  0  0  0  0
   -3.0019    0.4858    7.5215 H   0  0  0  0  0  0  0  0  0  0  0  0
   -2.0433    0.7847    8.9913 H   0  0  0  0  0  0  0  0  0  0  0  0
   -1.2804    3.4823    4.8698 H   0  0  0  0  0  0  0  0  0  0  0  0
   -1.7049    3.0628    2.4668 H   0  0  0  0  0  0  0  0  0  0  0  0
    2.3401    0.3986    3.6287 H   0  0  0  0  0  0  0  0  0  0  0  0
    1.4147   -0.0699    5.8265 H   0  0  0  0  0  0  0  0  0  0  0  0
    0.9429   -0.3946    8.0097 H   0  0  0  0  0  0  0  0  0  0  0  0
    2.3861   -1.4465    7.9240 H   0  0  0  0  0  0  0  0  0  0  0  0
    1.1244   -1.7517    9.1416 H   0  0  0  0  0  0  0  0  0  0  0  0
    1.0293   -4.2011    4.7838 H   0  0  0  0  0  0  0  0  0  0  0  0
    1.9795   -3.7236    2.5528 H   0  0  0  0  0  0  0  0  0  0  0  0
    4.4770   -2.8474    2.9595 H   0  0  0  0  0  0  0  0  0  0  0  0
    6.4423   -3.9323    1.9628 H   0  0  0  0  0  0  0  0  0  0  0  0
    6.6136   -4.0961   -2.7729 H   0  0  0  0  0  0  0  0  0  0  0  0
    7.6268   -2.6216   -2.5899 H   0  0  0  0  0  0  0  0  0  0  0  0
    8.3879   -4.2185   -2.7559 H   0  0  0  0  0  0  0  0  0  0  0  0
    5.4851   -2.1979   -1.8231 H   0  0  0  0  0  0  0  0  0  0  0  0
    3.4953   -1.1728   -0.8493 H   0  0  0  0  0  0  0  0  0  0  0  0
    1.6050    3.4930   -1.9447 H   0  0  0  0  0  0  0  0  0  0  0  0
   -0.6668    3.4962   -2.9138 H   0  0  0  0  0  0  0  0  0  0  0  0
   -4.0839    6.2729   -0.7140 H   0  0  0  0  0  0  0  0  0  0  0  0
   -5.2343    5.0440   -1.2897 H   0  0  0  0  0  0  0  0  0  0  0  0
   -4.1323    4.6436    0.0448 H   0  0  0  0  0  0  0  0  0  0  0  0
   -2.0685    5.7976    0.4057 H   0  0  0  0  0  0  0  0  0  0  0  0
    0.1799    5.7927    1.3610 H   0  0  0  0  0  0  0  0  0  0  0  0
    3.7942    4.7442    2.5655 H   0  0  0  0  0  0  0  0  0  0  0  0
    4.7727    6.7422    3.5247 H   0  0  0  0  0  0  0  0  0  0  0  0
    6.5172    8.2196    3.3828 H   0  0  0  0  0  0  0  0  0  0  0  0
    6.5369    9.8815    4.0250 H   0  0  0  0  0  0  0  0  0  0  0  0
    5.4266    8.6854    4.7274 H   0  0  0  0  0  0  0  0  0  0  0  0
    3.0006    9.1088    0.4310 H   0  0  0  0  0  0  0  0  0  0  0  0
    2.0048    7.0759   -0.5432 H   0  0  0  0  0  0  0  0  0  0  0  0
    4.5100    5.5836   -0.9339 H   0  0  0  0  0  0  0  0  0  0  0  0
    8.6611    3.6725    0.5240 H   0  0  0  0  0  0  0  0  0  0  0  0
    8.7127    7.0705   -1.0601 H   0  0  0  0  0  0  0  0  0  0  0  0
   14.0260    7.1287   -0.5303 H   0  0  0  0  0  0  0  0  0  0  0  0
   14.8335    4.4917    2.7594 H   0  0  0  0  0  0  0  0  0  0  0  0
   12.4286    4.2162    3.1829 H   0  0  0  0  0  0  0  0  0  0  0  0
  1  2  2  0  0  0  0
  2  3  1  0  0  0  0
  3  4  2  0  0  0  0
  3  5  1  0  0  0  0
  5  6  2  0  0  0  0
  6  7  1  0  0  0  0
  7  8  2  0  0  0  0
  8  9  1  0  0  0  0
  9 10  2  0  0  0  0
 10 11  1  0  0  0  0
 11 12  2  0  0  0  0
 12 13  1  0  0  0  0
 13 14  3  0  0  0  0
 12 15  1  0  0  0  0
 15 16  3  0  0  0  0
  8 17  1  0  0  0  0
 17 18  1  0  0  0  0
 18 19  1  0  0  0  0
 19 20  2  0  0  0  0
 20 21  1  0  0  0  0
 21 22  1  0  0  0  0
 21 23  1  0  0  0  0
  1 24  1  0  0  0  0
 24 25  2  0  0  0  0
 25 26  1  0  0  0  0
 26 27  1  0  0  0  0
 27 28  2  0  0  0  0
 28 29  1  0  0  0  0
 29 30  2  0  0  0  0
 30 31  1  0  0  0  0
 31 32  1  0  0  0  0
 30 33  1  0  0  0  0
 33 34  2  0  0  0  0
 26 35  1  0  0  0  0
 35 36  2  0  0  0  0
 36 37  1  0  0  0  0
 37 38  2  0  0  0  0
 38 39  1  0  0  0  0
 39 40  1  0  0  0  0
 38 41  1  0  0  0  0
 41 42  2  0  0  0  0
 25 43  1  0  0  0  0
 43 44  1  0  0  0  0
 44 45  1  0  0  0  0
 45 46  2  0  0  0  0
 46 47  1  0  0  0  0
 47 48  1  0  0  0  0
 48 49  2  0  0  0  0
 49 50  1  0  0  0  0
 50 51  2  0  0  0  0
 51 52  1  0  0  0  0
 52 53  1  0  0  0  0
 51 54  1  0  0  0  0
 54 55  2  0  0  0  0
 47 56  1  0  0  0  0
 56 57  2  0  0  0  0
 57 58  1  0  0  0  0
 58 59  2  0  0  0  0
 59 60  1  0  0  0  0
 60 61  1  0  0  0  0
 59 62  1  0  0  0  0
 62 63  2  0  0  0  0
 46 64  1  0  0  0  0
 64 65  1  0  0  0  0
 45 66  1  0  0  0  0
 66 67  2  0  0  0  0
 67 68  1  0  0  0  0
 68 69  1  0  0  0  0
 69 70  2  0  0  0  0
 70 71  1  0  0  0  0
 71 72  2  0  0  0  0
 72 73  1  0  0  0  0
 73 74  1  0  0  0  0
 72 75  1  0  0  0  0
 75 76  2  0  0  0  0
 68 77  1  0  0  0  0
 77 78  2  0  0  0  0
 78 79  1  0  0  0  0
 79 80  2  0  0  0  0
 80 81  1  0  0  0  0
 81 82  1  0  0  0  0
 80 83  1  0  0  0  0
 83 84  2  0  0  0  0
 67 85  1  0  0  0  0
 85 86  1  0  0  0  0
 86 87  1  0  0  0  0
 87 88  2  0  0  0  0
 88 89  1  0  0  0  0
 89 90  1  0  0  0  0
 90 91  2  0  0  0  0
 91 92  1  0  0  0  0
 92 93  2  0  0  0  0
 93 94  1  0  0  0  0
 94 95  1  0  0  0  0
 93 96  1  0  0  0  0
 96 97  2  0  0  0  0
 89 98  1  0  0  0  0
 98 99  2  0  0  0  0
 99100  1  0  0  0  0
100101  2  0  0  0  0
101102  1  0  0  0  0
102103  1  0  0  0  0
101104  1  0  0  0  0
104105  2  0  0  0  0
 88106  1  0  0  0  0
106107  1  0  0  0  0
 87108  1  0  0  0  0
108109  2  0  0  0  0
109110  1  0  0  0  0
110111  2  0  0  0  0
111112  1  0  0  0  0
112113  2  0  0  0  0
111114  1  0  0  0  0
114115  2  0  0  0  0
115116  1  0  0  0  0
116117  2  0  0  0  0
116118  1  0  0  0  0
118119  2  0  0  0  0
119120  1  0  0  0  0
120121  1  0  0  0  0
120122  2  0  0  0  0
122123  1  0  0  0  0
123124  2  0  0  0  0
124125  1  0  0  0  0
125126  2  0  0  0  0
126127  1  0  0  0  0
127128  3  0  0  0  0
126129  1  0  0  0  0
129130  3  0  0  0  0
 11  2  1  0  0  0  0
 23 17  1  0  0  0  0
 65 24  1  0  0  0  0
107 66  1  0  0  0  0
113108  1  0  0  0  0
125115  1  0  0  0  0
 10  5  1  0  0  0  0
 22 18  1  0  0  0  0
 34 27  1  0  0  0  0
 42 35  1  0  0  0  0
 64 43  2  0  0  0  0
 76 69  1  0  0  0  0
 84 77  1  0  0  0  0
106 85  2  0  0  0  0
124118  1  0  0  0  0
 23  7  1  0  0  0  0
 55 48  1  0  0  0  0
 63 56  1  0  0  0  0
 97 90  1  0  0  0  0
105 98  1  0  0  0  0
  1131  1  0  0  0  0
  6132  1  0  0  0  0
  9133  1  0  0  0  0
 17134  1  0  0  0  0
 18135  1  0  0  0  0
 19136  1  0  0  0  0
 20137  1  0  0  0  0
 21138  1  0  0  0  0
 22139  1  0  0  0  0
 22140  1  0  0  0  0
 23141  1  0  0  0  0
 28142  1  0  0  0  0
 29143  1  0  0  0  0
 32144  1  0  0  0  0
 32145  1  0  0  0  0
 32146  1  0  0  0  0
 33147  1  0  0  0  0
 34148  1  0  0  0  0
 36149  1  0  0  0  0
 37150  1  0  0  0  0
 40151  1  0  0  0  0
 40152  1  0  0  0  0
 40153  1  0  0  0  0
 41154  1  0  0  0  0
 42155  1  0  0  0  0
 49156  1  0  0  0  0
 50157  1  0  0  0  0
 53158  1  0  0  0  0
 53159  1  0  0  0  0
 53160  1  0  0  0  0
 54161  1  0  0  0  0
 55162  1  0  0  0  0
 57163  1  0  0  0  0
 58164  1  0  0  0  0
 61165  1  0  0  0  0
 61166  1  0  0  0  0
 61167  1  0  0  0  0
 62168  1  0  0  0  0
 63169  1  0  0  0  0
 70170  1  0  0  0  0
 71171  1  0  0  0  0
 74172  1  0  0  0  0
 74173  1  0  0  0  0
 74174  1  0  0  0  0
 75175  1  0  0  0  0
 76176  1  0  0  0  0
 78177  1  0  0  0  0
 79178  1  0  0  0  0
 82179  1  0  0  0  0
 82180  1  0  0  0  0
 82181  1  0  0  0  0
 83182  1  0  0  0  0
 84183  1  0  0  0  0
 91184  1  0  0  0  0
 92185  1  0  0  0  0
 95186  1  0  0  0  0
 95187  1  0  0  0  0
 95188  1  0  0  0  0
 96189  1  0  0  0  0
 97190  1  0  0  0  0
 99191  1  0  0  0  0
100192  1  0  0  0  0
103193  1  0  0  0  0
103194  1  0  0  0  0
103195  1  0  0  0  0
104196  1  0  0  0  0
105197  1  0  0  0  0
109198  1  0  0  0  0
112199  1  0  0  0  0
114200  1  0  0  0  0
119201  1  0  0  0  0
122202  1  0  0  0  0
123203  1  0  0  0  0
M  END
