173

C         -1.95180       -3.58130       -3.90090
C         -3.13660       -4.19510       -3.58380
C         -3.60310       -5.35510       -4.37500
O         -3.07330       -5.82870       -5.36100
C         -4.77350       -5.88800       -3.65200
C         -5.54500       -6.99630       -3.99510
C         -6.57600       -7.25440       -3.12420
C         -6.82790       -6.46520       -1.99470
C         -6.08350       -5.36150       -1.65080
C         -5.02370       -5.08920       -2.51840
C         -4.05770       -3.99280       -2.50180
C         -4.15010       -2.84800       -1.73940
C         -4.95990       -2.71460       -0.59950
N         -5.54600       -2.57730        0.37990
C         -3.47430       -1.66330       -2.07140
N         -2.98640       -0.65760       -2.34050
C         -8.01820       -7.29460       -1.58120
C         -7.80380       -8.29230       -0.42350
C         -8.95690       -9.25970       -0.56540
C         -8.72940      -10.00330       -1.64070
C         -7.41790       -9.55270       -2.24180
C         -6.66270       -9.16150       -0.96630
C         -7.74290       -8.17030       -2.84570
C         -1.06670       -2.82080       -3.11700
C         -0.81480       -2.77270       -1.73260
N         -1.38820       -3.59110       -0.78080
C         -1.71620       -4.92030       -1.08040
C         -2.80070       -5.54340       -0.45790
C         -3.17740       -6.81690       -0.82290
C         -2.50680       -7.48730       -1.84190
S         -3.14430       -9.04240       -2.36970
C         -2.50900       -9.17210       -4.06710
C         -1.37540       -6.90700       -2.40370
C         -0.97930       -5.64540       -2.01510
C         -1.53950       -3.13600        0.54420
C         -1.97670       -1.83820        0.81020
C         -2.23430       -1.44660        2.10430
C         -2.04960       -2.33170        3.16440
S         -2.43920       -1.73230        4.77770
C         -2.52960       -3.24350        5.78110
C         -1.55640       -3.60360        2.90950
C         -1.30490       -3.99910        1.61070
C          0.20570       -1.84110       -1.43570
S          0.94480       -1.27200        0.03260
C          2.01690       -0.24690       -0.89620
C          1.72010       -0.23810       -2.25780
N          2.20880        0.66470       -3.18170
C          2.42020        2.00270       -2.81390
C          1.56890        2.63730       -1.90760
C          1.83620        3.91870       -1.48250
C          2.95760        4.59880       -1.95150
S          3.25050        6.21520       -1.30200
C          5.01180        6.48810       -1.65800
C          3.77290        3.99770       -2.90060
C          3.50560        2.71130       -3.32540
C          2.42600        0.24510       -4.49930
C          2.92630       -1.02850       -4.75400
C          3.12610       -1.46260       -6.05000
C          2.83460       -0.62260       -7.11530
S          3.05250       -1.05700       -8.81180
C          3.52250       -2.80980       -8.75800
C          2.34650        0.65910       -6.86330
C          2.13990        1.08910       -5.57300
C          0.72530       -1.19870       -2.55240
S          0.01850       -1.75860       -4.01670
C          2.99080        0.55730       -0.22610
C          4.15230        1.02840       -0.82510
F          4.59720        0.46910       -1.96790
C          4.87520        2.09500       -0.28250
F          5.88390        2.60790       -1.01620
C          4.52420        2.68290        0.91530
C          3.53540        2.01420        1.68770
N          3.34610        2.35310        2.97240
C          2.42420        1.73520        3.66960
C          2.25830        2.19340        5.08750
C          1.25120        3.34470        5.14690
C          1.62050        0.71830        3.08190
N          1.81850        0.36070        1.83490
C          2.77040        0.96950        1.11770
C          0.58730       -0.05800        3.83300
C          1.22750       -1.29480        4.46730
C          4.99570        3.99790        1.33010
C          6.30510        4.42070        1.27410
C          6.65410        5.72490        1.61860
C          5.72480        6.65690        2.05120
C          4.36060        6.24870        2.12180
N          3.40560        7.07220        2.58170
C          2.14850        6.70130        2.56140
C          1.18630        7.59800        3.20930
C          1.34530        8.97670        3.08630
C          0.45720        9.83870        3.70060
C         -0.59070        9.33540        4.45420
C         -0.74470        7.96550        4.59420
C          0.13510        7.09800        3.97560
C          1.77670        5.46700        1.93790
N          2.70500        4.61200        1.59020
C          3.99960        4.93530        1.71930
C          0.39720        5.10380        1.59850
C          0.02030        3.76230        1.64510
C         -1.25820        3.37900        1.29110
C         -2.17480        4.33090        0.87430
C         -1.80110        5.66340        0.80290
C         -0.52370        6.05330        1.16020
C          6.13600        7.99420        2.40410
C          5.44530        8.96310        3.09440
C          6.16000       10.15310        3.25570
C          7.41030       10.10720        2.68430
C          8.36930       11.11910        2.66410
N          9.15160       11.95980        2.64930
S          7.71430        8.56930        1.93990
H         -1.62020       -3.75260       -4.92160
H         -5.33160       -7.56980       -4.88370
H         -6.29100       -4.75430       -0.78470
H         -8.96470       -6.76140       -1.51240
H         -7.66720       -7.83430        0.55270
H         -9.81860       -9.26450        0.07610
H         -9.36340      -10.75380       -2.07530
H         -6.92520      -10.24340       -2.92030
H         -6.45710      -10.02020       -0.32950
H         -5.73750       -8.62360       -1.15810
H         -8.50490       -8.21290       -3.62200
H         -3.36510       -5.01500        0.29610
H         -4.02430       -7.28520       -0.34620
H         -2.63720       -8.22110       -4.57620
H         -1.46650       -9.47740       -4.05880
H         -3.10840       -9.93890       -4.54800
H         -0.79640       -7.43060       -3.14660
H         -0.09460       -5.21070       -2.45470
H         -2.14400       -1.14600        0.00120
H         -2.61120       -0.45560        2.30540
H         -3.19150       -3.95750        5.30090
H         -2.94480       -2.93770        6.73650
H         -1.53890       -3.66390        5.93090
H         -1.36470       -4.29890        3.71080
H         -0.92910       -4.99380        1.42170
H          0.70010        2.12070       -1.52840
H          1.18080        4.40170       -0.77680
H          5.15370        6.71760       -2.71010
H          5.30810        7.34020       -1.05390
H          5.57890        5.60980       -1.36450
H          4.63030        4.51100       -3.30430
H          4.16250        2.23650       -4.03840
H          3.17720       -1.67680       -3.92780
H          3.51860       -2.45340       -6.21100
H          3.59590       -3.12380       -9.79460
H          2.75090       -3.38250       -8.25200
H          4.48640       -2.92470       -8.27060
H          2.12260        1.30730       -7.69650
H          1.74700        2.07710       -5.38630
H          1.92840        1.37450        5.72570
H          3.22580        2.55270        5.44080
H          1.60980        4.17430        4.54190
H          1.13110        3.68710        6.17180
H          0.28000        3.03400        4.76600
H          0.11410        0.55340        4.60000
H         -0.17010       -0.38490        3.12130
H          0.48260       -1.84330        5.03630
H          1.62390       -1.94350        3.69010
H          2.03980       -1.01670        5.13600
H          7.07900        3.73450        0.96550
H          7.69400        6.01400        1.55760
H          2.16070        9.35660        2.48940
H          0.58160       10.90610        3.59230
H         -1.28480       10.00910        4.93420
H         -1.55500        7.57040        5.18880
H          0.01540        6.03160        4.09740
H          0.74700        3.03070        1.95860
H         -1.53620        2.33600        1.33310
H         -3.17430        4.03350        0.59470
H         -2.50780        6.40440        0.45990
H         -0.23080        7.08890        1.07390
H          4.45400        8.79650        3.47150
H          5.78700       11.02110        3.77010
