
  xtb     02082211373D
 energy: -347.278718795171 gnorm: 0.000342950682 xtb: 6.4.1 (unknown)
207229  0     0  0            999 V2000
   -5.7499   -9.7893   -1.7817 C   0  0  0  0  0  0  0  0  0  0  0  0
   -5.3516  -11.0296   -1.4025 C   0  0  0  0  0  0  0  0  0  0  0  0
   -6.3225  -12.1573   -1.3366 C   0  0  0  0  0  0  0  0  0  0  0  0
   -7.4078  -12.2148   -1.8667 O   0  0  0  0  0  0  0  0  0  0  0  0
   -5.6973  -13.1461   -0.4348 C   0  0  0  0  0  0  0  0  0  0  0  0
   -6.2674  -14.3198    0.0557 C   0  0  0  0  0  0  0  0  0  0  0  0
   -5.4471  -15.0335    0.8960 C   0  0  0  0  0  0  0  0  0  0  0  0
   -4.1533  -14.6127    1.2360 C   0  0  0  0  0  0  0  0  0  0  0  0
   -3.5752  -13.4615    0.7586 C   0  0  0  0  0  0  0  0  0  0  0  0
   -4.3912  -12.7244   -0.1039 C   0  0  0  0  0  0  0  0  0  0  0  0
   -4.1019  -11.4972   -0.8340 C   0  0  0  0  0  0  0  0  0  0  0  0
   -2.8551  -11.0178   -1.1394 C   0  0  0  0  0  0  0  0  0  0  0  0
   -2.6336  -10.0350   -2.1298 C   0  0  0  0  0  0  0  0  0  0  0  0
   -2.4128   -9.2903   -2.9751 N   0  0  0  0  0  0  0  0  0  0  0  0
   -1.6601  -11.4531   -0.5393 C   0  0  0  0  0  0  0  0  0  0  0  0
   -0.6591  -11.7244   -0.0439 N   0  0  0  0  0  0  0  0  0  0  0  0
   -3.9080  -15.8120    2.1168 C   0  0  0  0  0  0  0  0  0  0  0  0
   -3.0164  -16.9259    1.5281 C   0  0  0  0  0  0  0  0  0  0  0  0
   -3.3423  -18.1351    2.3747 C   0  0  0  0  0  0  0  0  0  0  0  0
   -4.5655  -18.5355    2.0520 C   0  0  0  0  0  0  0  0  0  0  0  0
   -5.0867  -17.6040    0.9814 C   0  0  0  0  0  0  0  0  0  0  0  0
   -3.7775  -17.2886    0.2464 C   0  0  0  0  0  0  0  0  0  0  0  0
   -5.3483  -16.2830    1.7358 C   0  0  0  0  0  0  0  0  0  0  0  0
   -5.0899   -8.5575   -1.5181 C   0  0  0  0  0  0  0  0  0  0  0  0
   -5.2161   -7.3852   -2.2139 C   0  0  0  0  0  0  0  0  0  0  0  0
   -4.3774   -6.3459   -1.7483 C   0  0  0  0  0  0  0  0  0  0  0  0
   -4.2208   -5.0423   -2.2698 C   0  0  0  0  0  0  0  0  0  0  0  0
   -5.0601   -4.5221   -3.3258 C   0  0  0  0  0  0  0  0  0  0  0  0
   -4.6925   -3.6685   -4.3308 C   0  0  0  0  0  0  0  0  0  0  0  0
   -5.7239   -3.2144   -5.1747 C   0  0  0  0  0  0  0  0  0  0  0  0
   -6.9677   -3.6806   -4.8602 C   0  0  0  0  0  0  0  0  0  0  0  0
   -8.5081   -3.3387   -5.6111 S   0  0  0  0  0  0  0  0  0  0  0  0
   -8.0274   -2.7570   -7.2765 C   0  0  0  0  0  0  0  0  0  0  0  0
   -7.4169   -3.8617   -8.1156 C   0  0  0  0  0  0  0  0  0  0  0  0
   -6.9288   -4.8390   -3.3882 Se  0  0  0  0  0  2  0  0  0  0  0  0
   -3.2174   -4.2705   -1.6849 C   0  0  0  0  0  0  0  0  0  0  0  0
   -2.3960   -4.7206   -0.6240 C   0  0  0  0  0  0  0  0  0  0  0  0
   -2.5946   -5.9982   -0.0626 C   0  0  0  0  0  0  0  0  0  0  0  0
   -1.7848   -6.4897    1.0292 C   0  0  0  0  0  0  0  0  0  0  0  0
   -1.3384   -5.7984    2.1201 C   0  0  0  0  0  0  0  0  0  0  0  0
   -0.5080   -6.5132    3.0049 C   0  0  0  0  0  0  0  0  0  0  0  0
   -0.2426   -7.8029    2.6374 C   0  0  0  0  0  0  0  0  0  0  0  0
    0.8491   -8.8459    3.5154 S   0  0  0  0  0  0  0  0  0  0  0  0
    0.4873  -10.4798    2.7892 C   0  0  0  0  0  0  0  0  0  0  0  0
   -0.8305  -11.0457    3.2759 C   0  0  0  0  0  0  0  0  0  0  0  0
   -1.1163   -8.2577    1.0290 Se  0  0  0  0  0  2  0  0  0  0  0  0
   -3.5867   -6.7675   -0.6528 C   0  0  0  0  0  0  0  0  0  0  0  0
   -3.9933   -8.3814   -0.1586 S   0  0  0  0  0  0  0  0  0  0  0  0
   -1.4226   -3.7588   -0.2581 C   0  0  0  0  0  0  0  0  0  0  0  0
   -1.4954   -2.6066   -0.9705 C   0  0  0  0  0  0  0  0  0  0  0  0
   -2.8016   -2.6378   -2.1368 S   0  0  0  0  0  0  0  0  0  0  0  0
   -0.7282   -1.3932   -0.7566 C   0  0  0  0  0  0  0  0  0  0  0  0
   -0.1859   -0.6181   -1.7708 C   0  0  0  0  0  0  0  0  0  0  0  0
   -0.1598   -1.0356   -3.0676 O   0  0  0  0  0  0  0  0  0  0  0  0
    0.2128   -2.3801   -3.3630 C   0  0  0  0  0  0  0  0  0  0  0  0
    1.2007   -2.3628   -4.5211 C   0  0  0  0  0  0  0  0  0  0  0  0
    0.4087    0.6580   -1.4954 C   0  0  0  0  0  0  0  0  0  0  0  0
    0.9463    1.4680   -2.4336 O   0  0  0  0  0  0  0  0  0  0  0  0
    0.5522    1.4167   -3.7995 C   0  0  0  0  0  0  0  0  0  0  0  0
    0.8857    2.7653   -4.4196 C   0  0  0  0  0  0  0  0  0  0  0  0
    0.5104    1.1316   -0.1920 C   0  0  0  0  0  0  0  0  0  0  0  0
    0.0155    0.3306    0.8548 C   0  0  0  0  0  0  0  0  0  0  0  0
   -0.5833   -0.9422    0.5760 C   0  0  0  0  0  0  0  0  0  0  0  0
   -0.9497   -1.5774    1.6869 N   0  0  0  0  0  0  0  0  0  0  0  0
   -0.5738   -0.6533    2.9566 S   0  0  0  0  0  0  0  0  0  0  0  0
    0.0734    0.5867    2.1592 N   0  0  0  0  0  0  0  0  0  0  0  0
    1.1940    2.3790    0.1076 C   0  0  0  0  0  0  0  0  0  0  0  0
    2.4906    2.7128   -0.2306 C   0  0  0  0  0  0  0  0  0  0  0  0
    3.3819    1.8563   -0.8597 N   0  0  0  0  0  0  0  0  0  0  0  0
    4.2842    2.3546   -1.8012 C   0  0  0  0  0  0  0  0  0  0  0  0
    5.5245    1.7465   -1.9796 C   0  0  0  0  0  0  0  0  0  0  0  0
    6.4278    2.2396   -2.9005 C   0  0  0  0  0  0  0  0  0  0  0  0
    6.1126    3.3627   -3.6531 C   0  0  0  0  0  0  0  0  0  0  0  0
    7.1841    4.0811   -4.8608 S   0  0  0  0  0  0  0  0  0  0  0  0
    8.7622    3.2205   -4.6083 C   0  0  0  0  0  0  0  0  0  0  0  0
    4.8741    3.9752   -3.4784 C   0  0  0  0  0  0  0  0  0  0  0  0
    3.9690    3.4774   -2.5681 C   0  0  0  0  0  0  0  0  0  0  0  0
    3.2815    0.4834   -0.6004 C   0  0  0  0  0  0  0  0  0  0  0  0
    3.0450    0.0359    0.6975 C   0  0  0  0  0  0  0  0  0  0  0  0
    2.7858   -1.2954    0.9542 C   0  0  0  0  0  0  0  0  0  0  0  0
    2.7774   -2.2121   -0.0874 C   0  0  0  0  0  0  0  0  0  0  0  0
    2.3244   -3.9108    0.0881 S   0  0  0  0  0  0  0  0  0  0  0  0
    1.9233   -4.0795    1.8489 C   0  0  0  0  0  0  0  0  0  0  0  0
    3.1156   -1.7864   -1.3708 C   0  0  0  0  0  0  0  0  0  0  0  0
    3.3589   -0.4557   -1.6290 C   0  0  0  0  0  0  0  0  0  0  0  0
    2.8110    4.0139    0.2268 C   0  0  0  0  0  0  0  0  0  0  0  0
    4.2369    4.9803    0.1744 S   0  0  0  0  0  0  0  0  0  0  0  0
    3.4070    6.2941    1.0247 C   0  0  0  0  0  0  0  0  0  0  0  0
    2.1054    5.9228    1.4206 C   0  0  0  0  0  0  0  0  0  0  0  0
    1.2890    6.6120    2.2718 N   0  0  0  0  0  0  0  0  0  0  0  0
   -0.1038    6.4075    2.2221 C   0  0  0  0  0  0  0  0  0  0  0  0
   -0.7728    6.3831    1.0034 C   0  0  0  0  0  0  0  0  0  0  0  0
   -2.1376    6.1762    0.9586 C   0  0  0  0  0  0  0  0  0  0  0  0
   -2.8508    5.9905    2.1356 C   0  0  0  0  0  0  0  0  0  0  0  0
   -4.5913    5.7123    2.2043 S   0  0  0  0  0  0  0  0  0  0  0  0
   -5.0628    5.4698    0.4677 C   0  0  0  0  0  0  0  0  0  0  0  0
   -2.1838    6.0382    3.3591 C   0  0  0  0  0  0  0  0  0  0  0  0
   -0.8237    6.2453    3.4045 C   0  0  0  0  0  0  0  0  0  0  0  0
    1.7865    7.5218    3.2134 C   0  0  0  0  0  0  0  0  0  0  0  0
    2.9511    7.2508    3.9351 C   0  0  0  0  0  0  0  0  0  0  0  0
    3.4643    8.1881    4.7998 C   0  0  0  0  0  0  0  0  0  0  0  0
    2.8327    9.4230    4.9650 C   0  0  0  0  0  0  0  0  0  0  0  0
    3.6307   10.5812    6.0232 S   0  0  0  0  0  0  0  0  0  0  0  0
    2.7895   12.1465    5.6523 C   0  0  0  0  0  0  0  0  0  0  0  0
    1.6368    9.6683    4.3038 C   0  0  0  0  0  0  0  0  0  0  0  0
    1.1190    8.7240    3.4379 C   0  0  0  0  0  0  0  0  0  0  0  0
    1.7819    4.6395    0.9177 C   0  0  0  0  0  0  0  0  0  0  0  0
    0.3939    3.6089    1.0497 S   0  0  0  0  0  0  0  0  0  0  0  0
    4.1294    7.4770    1.2079 C   0  0  0  0  0  0  0  0  0  0  0  0
    3.5928    8.7326    1.3947 C   0  0  0  0  0  0  0  0  0  0  0  0
    2.2610    9.1334    0.9202 C   0  0  0  0  0  0  0  0  0  0  0  0
    1.4363    8.4419    0.3489 O   0  0  0  0  0  0  0  0  0  0  0  0
    2.1743   10.5918    1.1497 C   0  0  0  0  0  0  0  0  0  0  0  0
    1.1000   11.4257    0.8544 C   0  0  0  0  0  0  0  0  0  0  0  0
    1.3059   12.7445    1.1851 C   0  0  0  0  0  0  0  0  0  0  0  0
    2.4996   13.2033    1.7539 C   0  0  0  0  0  0  0  0  0  0  0  0
    3.5708   12.3904    2.0460 C   0  0  0  0  0  0  0  0  0  0  0  0
    3.3750   11.0437    1.7288 C   0  0  0  0  0  0  0  0  0  0  0  0
    4.2575    9.8932    1.9198 C   0  0  0  0  0  0  0  0  0  0  0  0
    5.4361    9.8934    2.6253 C   0  0  0  0  0  0  0  0  0  0  0  0
    6.0129   11.0377    3.2071 C   0  0  0  0  0  0  0  0  0  0  0  0
    6.5255   11.9406    3.6991 N   0  0  0  0  0  0  0  0  0  0  0  0
    6.1797    8.7315    2.9106 C   0  0  0  0  0  0  0  0  0  0  0  0
    6.8180    7.8214    3.2009 N   0  0  0  0  0  0  0  0  0  0  0  0
    2.0213   14.6340    1.8041 C   0  0  0  0  0  0  0  0  0  0  0  0
    2.5712   15.5835    0.7193 C   0  0  0  0  0  0  0  0  0  0  0  0
    1.5926   16.7357    0.7172 C   0  0  0  0  0  0  0  0  0  0  0  0
    0.4594   16.3015    0.1807 C   0  0  0  0  0  0  0  0  0  0  0  0
    0.6533   14.8486   -0.1891 C   0  0  0  0  0  0  0  0  0  0  0  0
    2.1398   14.8687   -0.5678 C   0  0  0  0  0  0  0  0  0  0  0  0
    0.6875   14.1216    1.1716 C   0  0  0  0  0  0  0  0  0  0  0  0
   -6.7096   -9.7238   -2.2838 H   0  0  0  0  0  0  0  0  0  0  0  0
   -7.2682  -14.6091   -0.2241 H   0  0  0  0  0  0  0  0  0  0  0  0
   -2.5835  -13.1359    1.0272 H   0  0  0  0  0  0  0  0  0  0  0  0
   -3.6889  -15.5979    3.1612 H   0  0  0  0  0  0  0  0  0  0  0  0
   -1.9663  -16.6643    1.4304 H   0  0  0  0  0  0  0  0  0  0  0  0
   -2.6930  -18.5278    3.1350 H   0  0  0  0  0  0  0  0  0  0  0  0
   -5.1419  -19.3296    2.4888 H   0  0  0  0  0  0  0  0  0  0  0  0
   -5.9223  -17.9619    0.3862 H   0  0  0  0  0  0  0  0  0  0  0  0
   -3.8555  -16.4728   -0.4699 H   0  0  0  0  0  0  0  0  0  0  0  0
   -3.3603  -18.1658   -0.2453 H   0  0  0  0  0  0  0  0  0  0  0  0
   -6.0899  -16.3839    2.5260 H   0  0  0  0  0  0  0  0  0  0  0  0
   -5.8351   -7.3104   -3.0925 H   0  0  0  0  0  0  0  0  0  0  0  0
   -3.6686   -3.3817   -4.4985 H   0  0  0  0  0  0  0  0  0  0  0  0
   -5.5303   -2.5405   -5.9910 H   0  0  0  0  0  0  0  0  0  0  0  0
   -8.9649   -2.4073   -7.7084 H   0  0  0  0  0  0  0  0  0  0  0  0
   -7.3565   -1.9074   -7.1569 H   0  0  0  0  0  0  0  0  0  0  0  0
   -6.5063   -4.2399   -7.6557 H   0  0  0  0  0  0  0  0  0  0  0  0
   -8.1179   -4.6864   -8.2210 H   0  0  0  0  0  0  0  0  0  0  0  0
   -7.1745   -3.4811   -9.1058 H   0  0  0  0  0  0  0  0  0  0  0  0
   -1.6463   -4.7857    2.3214 H   0  0  0  0  0  0  0  0  0  0  0  0
   -0.1131   -6.0847    3.9103 H   0  0  0  0  0  0  0  0  0  0  0  0
    1.3238  -11.1078    3.0936 H   0  0  0  0  0  0  0  0  0  0  0  0
    0.4968  -10.3704    1.7004 H   0  0  0  0  0  0  0  0  0  0  0  0
   -0.9810  -12.0298    2.8385 H   0  0  0  0  0  0  0  0  0  0  0  0
   -1.6591  -10.4040    2.9734 H   0  0  0  0  0  0  0  0  0  0  0  0
   -0.8348  -11.1345    4.3600 H   0  0  0  0  0  0  0  0  0  0  0  0
   -0.6657   -3.9319    0.4805 H   0  0  0  0  0  0  0  0  0  0  0  0
   -0.6786   -2.9462   -3.6549 H   0  0  0  0  0  0  0  0  0  0  0  0
    0.6573   -2.8524   -2.4816 H   0  0  0  0  0  0  0  0  0  0  0  0
    2.0939   -1.8044   -4.2531 H   0  0  0  0  0  0  0  0  0  0  0  0
    1.4810   -3.3824   -4.7697 H   0  0  0  0  0  0  0  0  0  0  0  0
    0.7449   -1.8979   -5.3916 H   0  0  0  0  0  0  0  0  0  0  0  0
    1.0972    0.6217   -4.3178 H   0  0  0  0  0  0  0  0  0  0  0  0
   -0.5204    1.2129   -3.8743 H   0  0  0  0  0  0  0  0  0  0  0  0
    0.5580    2.7799   -5.4551 H   0  0  0  0  0  0  0  0  0  0  0  0
    1.9578    2.9381   -4.3842 H   0  0  0  0  0  0  0  0  0  0  0  0
    0.3846    3.5627   -3.8769 H   0  0  0  0  0  0  0  0  0  0  0  0
    5.7846    0.8817   -1.3874 H   0  0  0  0  0  0  0  0  0  0  0  0
    7.3771    1.7413   -3.0135 H   0  0  0  0  0  0  0  0  0  0  0  0
    8.6722    2.1763   -4.8940 H   0  0  0  0  0  0  0  0  0  0  0  0
    9.4739    3.7185   -5.2595 H   0  0  0  0  0  0  0  0  0  0  0  0
    9.0736    3.3225   -3.5730 H   0  0  0  0  0  0  0  0  0  0  0  0
    4.6305    4.8447   -4.0696 H   0  0  0  0  0  0  0  0  0  0  0  0
    3.0079    3.9524   -2.4482 H   0  0  0  0  0  0  0  0  0  0  0  0
    3.0297    0.7450    1.5117 H   0  0  0  0  0  0  0  0  0  0  0  0
    2.5860   -1.6001    1.9692 H   0  0  0  0  0  0  0  0  0  0  0  0
    1.6073   -5.1107    1.9794 H   0  0  0  0  0  0  0  0  0  0  0  0
    2.8065   -3.8869    2.4509 H   0  0  0  0  0  0  0  0  0  0  0  0
    1.1102   -3.4075    2.1118 H   0  0  0  0  0  0  0  0  0  0  0  0
    3.1650   -2.5171   -2.1637 H   0  0  0  0  0  0  0  0  0  0  0  0
    3.5833   -0.1264   -2.6327 H   0  0  0  0  0  0  0  0  0  0  0  0
   -0.2176    6.5613    0.0963 H   0  0  0  0  0  0  0  0  0  0  0  0
   -2.6319    6.1727    0.0009 H   0  0  0  0  0  0  0  0  0  0  0  0
   -4.9407    6.3950   -0.0879 H   0  0  0  0  0  0  0  0  0  0  0  0
   -6.1113    5.1891    0.4862 H   0  0  0  0  0  0  0  0  0  0  0  0
   -4.4718    4.6672    0.0367 H   0  0  0  0  0  0  0  0  0  0  0  0
   -2.7472    5.9026    4.2694 H   0  0  0  0  0  0  0  0  0  0  0  0
   -0.3087    6.2742    4.3533 H   0  0  0  0  0  0  0  0  0  0  0  0
    3.4588    6.3074    3.8049 H   0  0  0  0  0  0  0  0  0  0  0  0
    4.3718    7.9848    5.3470 H   0  0  0  0  0  0  0  0  0  0  0  0
    3.3858   12.9155    6.1332 H   0  0  0  0  0  0  0  0  0  0  0  0
    1.7853   12.1448    6.0667 H   0  0  0  0  0  0  0  0  0  0  0  0
    2.7756   12.3066    4.5778 H   0  0  0  0  0  0  0  0  0  0  0  0
    1.1060   10.5966    4.4403 H   0  0  0  0  0  0  0  0  0  0  0  0
    0.1956    8.9242    2.9157 H   0  0  0  0  0  0  0  0  0  0  0  0
    5.2068    7.3806    1.1455 H   0  0  0  0  0  0  0  0  0  0  0  0
    0.1980   11.0329    0.4112 H   0  0  0  0  0  0  0  0  0  0  0  0
    4.4891   12.7577    2.4741 H   0  0  0  0  0  0  0  0  0  0  0  0
    1.9877   15.0914    2.7918 H   0  0  0  0  0  0  0  0  0  0  0  0
    3.6230   15.8347    0.8250 H   0  0  0  0  0  0  0  0  0  0  0  0
    1.8001   17.7000    1.1429 H   0  0  0  0  0  0  0  0  0  0  0  0
   -0.4690   16.8306    0.0689 H   0  0  0  0  0  0  0  0  0  0  0  0
   -0.0424   14.4307   -0.9120 H   0  0  0  0  0  0  0  0  0  0  0  0
    2.3304   15.4693   -1.4557 H   0  0  0  0  0  0  0  0  0  0  0  0
    2.5784   13.8809   -0.6953 H   0  0  0  0  0  0  0  0  0  0  0  0
   -0.2347   14.2366    1.7390 H   0  0  0  0  0  0  0  0  0  0  0  0
  1  2  2  0  0  0  0
  2  3  1  0  0  0  0
  3  4  2  0  0  0  0
  3  5  1  0  0  0  0
  5  6  2  0  0  0  0
  6  7  1  0  0  0  0
  7  8  2  0  0  0  0
  8  9  1  0  0  0  0
  9 10  2  0  0  0  0
 10 11  1  0  0  0  0
 11 12  2  0  0  0  0
 12 13  1  0  0  0  0
 13 14  3  0  0  0  0
 12 15  1  0  0  0  0
 15 16  3  0  0  0  0
  8 17  1  0  0  0  0
 17 18  1  0  0  0  0
 18 19  1  0  0  0  0
 19 20  2  0  0  0  0
 20 21  1  0  0  0  0
 21 22  1  0  0  0  0
 21 23  1  0  0  0  0
  1 24  1  0  0  0  0
 24 25  2  0  0  0  0
 25 26  1  0  0  0  0
 26 27  2  0  0  0  0
 27 28  1  0  0  0  0
 28 29  2  0  0  0  0
 29 30  1  0  0  0  0
 30 31  2  0  0  0  0
 31 32  1  0  0  0  0
 32 33  1  0  0  0  0
 33 34  1  0  0  0  0
 31 35  1  0  0  0  0
 27 36  1  0  0  0  0
 36 37  2  0  0  0  0
 37 38  1  0  0  0  0
 38 39  1  0  0  0  0
 39 40  2  0  0  0  0
 40 41  1  0  0  0  0
 41 42  2  0  0  0  0
 42 43  1  0  0  0  0
 43 44  1  0  0  0  0
 44 45  1  0  0  0  0
 42 46  1  0  0  0  0
 38 47  2  0  0  0  0
 47 48  1  0  0  0  0
 37 49  1  0  0  0  0
 49 50  2  0  0  0  0
 50 51  1  0  0  0  0
 50 52  1  0  0  0  0
 52 53  2  0  0  0  0
 53 54  1  0  0  0  0
 54 55  1  0  0  0  0
 55 56  1  0  0  0  0
 53 57  1  0  0  0  0
 57 58  1  0  0  0  0
 58 59  1  0  0  0  0
 59 60  1  0  0  0  0
 57 61  2  0  0  0  0
 61 62  1  0  0  0  0
 62 63  1  0  0  0  0
 63 64  2  0  0  0  0
 64 65  1  0  0  0  0
 65 66  1  0  0  0  0
 61 67  1  0  0  0  0
 67 68  2  0  0  0  0
 68 69  1  0  0  0  0
 69 70  1  0  0  0  0
 70 71  2  0  0  0  0
 71 72  1  0  0  0  0
 72 73  2  0  0  0  0
 73 74  1  0  0  0  0
 74 75  1  0  0  0  0
 73 76  1  0  0  0  0
 76 77  2  0  0  0  0
 69 78  1  0  0  0  0
 78 79  2  0  0  0  0
 79 80  1  0  0  0  0
 80 81  2  0  0  0  0
 81 82  1  0  0  0  0
 82 83  1  0  0  0  0
 81 84  1  0  0  0  0
 84 85  2  0  0  0  0
 68 86  1  0  0  0  0
 86 87  1  0  0  0  0
 87 88  1  0  0  0  0
 88 89  2  0  0  0  0
 89 90  1  0  0  0  0
 90 91  1  0  0  0  0
 91 92  2  0  0  0  0
 92 93  1  0  0  0  0
 93 94  2  0  0  0  0
 94 95  1  0  0  0  0
 95 96  1  0  0  0  0
 94 97  1  0  0  0  0
 97 98  2  0  0  0  0
 90 99  1  0  0  0  0
 99100  2  0  0  0  0
100101  1  0  0  0  0
101102  2  0  0  0  0
102103  1  0  0  0  0
103104  1  0  0  0  0
102105  1  0  0  0  0
105106  2  0  0  0  0
 89107  1  0  0  0  0
107108  1  0  0  0  0
 88109  1  0  0  0  0
109110  2  0  0  0  0
110111  1  0  0  0  0
111112  2  0  0  0  0
111113  1  0  0  0  0
113114  2  0  0  0  0
114115  1  0  0  0  0
115116  2  0  0  0  0
116117  1  0  0  0  0
117118  2  0  0  0  0
118119  1  0  0  0  0
119120  2  0  0  0  0
120121  1  0  0  0  0
121122  3  0  0  0  0
120123  1  0  0  0  0
123124  3  0  0  0  0
116125  1  0  0  0  0
125126  1  0  0  0  0
126127  1  0  0  0  0
127128  2  0  0  0  0
128129  1  0  0  0  0
129130  1  0  0  0  0
129131  1  0  0  0  0
 11  2  1  0  0  0  0
 23 17  1  0  0  0  0
 48 24  1  0  0  0  0
 63 52  1  0  0  0  0
108 67  1  0  0  0  0
119110  1  0  0  0  0
131125  1  0  0  0  0
 10  5  1  0  0  0  0
 22 18  1  0  0  0  0
 47 26  1  0  0  0  0
 66 62  2  0  0  0  0
 77 70  1  0  0  0  0
 85 78  1  0  0  0  0
107 86  2  0  0  0  0
118113  1  0  0  0  0
130126  1  0  0  0  0
 23  7  1  0  0  0  0
 35 28  1  0  0  0  0
 51 36  1  0  0  0  0
 98 91  1  0  0  0  0
106 99  1  0  0  0  0
131115  1  0  0  0  0
 46 39  1  0  0  0  0
  1132  1  0  0  0  0
  6133  1  0  0  0  0
  9134  1  0  0  0  0
 17135  1  0  0  0  0
 18136  1  0  0  0  0
 19137  1  0  0  0  0
 20138  1  0  0  0  0
 21139  1  0  0  0  0
 22140  1  0  0  0  0
 22141  1  0  0  0  0
 23142  1  0  0  0  0
 25143  1  0  0  0  0
 29144  1  0  0  0  0
 30145  1  0  0  0  0
 33146  1  0  0  0  0
 33147  1  0  0  0  0
 34148  1  0  0  0  0
 34149  1  0  0  0  0
 34150  1  0  0  0  0
 40151  1  0  0  0  0
 41152  1  0  0  0  0
 44153  1  0  0  0  0
 44154  1  0  0  0  0
 45155  1  0  0  0  0
 45156  1  0  0  0  0
 45157  1  0  0  0  0
 49158  1  0  0  0  0
 55159  1  0  0  0  0
 55160  1  0  0  0  0
 56161  1  0  0  0  0
 56162  1  0  0  0  0
 56163  1  0  0  0  0
 59164  1  0  0  0  0
 59165  1  0  0  0  0
 60166  1  0  0  0  0
 60167  1  0  0  0  0
 60168  1  0  0  0  0
 71169  1  0  0  0  0
 72170  1  0  0  0  0
 75171  1  0  0  0  0
 75172  1  0  0  0  0
 75173  1  0  0  0  0
 76174  1  0  0  0  0
 77175  1  0  0  0  0
 79176  1  0  0  0  0
 80177  1  0  0  0  0
 83178  1  0  0  0  0
 83179  1  0  0  0  0
 83180  1  0  0  0  0
 84181  1  0  0  0  0
 85182  1  0  0  0  0
 92183  1  0  0  0  0
 93184  1  0  0  0  0
 96185  1  0  0  0  0
 96186  1  0  0  0  0
 96187  1  0  0  0  0
 97188  1  0  0  0  0
 98189  1  0  0  0  0
100190  1  0  0  0  0
101191  1  0  0  0  0
104192  1  0  0  0  0
104193  1  0  0  0  0
104194  1  0  0  0  0
105195  1  0  0  0  0
106196  1  0  0  0  0
109197  1  0  0  0  0
114198  1  0  0  0  0
117199  1  0  0  0  0
125200  1  0  0  0  0
126201  1  0  0  0  0
127202  1  0  0  0  0
128203  1  0  0  0  0
129204  1  0  0  0  0
130205  1  0  0  0  0
130206  1  0  0  0  0
131207  1  0  0  0  0
M  END
