
  xtb     02082214063D
 energy: -371.133157158792 gnorm: 0.000428355875 xtb: 6.4.1 (unknown)
219239  0     0  0            999 V2000
    5.1856   -4.4453    4.5647 C   0  0  0  0  0  0  0  0  0  0  0  0
    4.8545   -5.6045    5.2238 C   0  0  0  0  0  0  0  0  0  0  0  0
    3.5059   -6.0672    5.5670 C   0  0  0  0  0  0  0  0  0  0  0  0
    2.4821   -5.4064    5.6315 O   0  0  0  0  0  0  0  0  0  0  0  0
    3.6282   -7.5046    5.8633 C   0  0  0  0  0  0  0  0  0  0  0  0
    2.5952   -8.3972    6.1394 C   0  0  0  0  0  0  0  0  0  0  0  0
    3.0181   -9.6850    6.3674 C   0  0  0  0  0  0  0  0  0  0  0  0
    4.3677  -10.0584    6.3261 C   0  0  0  0  0  0  0  0  0  0  0  0
    5.3965   -9.1869    6.0538 C   0  0  0  0  0  0  0  0  0  0  0  0
    4.9883   -7.8721    5.8140 C   0  0  0  0  0  0  0  0  0  0  0  0
    5.7772   -6.6857    5.4872 C   0  0  0  0  0  0  0  0  0  0  0  0
    7.1483   -6.6288    5.4399 C   0  0  0  0  0  0  0  0  0  0  0  0
    8.0083   -7.7339    5.5938 C   0  0  0  0  0  0  0  0  0  0  0  0
    8.7854   -8.5759    5.6784 N   0  0  0  0  0  0  0  0  0  0  0  0
    7.9083   -5.4573    5.2651 C   0  0  0  0  0  0  0  0  0  0  0  0
    8.6163   -4.5571    5.1601 N   0  0  0  0  0  0  0  0  0  0  0  0
    4.0598  -11.5030    6.6344 C   0  0  0  0  0  0  0  0  0  0  0  0
    4.1050  -12.4865    5.4457 C   0  0  0  0  0  0  0  0  0  0  0  0
    3.3118  -13.6781    5.9319 C   0  0  0  0  0  0  0  0  0  0  0  0
    2.0337  -13.3236    5.9708 C   0  0  0  0  0  0  0  0  0  0  0  0
    1.9414  -11.8861    5.5121 C   0  0  0  0  0  0  0  0  0  0  0  0
    3.0825  -11.8630    4.4868 C   0  0  0  0  0  0  0  0  0  0  0  0
    2.5548  -11.0857    6.6806 C   0  0  0  0  0  0  0  0  0  0  0  0
    4.3621   -3.4469    4.0356 C   0  0  0  0  0  0  0  0  0  0  0  0
    4.7859   -2.4902    3.0813 C   0  0  0  0  0  0  0  0  0  0  0  0
    6.0198   -2.4544    2.4790 N   0  0  0  0  0  0  0  0  0  0  0  0
    6.7349   -3.6298    2.1846 C   0  0  0  0  0  0  0  0  0  0  0  0
    6.0647   -4.7744    1.7465 C   0  0  0  0  0  0  0  0  0  0  0  0
    6.7535   -5.9518    1.5717 C   0  0  0  0  0  0  0  0  0  0  0  0
    8.1286   -6.0073    1.8020 C   0  0  0  0  0  0  0  0  0  0  0  0
    8.8998   -7.5850    1.6391 S   0  0  0  0  0  0  0  0  0  0  0  0
   10.4693   -7.3764    2.5249 C   0  0  0  0  0  0  0  0  0  0  0  0
    8.8105   -4.8471    2.1423 C   0  0  0  0  0  0  0  0  0  0  0  0
    8.1165   -3.6692    2.3423 C   0  0  0  0  0  0  0  0  0  0  0  0
    6.5297   -1.2174    2.0522 C   0  0  0  0  0  0  0  0  0  0  0  0
    6.3817   -0.0865    2.8507 C   0  0  0  0  0  0  0  0  0  0  0  0
    6.8531    1.1407    2.4294 C   0  0  0  0  0  0  0  0  0  0  0  0
    7.4894    1.2549    1.2004 C   0  0  0  0  0  0  0  0  0  0  0  0
    8.1213    2.7680    0.5550 S   0  0  0  0  0  0  0  0  0  0  0  0
    7.4262    4.0305    1.6593 C   0  0  0  0  0  0  0  0  0  0  0  0
    7.6659    0.1179    0.4122 C   0  0  0  0  0  0  0  0  0  0  0  0
    7.1908   -1.1041    0.8292 C   0  0  0  0  0  0  0  0  0  0  0  0
    3.7378   -1.6076    2.7566 C   0  0  0  0  0  0  0  0  0  0  0  0
    3.5624   -0.2836    1.6430 S   0  0  0  0  0  0  0  0  0  0  0  0
    1.8604   -0.1697    2.0370 C   0  0  0  0  0  0  0  0  0  0  0  0
    1.4778   -1.0505    3.0284 C   0  0  0  0  0  0  0  0  0  0  0  0
    0.2287   -1.0360    3.6253 N   0  0  0  0  0  0  0  0  0  0  0  0
   -0.2721   -2.2574    4.0939 C   0  0  0  0  0  0  0  0  0  0  0  0
   -0.8015   -2.3824    5.3755 C   0  0  0  0  0  0  0  0  0  0  0  0
   -1.1500   -3.6262    5.8596 C   0  0  0  0  0  0  0  0  0  0  0  0
   -0.9693   -4.7573    5.0751 C   0  0  0  0  0  0  0  0  0  0  0  0
   -1.2979   -6.3797    5.7091 S   0  0  0  0  0  0  0  0  0  0  0  0
   -0.4639   -6.2606    7.3233 C   0  0  0  0  0  0  0  0  0  0  0  0
   -0.5122   -4.6290    3.7708 C   0  0  0  0  0  0  0  0  0  0  0  0
   -0.1661   -3.3872    3.2823 C   0  0  0  0  0  0  0  0  0  0  0  0
   -0.3478    0.1915    3.9677 C   0  0  0  0  0  0  0  0  0  0  0  0
    0.4590    1.2884    4.2685 C   0  0  0  0  0  0  0  0  0  0  0  0
   -0.0946    2.5047    4.6024 C   0  0  0  0  0  0  0  0  0  0  0  0
   -1.4737    2.6492    4.6481 C   0  0  0  0  0  0  0  0  0  0  0  0
   -2.2388    4.1668    5.1258 S   0  0  0  0  0  0  0  0  0  0  0  0
   -0.9896    5.4117    4.6849 C   0  0  0  0  0  0  0  0  0  0  0  0
   -2.2890    1.5587    4.3621 C   0  0  0  0  0  0  0  0  0  0  0  0
   -1.7326    0.3430    4.0211 C   0  0  0  0  0  0  0  0  0  0  0  0
    2.5513   -1.8822    3.4245 C   0  0  0  0  0  0  0  0  0  0  0  0
    2.6621   -3.2489    4.4653 S   0  0  0  0  0  0  0  0  0  0  0  0
    0.9295    0.6136    1.2528 C   0  0  0  0  0  0  0  0  0  0  0  0
   -0.1794   -0.0501    0.6836 C   0  0  0  0  0  0  0  0  0  0  0  0
   -0.5947   -1.3183    0.8023 N   0  0  0  0  0  0  0  0  0  0  0  0
   -1.6215   -1.3973    0.0034 N   0  0  0  0  0  0  0  0  0  0  0  0
   -2.3924   -2.6027   -0.1041 C   0  0  0  0  0  0  0  0  0  0  0  0
   -3.2331   -2.8062    1.1519 C   0  0  0  0  0  0  0  0  0  0  0  0
   -1.9358   -0.3208   -0.6569 N   0  0  0  0  0  0  0  0  0  0  0  0
   -1.0318    0.5857   -0.2591 C   0  0  0  0  0  0  0  0  0  0  0  0
   -0.8501    1.9297   -0.6470 C   0  0  0  0  0  0  0  0  0  0  0  0
    0.1662    2.5915    0.0203 C   0  0  0  0  0  0  0  0  0  0  0  0
    1.0400    1.9487    0.9179 C   0  0  0  0  0  0  0  0  0  0  0  0
    2.0446    2.6803    1.4383 F   0  0  0  0  0  0  0  0  0  0  0  0
    0.4050    3.8876   -0.2588 F   0  0  0  0  0  0  0  0  0  0  0  0
   -1.5514    2.4527   -1.7935 C   0  0  0  0  0  0  0  0  0  0  0  0
   -2.0955    3.6989   -2.0383 C   0  0  0  0  0  0  0  0  0  0  0  0
   -2.3533    4.6680   -1.0825 N   0  0  0  0  0  0  0  0  0  0  0  0
   -2.9865    4.3393    0.1240 C   0  0  0  0  0  0  0  0  0  0  0  0
   -3.0160    5.2767    1.1554 C   0  0  0  0  0  0  0  0  0  0  0  0
   -3.7489    5.0488    2.3038 C   0  0  0  0  0  0  0  0  0  0  0  0
   -4.4473    3.8594    2.4601 C   0  0  0  0  0  0  0  0  0  0  0  0
   -5.4730    3.4790    3.8466 S   0  0  0  0  0  0  0  0  0  0  0  0
   -5.6820    5.0733    4.6820 C   0  0  0  0  0  0  0  0  0  0  0  0
   -4.3584    2.8885    1.4668 C   0  0  0  0  0  0  0  0  0  0  0  0
   -3.6481    3.1241    0.3112 C   0  0  0  0  0  0  0  0  0  0  0  0
   -2.4308    5.9887   -1.5770 C   0  0  0  0  0  0  0  0  0  0  0  0
   -1.3536    6.4960   -2.2962 C   0  0  0  0  0  0  0  0  0  0  0  0
   -1.4349    7.7325   -2.9051 C   0  0  0  0  0  0  0  0  0  0  0  0
   -2.6023    8.4761   -2.8063 C   0  0  0  0  0  0  0  0  0  0  0  0
   -2.8254   10.0342   -3.6023 S   0  0  0  0  0  0  0  0  0  0  0  0
   -1.6019    9.9609   -4.9463 C   0  0  0  0  0  0  0  0  0  0  0  0
   -3.6635    7.9950   -2.0437 C   0  0  0  0  0  0  0  0  0  0  0  0
   -3.5827    6.7616   -1.4366 C   0  0  0  0  0  0  0  0  0  0  0  0
   -2.5138    3.8070   -3.3915 C   0  0  0  0  0  0  0  0  0  0  0  0
   -3.1205    5.1006   -4.3570 S   0  0  0  0  0  0  0  0  0  0  0  0
   -3.3207    4.0109   -5.7262 C   0  0  0  0  0  0  0  0  0  0  0  0
   -2.8364    2.7178   -5.4451 C   0  0  0  0  0  0  0  0  0  0  0  0
   -2.8320    1.6517   -6.3123 N   0  0  0  0  0  0  0  0  0  0  0  0
   -2.9576    0.3652   -5.7526 C   0  0  0  0  0  0  0  0  0  0  0  0
   -2.0952   -0.6639   -6.1128 C   0  0  0  0  0  0  0  0  0  0  0  0
   -2.1806   -1.8979   -5.4971 C   0  0  0  0  0  0  0  0  0  0  0  0
   -3.1294   -2.1173   -4.5076 C   0  0  0  0  0  0  0  0  0  0  0  0
   -3.2967   -3.6275   -3.6099 S   0  0  0  0  0  0  0  0  0  0  0  0
   -1.9235   -4.6534   -4.2048 C   0  0  0  0  0  0  0  0  0  0  0  0
   -4.0222   -1.1008   -4.1735 C   0  0  0  0  0  0  0  0  0  0  0  0
   -3.9414    0.1251   -4.7922 C   0  0  0  0  0  0  0  0  0  0  0  0
   -2.5456    1.7868   -7.6788 C   0  0  0  0  0  0  0  0  0  0  0  0
   -1.6573    2.7568   -8.1352 C   0  0  0  0  0  0  0  0  0  0  0  0
   -1.3790    2.8785   -9.4821 C   0  0  0  0  0  0  0  0  0  0  0  0
   -1.9770    2.0221  -10.3985 C   0  0  0  0  0  0  0  0  0  0  0  0
   -1.6942    2.0703  -12.1375 S   0  0  0  0  0  0  0  0  0  0  0  0
   -0.6146    3.5106  -12.3698 C   0  0  0  0  0  0  0  0  0  0  0  0
   -2.8564    1.0408   -9.9419 C   0  0  0  0  0  0  0  0  0  0  0  0
   -3.1402    0.9239   -8.6002 C   0  0  0  0  0  0  0  0  0  0  0  0
   -2.3756    2.6322   -4.1169 C   0  0  0  0  0  0  0  0  0  0  0  0
   -1.6732    1.3668   -3.1676 S   0  0  0  0  0  0  0  0  0  0  0  0
   -4.0518    4.3558   -6.8716 C   0  0  0  0  0  0  0  0  0  0  0  0
   -4.5544    5.5785   -7.2195 C   0  0  0  0  0  0  0  0  0  0  0  0
   -5.7126    5.7474   -8.5305 S   0  0  0  0  0  0  0  0  0  0  0  0
   -5.8969    7.4554   -8.2020 C   0  0  0  0  0  0  0  0  0  0  0  0
   -6.7642    8.2093   -8.9543 C   0  0  0  0  0  0  0  0  0  0  0  0
   -6.9654    9.5948   -8.8710 C   0  0  0  0  0  0  0  0  0  0  0  0
   -7.1625   10.7270   -8.8758 N   0  0  0  0  0  0  0  0  0  0  0  0
   -7.5304    7.5804   -9.9572 C   0  0  0  0  0  0  0  0  0  0  0  0
   -8.1564    7.0795  -10.7780 N   0  0  0  0  0  0  0  0  0  0  0  0
   -5.0745    7.8551   -7.1983 N   0  0  0  0  0  0  0  0  0  0  0  0
   -5.0693    9.1760   -6.5912 C   0  0  0  0  0  0  0  0  0  0  0  0
   -6.1554    9.3110   -5.5503 C   0  0  0  0  0  0  0  0  0  0  0  0
   -7.0617   10.3600   -5.5965 C   0  0  0  0  0  0  0  0  0  0  0  0
   -8.0407   10.4767   -4.6246 C   0  0  0  0  0  0  0  0  0  0  0  0
   -8.1231    9.5469   -3.6028 C   0  0  0  0  0  0  0  0  0  0  0  0
   -7.2167    8.5015   -3.5499 C   0  0  0  0  0  0  0  0  0  0  0  0
   -6.2352    8.3847   -4.5168 C   0  0  0  0  0  0  0  0  0  0  0  0
   -4.2665    6.8702   -6.6451 C   0  0  0  0  0  0  0  0  0  0  0  0
   -3.4021    7.1309   -5.8238 O   0  0  0  0  0  0  0  0  0  0  0  0
    6.2370   -4.3153    4.3442 H   0  0  0  0  0  0  0  0  0  0  0  0
    1.5669   -8.0729    6.1517 H   0  0  0  0  0  0  0  0  0  0  0  0
    6.4303   -9.4887    6.0216 H   0  0  0  0  0  0  0  0  0  0  0  0
    4.5175  -11.9043    7.5366 H   0  0  0  0  0  0  0  0  0  0  0  0
    5.1001  -12.6857    5.0574 H   0  0  0  0  0  0  0  0  0  0  0  0
    3.7536  -14.6075    6.2401 H   0  0  0  0  0  0  0  0  0  0  0  0
    1.1947  -13.8975    6.3182 H   0  0  0  0  0  0  0  0  0  0  0  0
    0.9655  -11.5379    5.1845 H   0  0  0  0  0  0  0  0  0  0  0  0
    2.8787  -12.5032    3.6300 H   0  0  0  0  0  0  0  0  0  0  0  0
    3.3487  -10.8660    4.1410 H   0  0  0  0  0  0  0  0  0  0  0  0
    2.0086  -11.2092    7.6140 H   0  0  0  0  0  0  0  0  0  0  0  0
    4.9987   -4.7390    1.5778 H   0  0  0  0  0  0  0  0  0  0  0  0
    6.2372   -6.8472    1.2611 H   0  0  0  0  0  0  0  0  0  0  0  0
   11.1619   -6.7845    1.9334 H   0  0  0  0  0  0  0  0  0  0  0  0
   10.2817   -6.9197    3.4920 H   0  0  0  0  0  0  0  0  0  0  0  0
   10.8630   -8.3786    2.6622 H   0  0  0  0  0  0  0  0  0  0  0  0
    9.8778   -4.8521    2.2879 H   0  0  0  0  0  0  0  0  0  0  0  0
    8.6458   -2.7817    2.6521 H   0  0  0  0  0  0  0  0  0  0  0  0
    5.9003   -0.1725    3.8137 H   0  0  0  0  0  0  0  0  0  0  0  0
    6.7240    1.9957    3.0724 H   0  0  0  0  0  0  0  0  0  0  0  0
    6.3471    3.9194    1.7064 H   0  0  0  0  0  0  0  0  0  0  0  0
    7.8773    3.9585    2.6449 H   0  0  0  0  0  0  0  0  0  0  0  0
    7.6815    4.9849    1.2094 H   0  0  0  0  0  0  0  0  0  0  0  0
    8.1695    0.2120   -0.5375 H   0  0  0  0  0  0  0  0  0  0  0  0
    7.3156   -1.9771    0.2064 H   0  0  0  0  0  0  0  0  0  0  0  0
   -0.9098   -1.5072    5.9990 H   0  0  0  0  0  0  0  0  0  0  0  0
   -1.5406   -3.7139    6.8615 H   0  0  0  0  0  0  0  0  0  0  0  0
   -0.3744   -7.2749    7.7001 H   0  0  0  0  0  0  0  0  0  0  0  0
    0.5164   -5.8197    7.1664 H   0  0  0  0  0  0  0  0  0  0  0  0
   -1.0543   -5.6675    8.0153 H   0  0  0  0  0  0  0  0  0  0  0  0
   -0.4075   -5.5102    3.1570 H   0  0  0  0  0  0  0  0  0  0  0  0
    0.2108   -3.2723    2.2774 H   0  0  0  0  0  0  0  0  0  0  0  0
    1.5337    1.1868    4.2603 H   0  0  0  0  0  0  0  0  0  0  0  0
    0.5602    3.3267    4.8433 H   0  0  0  0  0  0  0  0  0  0  0  0
   -0.6263    5.2132    3.6811 H   0  0  0  0  0  0  0  0  0  0  0  0
   -1.4969    6.3711    4.7138 H   0  0  0  0  0  0  0  0  0  0  0  0
   -0.1783    5.4106    5.4070 H   0  0  0  0  0  0  0  0  0  0  0  0
   -3.3608    1.6740    4.4068 H   0  0  0  0  0  0  0  0  0  0  0  0
   -2.3689   -0.5000    3.7962 H   0  0  0  0  0  0  0  0  0  0  0  0
   -1.7008   -3.4388   -0.2287 H   0  0  0  0  0  0  0  0  0  0  0  0
   -3.0204   -2.5053   -0.9910 H   0  0  0  0  0  0  0  0  0  0  0  0
   -2.5879   -2.8903    2.0239 H   0  0  0  0  0  0  0  0  0  0  0  0
   -3.9134   -1.9696    1.2915 H   0  0  0  0  0  0  0  0  0  0  0  0
   -3.8153   -3.7179    1.0580 H   0  0  0  0  0  0  0  0  0  0  0  0
   -2.4804    6.2075    1.0399 H   0  0  0  0  0  0  0  0  0  0  0  0
   -3.7703    5.8071    3.0693 H   0  0  0  0  0  0  0  0  0  0  0  0
   -6.4484    4.9119    5.4337 H   0  0  0  0  0  0  0  0  0  0  0  0
   -6.0143    5.8182    3.9652 H   0  0  0  0  0  0  0  0  0  0  0  0
   -4.7515    5.3635    5.1609 H   0  0  0  0  0  0  0  0  0  0  0  0
   -4.8845    1.9550    1.5965 H   0  0  0  0  0  0  0  0  0  0  0  0
   -3.6425    2.3696   -0.4598 H   0  0  0  0  0  0  0  0  0  0  0  0
   -0.4532    5.9060   -2.3822 H   0  0  0  0  0  0  0  0  0  0  0  0
   -0.5868    8.0996   -3.4593 H   0  0  0  0  0  0  0  0  0  0  0  0
   -1.6805    8.9930   -5.4333 H   0  0  0  0  0  0  0  0  0  0  0  0
   -0.6011   10.1293   -4.5589 H   0  0  0  0  0  0  0  0  0  0  0  0
   -1.8631   10.7594   -5.6345 H   0  0  0  0  0  0  0  0  0  0  0  0
   -4.5615    8.5884   -1.9619 H   0  0  0  0  0  0  0  0  0  0  0  0
   -4.4226    6.3760   -0.8778 H   0  0  0  0  0  0  0  0  0  0  0  0
   -1.3416   -0.4911   -6.8666 H   0  0  0  0  0  0  0  0  0  0  0  0
   -1.4897   -2.6717   -5.7896 H   0  0  0  0  0  0  0  0  0  0  0  0
   -1.9728   -5.5710   -3.6267 H   0  0  0  0  0  0  0  0  0  0  0  0
   -0.9793   -4.1494   -4.0205 H   0  0  0  0  0  0  0  0  0  0  0  0
   -2.0543   -4.8774   -5.2594 H   0  0  0  0  0  0  0  0  0  0  0  0
   -4.7733   -1.2843   -3.4212 H   0  0  0  0  0  0  0  0  0  0  0  0
   -4.6312    0.9125   -4.5277 H   0  0  0  0  0  0  0  0  0  0  0  0
   -1.1801    3.4200   -7.4293 H   0  0  0  0  0  0  0  0  0  0  0  0
   -0.6843    3.6384   -9.8008 H   0  0  0  0  0  0  0  0  0  0  0  0
   -1.1057    4.4050  -11.9980 H   0  0  0  0  0  0  0  0  0  0  0  0
   -0.4654    3.5914  -13.4420 H   0  0  0  0  0  0  0  0  0  0  0  0
    0.3399    3.3470  -11.8778 H   0  0  0  0  0  0  0  0  0  0  0  0
   -3.3182    0.3777  -10.6567 H   0  0  0  0  0  0  0  0  0  0  0  0
   -3.8289    0.1676   -8.2546 H   0  0  0  0  0  0  0  0  0  0  0  0
   -4.3073    3.5322   -7.5279 H   0  0  0  0  0  0  0  0  0  0  0  0
   -4.0950    9.2698   -6.1013 H   0  0  0  0  0  0  0  0  0  0  0  0
   -5.1630    9.9405   -7.3623 H   0  0  0  0  0  0  0  0  0  0  0  0
   -7.0060   11.0856   -6.3937 H   0  0  0  0  0  0  0  0  0  0  0  0
   -8.7417   11.2964   -4.6695 H   0  0  0  0  0  0  0  0  0  0  0  0
   -8.8893    9.6378   -2.8472 H   0  0  0  0  0  0  0  0  0  0  0  0
   -7.2700    7.7754   -2.7516 H   0  0  0  0  0  0  0  0  0  0  0  0
   -5.5195    7.5776   -4.4551 H   0  0  0  0  0  0  0  0  0  0  0  0
  1  2  2  0  0  0  0
  2  3  1  0  0  0  0
  3  4  2  0  0  0  0
  3  5  1  0  0  0  0
  5  6  2  0  0  0  0
  6  7  1  0  0  0  0
  7  8  2  0  0  0  0
  8  9  1  0  0  0  0
  9 10  2  0  0  0  0
 10 11  1  0  0  0  0
 11 12  2  0  0  0  0
 12 13  1  0  0  0  0
 13 14  3  0  0  0  0
 12 15  1  0  0  0  0
 15 16  3  0  0  0  0
  8 17  1  0  0  0  0
 17 18  1  0  0  0  0
 18 19  1  0  0  0  0
 19 20  2  0  0  0  0
 20 21  1  0  0  0  0
 21 22  1  0  0  0  0
 21 23  1  0  0  0  0
  1 24  1  0  0  0  0
 24 25  2  0  0  0  0
 25 26  1  0  0  0  0
 26 27  1  0  0  0  0
 27 28  2  0  0  0  0
 28 29  1  0  0  0  0
 29 30  2  0  0  0  0
 30 31  1  0  0  0  0
 31 32  1  0  0  0  0
 30 33  1  0  0  0  0
 33 34  2  0  0  0  0
 26 35  1  0  0  0  0
 35 36  2  0  0  0  0
 36 37  1  0  0  0  0
 37 38  2  0  0  0  0
 38 39  1  0  0  0  0
 39 40  1  0  0  0  0
 38 41  1  0  0  0  0
 41 42  2  0  0  0  0
 25 43  1  0  0  0  0
 43 44  1  0  0  0  0
 44 45  1  0  0  0  0
 45 46  2  0  0  0  0
 46 47  1  0  0  0  0
 47 48  1  0  0  0  0
 48 49  2  0  0  0  0
 49 50  1  0  0  0  0
 50 51  2  0  0  0  0
 51 52  1  0  0  0  0
 52 53  1  0  0  0  0
 51 54  1  0  0  0  0
 54 55  2  0  0  0  0
 47 56  1  0  0  0  0
 56 57  2  0  0  0  0
 57 58  1  0  0  0  0
 58 59  2  0  0  0  0
 59 60  1  0  0  0  0
 60 61  1  0  0  0  0
 59 62  1  0  0  0  0
 62 63  2  0  0  0  0
 46 64  1  0  0  0  0
 64 65  1  0  0  0  0
 45 66  1  0  0  0  0
 66 67  1  0  0  0  0
 67 68  2  0  0  0  0
 68 69  1  0  0  0  0
 69 70  1  0  0  0  0
 70 71  1  0  0  0  0
 69 72  1  0  0  0  0
 72 73  2  0  0  0  0
 73 74  1  0  0  0  0
 74 75  2  0  0  0  0
 75 76  1  0  0  0  0
 76 77  1  0  0  0  0
 75 78  1  0  0  0  0
 74 79  1  0  0  0  0
 79 80  2  0  0  0  0
 80 81  1  0  0  0  0
 81 82  1  0  0  0  0
 82 83  2  0  0  0  0
 83 84  1  0  0  0  0
 84 85  2  0  0  0  0
 85 86  1  0  0  0  0
 86 87  1  0  0  0  0
 85 88  1  0  0  0  0
 88 89  2  0  0  0  0
 81 90  1  0  0  0  0
 90 91  2  0  0  0  0
 91 92  1  0  0  0  0
 92 93  2  0  0  0  0
 93 94  1  0  0  0  0
 94 95  1  0  0  0  0
 93 96  1  0  0  0  0
 96 97  2  0  0  0  0
 80 98  1  0  0  0  0
 98 99  1  0  0  0  0
 99100  1  0  0  0  0
100101  2  0  0  0  0
101102  1  0  0  0  0
102103  1  0  0  0  0
103104  2  0  0  0  0
104105  1  0  0  0  0
105106  2  0  0  0  0
106107  1  0  0  0  0
107108  1  0  0  0  0
106109  1  0  0  0  0
109110  2  0  0  0  0
102111  1  0  0  0  0
111112  2  0  0  0  0
112113  1  0  0  0  0
113114  2  0  0  0  0
114115  1  0  0  0  0
115116  1  0  0  0  0
114117  1  0  0  0  0
117118  2  0  0  0  0
101119  1  0  0  0  0
119120  1  0  0  0  0
100121  1  0  0  0  0
121122  2  0  0  0  0
122123  1  0  0  0  0
123124  1  0  0  0  0
124125  2  0  0  0  0
125126  1  0  0  0  0
126127  3  0  0  0  0
125128  1  0  0  0  0
128129  3  0  0  0  0
124130  1  0  0  0  0
130131  1  0  0  0  0
131132  1  0  0  0  0
132133  2  0  0  0  0
133134  1  0  0  0  0
134135  2  0  0  0  0
135136  1  0  0  0  0
136137  2  0  0  0  0
130138  1  0  0  0  0
138139  2  0  0  0  0
 11  2  1  0  0  0  0
 23 17  1  0  0  0  0
 65 24  1  0  0  0  0
 76 66  2  0  0  0  0
120 79  1  0  0  0  0
138122  1  0  0  0  0
 10  5  1  0  0  0  0
 22 18  1  0  0  0  0
 34 27  1  0  0  0  0
 42 35  1  0  0  0  0
 64 43  2  0  0  0  0
 73 67  1  0  0  0  0
 89 82  1  0  0  0  0
 97 90  1  0  0  0  0
119 98  2  0  0  0  0
137132  1  0  0  0  0
 23  7  1  0  0  0  0
 55 48  1  0  0  0  0
 63 56  1  0  0  0  0
110103  1  0  0  0  0
118111  1  0  0  0  0
  1140  1  0  0  0  0
  6141  1  0  0  0  0
  9142  1  0  0  0  0
 17143  1  0  0  0  0
 18144  1  0  0  0  0
 19145  1  0  0  0  0
 20146  1  0  0  0  0
 21147  1  0  0  0  0
 22148  1  0  0  0  0
 22149  1  0  0  0  0
 23150  1  0  0  0  0
 28151  1  0  0  0  0
 29152  1  0  0  0  0
 32153  1  0  0  0  0
 32154  1  0  0  0  0
 32155  1  0  0  0  0
 33156  1  0  0  0  0
 34157  1  0  0  0  0
 36158  1  0  0  0  0
 37159  1  0  0  0  0
 40160  1  0  0  0  0
 40161  1  0  0  0  0
 40162  1  0  0  0  0
 41163  1  0  0  0  0
 42164  1  0  0  0  0
 49165  1  0  0  0  0
 50166  1  0  0  0  0
 53167  1  0  0  0  0
 53168  1  0  0  0  0
 53169  1  0  0  0  0
 54170  1  0  0  0  0
 55171  1  0  0  0  0
 57172  1  0  0  0  0
 58173  1  0  0  0  0
 61174  1  0  0  0  0
 61175  1  0  0  0  0
 61176  1  0  0  0  0
 62177  1  0  0  0  0
 63178  1  0  0  0  0
 70179  1  0  0  0  0
 70180  1  0  0  0  0
 71181  1  0  0  0  0
 71182  1  0  0  0  0
 71183  1  0  0  0  0
 83184  1  0  0  0  0
 84185  1  0  0  0  0
 87186  1  0  0  0  0
 87187  1  0  0  0  0
 87188  1  0  0  0  0
 88189  1  0  0  0  0
 89190  1  0  0  0  0
 91191  1  0  0  0  0
 92192  1  0  0  0  0
 95193  1  0  0  0  0
 95194  1  0  0  0  0
 95195  1  0  0  0  0
 96196  1  0  0  0  0
 97197  1  0  0  0  0
104198  1  0  0  0  0
105199  1  0  0  0  0
108200  1  0  0  0  0
108201  1  0  0  0  0
108202  1  0  0  0  0
109203  1  0  0  0  0
110204  1  0  0  0  0
112205  1  0  0  0  0
113206  1  0  0  0  0
116207  1  0  0  0  0
116208  1  0  0  0  0
116209  1  0  0  0  0
117210  1  0  0  0  0
118211  1  0  0  0  0
121212  1  0  0  0  0
131213  1  0  0  0  0
131214  1  0  0  0  0
133215  1  0  0  0  0
134216  1  0  0  0  0
135217  1  0  0  0  0
136218  1  0  0  0  0
137219  1  0  0  0  0
M  END
