215

C         -6.41930       -2.19490       -2.38780
C         -6.63400       -2.50610       -3.70910
C         -5.61850       -2.83290       -4.72140
O         -4.43620       -2.54470       -4.72040
C         -6.32560       -3.59950       -5.76740
C         -5.76510       -4.22290       -6.87960
C         -6.67710       -4.88230       -7.66940
C         -8.04650       -4.92210       -7.37640
C         -8.61530       -4.30210       -6.28850
C         -7.70410       -3.62410       -5.47530
C         -7.92490       -2.83170       -4.26960
C         -9.13450       -2.34910       -3.83440
C         -9.25550       -1.30800       -2.89820
N         -9.41480       -0.38650       -2.22980
C        -10.38090       -2.71660       -4.37660
N        -11.42590       -2.99230       -4.76560
C         -8.36410       -5.76180       -8.58850
C         -8.99790       -5.02730       -9.78860
C         -8.74990       -5.95760      -10.95400
C         -7.45360       -5.91590      -11.23460
C         -6.80370       -4.95680      -10.26340
C         -7.94660       -3.94940      -10.08290
C         -6.83760       -5.71360       -8.91850
C         -5.21390       -1.93500       -1.72280
C         -5.01900       -2.00610       -0.32280
N         -5.96010       -2.42090        0.59780
C         -7.26310       -1.89450        0.58440
C         -8.36660       -2.72070        0.80300
C         -9.63490       -2.18630        0.82930
C         -9.83060       -0.82020        0.63400
S        -11.48670       -0.22990        0.70300
C        -11.39820        1.32660       -0.22790
C         -8.73240        0.00440        0.41580
C         -7.46140       -0.53020        0.38710
C         -5.59520       -3.33560        1.59380
C         -4.61220       -4.29660        1.34990
C         -4.29540       -5.22760        2.31220
C         -4.96750       -5.24340        3.53250
S         -4.51540       -6.51710        4.66600
C         -5.54480       -6.19400        6.12570
C         -5.94270       -4.28800        3.78290
C         -6.23700       -3.33420        2.83000
C         -3.69720       -1.67640        0.02080
S         -2.81980       -1.56320        1.51860
C         -1.39810       -0.97620        0.66030
C         -1.59280       -0.96180       -0.71550
N         -0.59730       -0.68070       -1.64390
C         -0.89890        0.16550       -2.71320
C         -1.80270        1.21370       -2.53480
C         -2.13460        2.03310       -3.58970
C         -1.56150        1.83660       -4.84280
S         -2.06310        2.93630       -6.13110
C         -0.79410        2.69540       -7.40720
C         -0.65640        0.80020       -5.02410
C         -0.33200       -0.02850       -3.96990
C          0.65100       -1.29900       -1.51170
C          0.75680       -2.59790       -1.01430
C          1.99680       -3.16840       -0.82260
C          3.15820       -2.45010       -1.10240
S          4.70210       -3.22970       -0.73690
C          5.87620       -1.84620       -0.70720
C          3.05650       -1.17480       -1.64070
C          1.81390       -0.61120       -1.84670
C         -2.90780       -1.32860       -1.06820
S         -3.73330       -1.48240       -2.56860
C         -0.22640       -0.45100        1.28920
C          0.53200       -0.88440        2.36440
N          0.27010       -1.98180        3.17650
C         -0.93390       -2.06980        3.87560
C         -1.42610       -3.31110        4.28230
C         -2.59190       -3.39130        5.00790
C         -3.30710       -2.23970        5.32260
S         -4.78300       -2.42300        6.27920
C         -5.76220       -0.97640        5.78320
C         -2.83010       -1.00340        4.91650
C         -1.65180       -0.91980        4.20160
C          1.36270       -2.80250        3.50320
C          2.30660       -3.08720        2.52120
C          3.40530       -3.87640        2.79370
C          3.57760       -4.40190        4.06640
S          4.93130       -5.43290        4.53190
C          5.90420       -5.58550        3.00670
C          2.64140       -4.11130        5.05790
C          1.54990       -3.31710        4.78600
C          1.68910       -0.08180        2.53110
S          3.00290       -0.11970        3.65400
C          3.70480        1.28760        2.88620
C          2.90780        1.81540        1.87600
N          3.09540        3.04010        1.27230
C          3.74170        4.09810        1.92060
C          3.62320        4.28580        3.29810
C          4.36500        5.25330        3.94300
C          5.20950        6.08180        3.21510
S          6.28590        7.27040        3.95440
C          6.31500        6.79720        5.70840
C          5.23060        5.98620        1.82640
C          4.51910        4.99400        1.18770
C          2.59690        3.25600       -0.03240
C          3.01720        2.45730       -1.09150
C          2.55690        2.70650       -2.36610
C          1.64560        3.73400       -2.60190
S          1.11960        3.94460       -4.26860
C         -0.16760        5.21730       -4.16600
C          1.22500        4.53090       -1.54450
C          1.70830        4.29800       -0.27180
C          1.78070        0.98730        1.65650
S          0.44250        1.02180        0.56820
C          4.97460        1.80370        3.31730
C          5.25930        2.08980        4.67060
C          6.43280        2.84470        5.03470
N          6.44170        3.13830        6.33550
S          5.13990        2.49360        7.02970
N          4.47300        1.84950        5.71810
C          7.37950        3.28270        4.07550
C          7.18990        2.79140        2.77250
C          8.09980        2.82230        1.68350
C          7.59480        2.26240        0.55130
C          8.21080        2.08220       -0.76400
O          7.66300        1.51620       -1.68230
O          9.43470        2.60800       -0.81910
C         10.11950        2.51230       -2.07020
C         11.19020        3.58600       -2.11610
S          5.97230        1.67120        0.74300
C          5.98740        2.12380        2.42130
C          8.39010        4.18630        4.51840
C          8.94510        5.23930        3.85600
C          8.53650        5.79680        2.53480
O          7.79150        5.31200        1.70790
C          9.24060        7.08690        2.43490
C          9.31120        8.15380        1.52820
C         10.15820        9.12420        1.99060
Cl        10.53990       10.58730        1.20750
S         10.88370        8.75320        3.53460
C         10.02810        7.26410        3.56090
C          9.91150        6.15370        4.45940
C         10.61200        6.01610        5.63150
C         10.56420        4.91300        6.50440
N         10.59260        4.04670        7.25790
C         11.50260        7.02530        6.05360
N         12.22430        7.84410        6.40900
H         -7.29340       -2.22850       -1.74500
H         -4.70400       -4.17300       -7.06810
H         -9.66950       -4.34180       -6.06890
H         -8.82340       -6.72830       -8.38940
H        -10.02200       -4.69970       -9.63220
H         -9.50790       -6.57210      -11.40320
H         -6.91270       -6.48880      -11.96490
H         -5.82900       -4.56460      -10.54130
H         -8.16260       -3.40340      -10.99970
H         -7.79310       -3.24530       -9.26730
H         -6.28010       -6.64840       -8.94230
H         -8.21840       -3.78160        0.94170
H        -10.49190       -2.82220        0.98910
H        -12.42300        1.58250       -0.47800
H        -10.96280        2.11060        0.38520
H        -10.82040        1.15320       -1.13010
H         -8.85830        1.06410        0.27090
H         -6.60820        0.10990        0.21590
H         -4.11170       -4.32330        0.39350
H         -3.53700       -5.97100        2.12050
H         -5.25280       -6.94110        6.85720
H         -5.34200       -5.19830        6.51030
H         -6.59380       -6.31680        5.87290
H         -6.47600       -4.26860        4.71830
H         -6.98950       -2.58920        3.04190
H         -2.23520        1.38460       -1.56010
H         -2.84190        2.83770       -3.45440
H         -0.91750        1.72620       -7.88170
H         -0.95530        3.48230       -8.13760
H          0.18960        2.79680       -6.95790
H         -0.20750        0.61700       -5.98650
H          0.35550       -0.84620       -4.12550
H         -0.13520       -3.15680       -0.77370
H          2.07850       -4.17710       -0.44690
H          6.05430       -1.46670       -1.70860
H          6.79900       -2.25260       -0.30480
H          5.49990       -1.06360       -0.05530
H          3.93800       -0.61030       -1.89880
H          1.73170        0.38470       -2.24910
H         -0.88920       -4.21070        4.02420
H         -2.95560       -4.35130        5.33530
H         -5.40640       -0.08540        6.29240
H         -6.78400       -1.18460        6.08470
H         -5.70310       -0.86470        4.70480
H         -3.35620       -0.09550        5.16590
H         -1.27450        0.04880        3.90860
H          2.17560       -2.68500        1.52850
H          4.10720       -4.07240        2.00010
H          6.74410       -6.22500        3.25960
H          5.30690       -6.05040        2.22810
H          6.26320       -4.60890        2.69570
H          2.78790       -4.51040        6.04980
H          0.84500       -3.08530        5.56970
H          2.95800        3.65740        3.87160
H          4.27040        5.35800        5.01260
H          6.53980        5.73820        5.80420
H          7.10810        7.38690        6.15840
H          5.36790        7.04530        6.17850
H          5.82920        6.67640        1.25570
H          4.58340        4.89170        0.11540
H          3.71910        1.65950       -0.90720
H          2.90860        2.12030       -3.20180
H          0.26660        6.16470       -3.86010
H         -0.57860        5.30350       -5.16690
H         -0.94420        4.89060       -3.48150
H          0.52860        5.33880       -1.69860
H          1.39560        4.92810        0.54790
H          9.10500        3.19390        1.74780
H          9.39200        2.63300       -2.88040
H         10.55940        1.51130       -2.14900
H         11.89350        3.44880       -1.29900
H         11.72490        3.52680       -3.05960
H         10.73760        4.56990       -2.02350
H          8.63580        4.07130        5.56850
H          8.77850        8.21170        0.59810
