
  xtb     02082218553D
 energy: -275.079637456645 gnorm: 0.000784479081 xtb: 6.4.1 (unknown)
162180  0     0  0            999 V2000
   -4.4754   -3.9314    2.8493 C   0  0  0  0  0  0  0  0  0  0  0  0
   -4.7330   -4.4706    1.6249 C   0  0  0  0  0  0  0  0  0  0  0  0
   -3.8691   -4.3089    0.4267 C   0  0  0  0  0  0  0  0  0  0  0  0
   -2.7853   -3.7690    0.3415 O   0  0  0  0  0  0  0  0  0  0  0  0
   -4.6587   -4.8315   -0.7045 C   0  0  0  0  0  0  0  0  0  0  0  0
   -4.2725   -4.8618   -2.0423 C   0  0  0  0  0  0  0  0  0  0  0  0
   -5.2204   -5.3846   -2.8881 C   0  0  0  0  0  0  0  0  0  0  0  0
   -6.4704   -5.8314   -2.4393 C   0  0  0  0  0  0  0  0  0  0  0  0
   -6.8682   -5.7987   -1.1241 C   0  0  0  0  0  0  0  0  0  0  0  0
   -5.9121   -5.2812   -0.2450 C   0  0  0  0  0  0  0  0  0  0  0  0
   -5.9710   -5.0934    1.2013 C   0  0  0  0  0  0  0  0  0  0  0  0
   -6.9890   -5.5066    2.0220 C   0  0  0  0  0  0  0  0  0  0  0  0
   -6.9967   -5.3812    3.4270 C   0  0  0  0  0  0  0  0  0  0  0  0
   -7.0836   -5.3251    4.5711 N   0  0  0  0  0  0  0  0  0  0  0  0
   -8.1668   -6.1417    1.5785 C   0  0  0  0  0  0  0  0  0  0  0  0
   -9.1529   -6.6547    1.2894 N   0  0  0  0  0  0  0  0  0  0  0  0
   -6.9156   -6.2270   -3.8252 C   0  0  0  0  0  0  0  0  0  0  0  0
   -6.8967   -7.7329   -4.1858 C   0  0  0  0  0  0  0  0  0  0  0  0
   -5.8452   -8.3691   -3.3112 C   0  0  0  0  0  0  0  0  0  0  0  0
   -4.6598   -7.9505   -3.7339 C   0  0  0  0  0  0  0  0  0  0  0  0
   -4.8885   -7.0238   -4.9023 C   0  0  0  0  0  0  0  0  0  0  0  0
   -6.1376   -7.6713   -5.5209 C   0  0  0  0  0  0  0  0  0  0  0  0
   -5.5211   -5.7334   -4.3244 C   0  0  0  0  0  0  0  0  0  0  0  0
   -3.1986   -3.4417    3.2592 C   0  0  0  0  0  0  0  0  0  0  0  0
   -3.0776   -2.2641    3.9924 C   0  0  0  0  0  0  0  0  0  0  0  0
   -1.8504   -1.6615    4.1952 C   0  0  0  0  0  0  0  0  0  0  0  0
   -1.8396   -0.4654    4.8284 F   0  0  0  0  0  0  0  0  0  0  0  0
   -0.6292   -2.1851    3.7559 C   0  0  0  0  0  0  0  0  0  0  0  0
   -0.7173   -3.4628    3.1342 C   0  0  0  0  0  0  0  0  0  0  0  0
   -1.9889   -4.0891    2.8989 C   0  0  0  0  0  0  0  0  0  0  0  0
   -1.8564   -5.2854    2.3370 N   0  0  0  0  0  0  0  0  0  0  0  0
   -0.2983   -5.5588    2.0548 S   0  0  0  0  0  0  0  0  0  0  0  0
    0.2927   -4.1866    2.6657 N   0  0  0  0  0  0  0  0  0  0  0  0
    0.5745   -1.4616    3.7638 C   0  0  0  0  0  0  0  0  0  0  0  0
    1.8970   -1.7477    3.4603 C   0  0  0  0  0  0  0  0  0  0  0  0
    2.6841   -2.8301    3.6054 N   0  0  0  0  0  0  0  0  0  0  0  0
    3.9829   -2.8173    3.0472 C   0  0  0  0  0  0  0  0  0  0  0  0
    5.0830   -3.0904    3.8575 C   0  0  0  0  0  0  0  0  0  0  0  0
    6.3540   -3.0462    3.3306 C   0  0  0  0  0  0  0  0  0  0  0  0
    6.5471   -2.7368    1.9856 C   0  0  0  0  0  0  0  0  0  0  0  0
    8.2075   -2.6978    1.3980 S   0  0  0  0  0  0  0  0  0  0  0  0
    8.1046   -1.5700   -0.0213 C   0  0  0  0  0  0  0  0  0  0  0  0
    5.4468   -2.5071    1.1692 C   0  0  0  0  0  0  0  0  0  0  0  0
    4.1717   -2.5366    1.6998 C   0  0  0  0  0  0  0  0  0  0  0  0
    2.3054   -3.9427    4.3722 C   0  0  0  0  0  0  0  0  0  0  0  0
    1.5035   -3.8132    5.5065 C   0  0  0  0  0  0  0  0  0  0  0  0
    1.1309   -4.9284    6.2203 C   0  0  0  0  0  0  0  0  0  0  0  0
    1.5541   -6.1989    5.8287 C   0  0  0  0  0  0  0  0  0  0  0  0
    0.9866   -7.5472    6.8069 S   0  0  0  0  0  0  0  0  0  0  0  0
    1.7079   -9.0087    6.0074 C   0  0  0  0  0  0  0  0  0  0  0  0
    2.3838   -6.3264    4.7208 C   0  0  0  0  0  0  0  0  0  0  0  0
    2.7594   -5.2081    4.0061 C   0  0  0  0  0  0  0  0  0  0  0  0
    2.2811   -0.4189    3.0064 C   0  0  0  0  0  0  0  0  0  0  0  0
    6.0570    0.9826    2.0213 S   0  0  0  0  0  0  0  0  0  0  0  0
    4.7883    1.5069    1.0916 C   0  0  0  0  0  0  0  0  0  0  0  0
    3.5424    0.7499    1.0909 C   0  0  0  0  0  0  0  0  0  0  0  0
    2.7591    0.7423   -0.0722 N   0  0  0  0  0  0  0  0  0  0  0  0
    1.3775    0.4368    0.1210 C   0  0  0  0  0  0  0  0  0  0  0  0
    0.5336    1.4297    0.5940 C   0  0  0  0  0  0  0  0  0  0  0  0
   -0.7935    1.1521    0.8602 C   0  0  0  0  0  0  0  0  0  0  0  0
   -1.2824   -0.1350    0.6749 C   0  0  0  0  0  0  0  0  0  0  0  0
   -2.9444   -0.6090    1.0176 S   0  0  0  0  0  0  0  0  0  0  0  0
   -3.5728    0.7765    2.0169 C   0  0  0  0  0  0  0  0  0  0  0  0
   -0.4408   -1.1295    0.1773 C   0  0  0  0  0  0  0  0  0  0  0  0
    0.8786   -0.8437   -0.1031 C   0  0  0  0  0  0  0  0  0  0  0  0
    3.3199    0.4470   -1.3238 C   0  0  0  0  0  0  0  0  0  0  0  0
    4.6216   -0.0275   -1.4725 C   0  0  0  0  0  0  0  0  0  0  0  0
    5.1377   -0.2632   -2.7279 C   0  0  0  0  0  0  0  0  0  0  0  0
    4.3668   -0.0405   -3.8661 C   0  0  0  0  0  0  0  0  0  0  0  0
    5.1380   -0.3937   -5.4148 S   0  0  0  0  0  0  0  0  0  0  0  0
    3.8593   -0.0056   -6.6421 C   0  0  0  0  0  0  0  0  0  0  0  0
    3.0703    0.4363   -3.7239 C   0  0  0  0  0  0  0  0  0  0  0  0
    2.5565    0.6835   -2.4665 C   0  0  0  0  0  0  0  0  0  0  0  0
    3.1112    0.0796    2.1527 C   0  0  0  0  0  0  0  0  0  0  0  0
    0.7389    0.3314    3.6766 S   0  0  0  0  0  0  0  0  0  0  0  0
    4.8379    2.7076    0.3337 C   0  0  0  0  0  0  0  0  0  0  0  0
    5.9445    3.5413    0.2291 C   0  0  0  0  0  0  0  0  0  0  0  0
    5.7556    4.7168   -0.4803 C   0  0  0  0  0  0  0  0  0  0  0  0
    6.8664    5.7106   -0.6277 C   0  0  0  0  0  0  0  0  0  0  0  0
    6.7677    6.8034    0.4408 C   0  0  0  0  0  0  0  0  0  0  0  0
    4.4457    4.9051   -0.9737 C   0  0  0  0  0  0  0  0  0  0  0  0
    3.3525    3.4329   -0.5404 Se  0  0  0  0  0  2  0  0  0  0  0  0
    4.0820    6.0567   -1.6908 C   0  0  0  0  0  0  0  0  0  0  0  0
    2.8757    6.4446   -2.2189 C   0  0  0  0  0  0  0  0  0  0  0  0
    1.6258    5.6942   -2.1460 C   0  0  0  0  0  0  0  0  0  0  0  0
    1.4534    4.5956   -1.6311 O   0  0  0  0  0  0  0  0  0  0  0  0
    0.6015    6.5060   -2.8141 C   0  0  0  0  0  0  0  0  0  0  0  0
   -0.7453    6.1893   -2.9827 C   0  0  0  0  0  0  0  0  0  0  0  0
   -1.4648    7.1510   -3.6501 C   0  0  0  0  0  0  0  0  0  0  0  0
   -0.8870    8.3394   -4.1167 C   0  0  0  0  0  0  0  0  0  0  0  0
    0.4413    8.6610   -3.9617 C   0  0  0  0  0  0  0  0  0  0  0  0
    1.1935    7.6972   -3.2836 C   0  0  0  0  0  0  0  0  0  0  0  0
    2.6142    7.6813   -2.9343 C   0  0  0  0  0  0  0  0  0  0  0  0
    3.5167    8.6652   -3.2456 C   0  0  0  0  0  0  0  0  0  0  0  0
    3.2006    9.8470   -3.9495 C   0  0  0  0  0  0  0  0  0  0  0  0
    3.0223   10.8304   -4.5143 N   0  0  0  0  0  0  0  0  0  0  0  0
    4.8909    8.6586   -2.9251 C   0  0  0  0  0  0  0  0  0  0  0  0
    6.0171    8.7347   -2.7103 N   0  0  0  0  0  0  0  0  0  0  0  0
   -2.1907    8.8457   -4.6812 C   0  0  0  0  0  0  0  0  0  0  0  0
   -2.9246    9.9262   -3.8586 C   0  0  0  0  0  0  0  0  0  0  0  0
   -4.3439    9.8722   -4.3767 C   0  0  0  0  0  0  0  0  0  0  0  0
   -4.8913    8.7462   -3.9372 C   0  0  0  0  0  0  0  0  0  0  0  0
   -3.8514    8.0202   -3.1146 C   0  0  0  0  0  0  0  0  0  0  0  0
   -3.1098    9.2192   -2.5096 C   0  0  0  0  0  0  0  0  0  0  0  0
   -2.8345    7.5197   -4.1626 C   0  0  0  0  0  0  0  0  0  0  0  0
   -5.2903   -3.7915    3.5488 H   0  0  0  0  0  0  0  0  0  0  0  0
   -3.3034   -4.4976   -2.3460 H   0  0  0  0  0  0  0  0  0  0  0  0
   -7.8373   -6.1356   -0.7958 H   0  0  0  0  0  0  0  0  0  0  0  0
   -7.8010   -5.7207   -4.2047 H   0  0  0  0  0  0  0  0  0  0  0  0
   -7.8733   -8.2093   -4.1860 H   0  0  0  0  0  0  0  0  0  0  0  0
   -6.0675   -8.9919   -2.4646 H   0  0  0  0  0  0  0  0  0  0  0  0
   -3.6935   -8.1534   -3.3104 H   0  0  0  0  0  0  0  0  0  0  0  0
   -4.0363   -6.8554   -5.5558 H   0  0  0  0  0  0  0  0  0  0  0  0
   -6.6249   -7.0468   -6.2687 H   0  0  0  0  0  0  0  0  0  0  0  0
   -5.9384   -8.6572   -5.9383 H   0  0  0  0  0  0  0  0  0  0  0  0
   -5.4963   -4.9067   -5.0322 H   0  0  0  0  0  0  0  0  0  0  0  0
   -3.9634   -1.7521    4.3364 H   0  0  0  0  0  0  0  0  0  0  0  0
    4.9327   -3.3180    4.9023 H   0  0  0  0  0  0  0  0  0  0  0  0
    7.2132   -3.2359    3.9544 H   0  0  0  0  0  0  0  0  0  0  0  0
    7.5744   -0.6723    0.2842 H   0  0  0  0  0  0  0  0  0  0  0  0
    9.1299   -1.3244   -0.2793 H   0  0  0  0  0  0  0  0  0  0  0  0
    7.6208   -2.0546   -0.8644 H   0  0  0  0  0  0  0  0  0  0  0  0
    5.5733   -2.3241    0.1145 H   0  0  0  0  0  0  0  0  0  0  0  0
    3.3135   -2.3776    1.0650 H   0  0  0  0  0  0  0  0  0  0  0  0
    1.1805   -2.8381    5.8349 H   0  0  0  0  0  0  0  0  0  0  0  0
    0.5069   -4.8311    7.0954 H   0  0  0  0  0  0  0  0  0  0  0  0
    1.3704   -9.8567    6.5953 H   0  0  0  0  0  0  0  0  0  0  0  0
    1.3389   -9.0958    4.9897 H   0  0  0  0  0  0  0  0  0  0  0  0
    2.7921   -8.9514    6.0342 H   0  0  0  0  0  0  0  0  0  0  0  0
    2.7386   -7.2918    4.3988 H   0  0  0  0  0  0  0  0  0  0  0  0
    3.3889   -5.3169    3.1363 H   0  0  0  0  0  0  0  0  0  0  0  0
    0.9252    2.4263    0.7476 H   0  0  0  0  0  0  0  0  0  0  0  0
   -1.4284    1.9423    1.2245 H   0  0  0  0  0  0  0  0  0  0  0  0
   -2.8983    0.9661    2.8461 H   0  0  0  0  0  0  0  0  0  0  0  0
   -3.6997    1.6617    1.4009 H   0  0  0  0  0  0  0  0  0  0  0  0
   -4.5393    0.4521    2.3900 H   0  0  0  0  0  0  0  0  0  0  0  0
   -0.8397   -2.1221    0.0323 H   0  0  0  0  0  0  0  0  0  0  0  0
    1.5307   -1.6148   -0.4885 H   0  0  0  0  0  0  0  0  0  0  0  0
    5.2324   -0.2128   -0.6035 H   0  0  0  0  0  0  0  0  0  0  0  0
    6.1478   -0.6268   -2.8419 H   0  0  0  0  0  0  0  0  0  0  0  0
    3.5953    1.0464   -6.5843 H   0  0  0  0  0  0  0  0  0  0  0  0
    2.9920   -0.6412   -6.4892 H   0  0  0  0  0  0  0  0  0  0  0  0
    4.3080   -0.2201   -7.6072 H   0  0  0  0  0  0  0  0  0  0  0  0
    2.4501    0.6308   -4.5837 H   0  0  0  0  0  0  0  0  0  0  0  0
    1.5537    1.0690   -2.3592 H   0  0  0  0  0  0  0  0  0  0  0  0
    6.8882    3.2780    0.6791 H   0  0  0  0  0  0  0  0  0  0  0  0
    7.8171    5.1875   -0.5102 H   0  0  0  0  0  0  0  0  0  0  0  0
    6.8605    6.1705   -1.6175 H   0  0  0  0  0  0  0  0  0  0  0  0
    6.8061    6.3648    1.4355 H   0  0  0  0  0  0  0  0  0  0  0  0
    5.8366    7.3575    0.3448 H   0  0  0  0  0  0  0  0  0  0  0  0
    7.5939    7.5007    0.3332 H   0  0  0  0  0  0  0  0  0  0  0  0
    4.8974    6.7532   -1.8341 H   0  0  0  0  0  0  0  0  0  0  0  0
   -1.1463    5.2601   -2.6093 H   0  0  0  0  0  0  0  0  0  0  0  0
    0.8673    9.5778   -4.3330 H   0  0  0  0  0  0  0  0  0  0  0  0
   -2.1987    9.0468   -5.7506 H   0  0  0  0  0  0  0  0  0  0  0  0
   -2.4420   10.8995   -3.8530 H   0  0  0  0  0  0  0  0  0  0  0  0
   -4.7712   10.6074   -5.0327 H   0  0  0  0  0  0  0  0  0  0  0  0
   -5.8674    8.3528   -4.1528 H   0  0  0  0  0  0  0  0  0  0  0  0
   -4.2135    7.2572   -2.4309 H   0  0  0  0  0  0  0  0  0  0  0  0
   -3.7384    9.7907   -1.8289 H   0  0  0  0  0  0  0  0  0  0  0  0
   -2.1770    8.9596   -2.0121 H   0  0  0  0  0  0  0  0  0  0  0  0
   -3.2712    6.8344   -4.8866 H   0  0  0  0  0  0  0  0  0  0  0  0
  1  2  2  0  0  0  0
  2  3  1  0  0  0  0
  3  4  2  0  0  0  0
  3  5  1  0  0  0  0
  5  6  2  0  0  0  0
  6  7  1  0  0  0  0
  7  8  2  0  0  0  0
  8  9  1  0  0  0  0
  9 10  2  0  0  0  0
 10 11  1  0  0  0  0
 11 12  2  0  0  0  0
 12 13  1  0  0  0  0
 13 14  3  0  0  0  0
 12 15  1  0  0  0  0
 15 16  3  0  0  0  0
  8 17  1  0  0  0  0
 17 18  1  0  0  0  0
 18 19  1  0  0  0  0
 19 20  2  0  0  0  0
 20 21  1  0  0  0  0
 21 22  1  0  0  0  0
 21 23  1  0  0  0  0
  1 24  1  0  0  0  0
 24 25  2  0  0  0  0
 25 26  1  0  0  0  0
 26 27  1  0  0  0  0
 26 28  2  0  0  0  0
 28 29  1  0  0  0  0
 29 30  1  0  0  0  0
 30 31  2  0  0  0  0
 31 32  1  0  0  0  0
 32 33  1  0  0  0  0
 28 34  1  0  0  0  0
 34 35  2  0  0  0  0
 35 36  1  0  0  0  0
 36 37  1  0  0  0  0
 37 38  2  0  0  0  0
 38 39  1  0  0  0  0
 39 40  2  0  0  0  0
 40 41  1  0  0  0  0
 41 42  1  0  0  0  0
 40 43  1  0  0  0  0
 43 44  2  0  0  0  0
 36 45  1  0  0  0  0
 45 46  2  0  0  0  0
 46 47  1  0  0  0  0
 47 48  2  0  0  0  0
 48 49  1  0  0  0  0
 49 50  1  0  0  0  0
 48 51  1  0  0  0  0
 51 52  2  0  0  0  0
 35 53  1  0  0  0  0
 53 54  1  0  0  0  0
 54 55  1  0  0  0  0
 55 56  2  0  0  0  0
 56 57  1  0  0  0  0
 57 58  1  0  0  0  0
 58 59  2  0  0  0  0
 59 60  1  0  0  0  0
 60 61  2  0  0  0  0
 61 62  1  0  0  0  0
 62 63  1  0  0  0  0
 61 64  1  0  0  0  0
 64 65  2  0  0  0  0
 57 66  1  0  0  0  0
 66 67  2  0  0  0  0
 67 68  1  0  0  0  0
 68 69  2  0  0  0  0
 69 70  1  0  0  0  0
 70 71  1  0  0  0  0
 69 72  1  0  0  0  0
 72 73  2  0  0  0  0
 56 74  1  0  0  0  0
 74 75  1  0  0  0  0
 55 76  1  0  0  0  0
 76 77  2  0  0  0  0
 77 78  1  0  0  0  0
 78 79  1  0  0  0  0
 79 80  1  0  0  0  0
 78 81  2  0  0  0  0
 81 82  1  0  0  0  0
 81 83  1  0  0  0  0
 83 84  2  0  0  0  0
 84 85  1  0  0  0  0
 85 86  2  0  0  0  0
 85 87  1  0  0  0  0
 87 88  2  0  0  0  0
 88 89  1  0  0  0  0
 89 90  2  0  0  0  0
 90 91  1  0  0  0  0
 91 92  2  0  0  0  0
 92 93  1  0  0  0  0
 93 94  2  0  0  0  0
 94 95  1  0  0  0  0
 95 96  3  0  0  0  0
 94 97  1  0  0  0  0
 97 98  3  0  0  0  0
 90 99  1  0  0  0  0
 99100  1  0  0  0  0
100101  1  0  0  0  0
101102  2  0  0  0  0
102103  1  0  0  0  0
103104  1  0  0  0  0
103105  1  0  0  0  0
 11  2  1  0  0  0  0
 23 17  1  0  0  0  0
 30 24  1  0  0  0  0
 75 34  1  0  0  0  0
 82 76  1  0  0  0  0
 93 84  1  0  0  0  0
105 99  1  0  0  0  0
 10  5  1  0  0  0  0
 22 18  1  0  0  0  0
 33 29  2  0  0  0  0
 44 37  1  0  0  0  0
 52 45  1  0  0  0  0
 74 53  2  0  0  0  0
 92 87  1  0  0  0  0
104100  1  0  0  0  0
 23  7  1  0  0  0  0
 65 58  1  0  0  0  0
 73 66  1  0  0  0  0
105 89  1  0  0  0  0
  1106  1  0  0  0  0
  6107  1  0  0  0  0
  9108  1  0  0  0  0
 17109  1  0  0  0  0
 18110  1  0  0  0  0
 19111  1  0  0  0  0
 20112  1  0  0  0  0
 21113  1  0  0  0  0
 22114  1  0  0  0  0
 22115  1  0  0  0  0
 23116  1  0  0  0  0
 25117  1  0  0  0  0
 38118  1  0  0  0  0
 39119  1  0  0  0  0
 42120  1  0  0  0  0
 42121  1  0  0  0  0
 42122  1  0  0  0  0
 43123  1  0  0  0  0
 44124  1  0  0  0  0
 46125  1  0  0  0  0
 47126  1  0  0  0  0
 50127  1  0  0  0  0
 50128  1  0  0  0  0
 50129  1  0  0  0  0
 51130  1  0  0  0  0
 52131  1  0  0  0  0
 59132  1  0  0  0  0
 60133  1  0  0  0  0
 63134  1  0  0  0  0
 63135  1  0  0  0  0
 63136  1  0  0  0  0
 64137  1  0  0  0  0
 65138  1  0  0  0  0
 67139  1  0  0  0  0
 68140  1  0  0  0  0
 71141  1  0  0  0  0
 71142  1  0  0  0  0
 71143  1  0  0  0  0
 72144  1  0  0  0  0
 73145  1  0  0  0  0
 77146  1  0  0  0  0
 79147  1  0  0  0  0
 79148  1  0  0  0  0
 80149  1  0  0  0  0
 80150  1  0  0  0  0
 80151  1  0  0  0  0
 83152  1  0  0  0  0
 88153  1  0  0  0  0
 91154  1  0  0  0  0
 99155  1  0  0  0  0
100156  1  0  0  0  0
101157  1  0  0  0  0
102158  1  0  0  0  0
103159  1  0  0  0  0
104160  1  0  0  0  0
104161  1  0  0  0  0
105162  1  0  0  0  0
M  END
