
  xtb     02072215213D
 energy: -294.020516562927 gnorm: 0.000619918093 xtb: 6.4.1 (unknown)
167186  0     0  0            999 V2000
   -1.4181    0.5767   -9.1814 C   0  0  0  0  0  0  0  0  0  0  0  0
   -2.4797   -0.1741   -9.5503 C   0  0  0  0  0  0  0  0  0  0  0  0
   -3.2156   -1.0941   -8.6351 C   0  0  0  0  0  0  0  0  0  0  0  0
   -3.0254   -1.2642   -7.4499 O   0  0  0  0  0  0  0  0  0  0  0  0
   -4.3154   -1.6559   -9.4327 C   0  0  0  0  0  0  0  0  0  0  0  0
   -5.2614   -2.5871   -9.0052 C   0  0  0  0  0  0  0  0  0  0  0  0
   -6.1980   -2.9115   -9.9555 C   0  0  0  0  0  0  0  0  0  0  0  0
   -6.1998   -2.3470  -11.2396 C   0  0  0  0  0  0  0  0  0  0  0  0
   -5.2749   -1.4293  -11.6750 C   0  0  0  0  0  0  0  0  0  0  0  0
   -4.3082   -1.0846  -10.7225 C   0  0  0  0  0  0  0  0  0  0  0  0
   -3.1889   -0.1557  -10.8228 C   0  0  0  0  0  0  0  0  0  0  0  0
   -2.8455    0.5695  -11.9319 C   0  0  0  0  0  0  0  0  0  0  0  0
   -1.7389    1.4407  -12.0246 C   0  0  0  0  0  0  0  0  0  0  0  0
   -0.8621    2.1650  -12.1829 N   0  0  0  0  0  0  0  0  0  0  0  0
   -3.5536    0.5528  -13.1529 C   0  0  0  0  0  0  0  0  0  0  0  0
   -4.0811    0.5950  -14.1716 N   0  0  0  0  0  0  0  0  0  0  0  0
   -7.4300   -3.1111  -11.6603 C   0  0  0  0  0  0  0  0  0  0  0  0
   -8.7568   -2.3221  -11.6810 C   0  0  0  0  0  0  0  0  0  0  0  0
   -9.8176   -3.3988  -11.6529 C   0  0  0  0  0  0  0  0  0  0  0  0
   -9.8146   -3.9368  -10.4399 C   0  0  0  0  0  0  0  0  0  0  0  0
   -8.7520   -3.2325   -9.6275 C   0  0  0  0  0  0  0  0  0  0  0  0
   -8.8474   -1.8257  -10.2321 C   0  0  0  0  0  0  0  0  0  0  0  0
   -7.4259   -3.7427  -10.2311 C   0  0  0  0  0  0  0  0  0  0  0  0
   -0.6861    0.3851   -7.9494 C   0  0  0  0  0  0  0  0  0  0  0  0
   -0.3121    1.4446   -7.1489 C   0  0  0  0  0  0  0  0  0  0  0  0
    0.3211    1.2436   -5.9169 C   0  0  0  0  0  0  0  0  0  0  0  0
    0.5128    2.3353   -5.1545 F   0  0  0  0  0  0  0  0  0  0  0  0
    0.6682    0.0020   -5.4203 C   0  0  0  0  0  0  0  0  0  0  0  0
    0.3839   -1.0944   -6.2679 C   0  0  0  0  0  0  0  0  0  0  0  0
   -0.2949   -0.9092   -7.5222 C   0  0  0  0  0  0  0  0  0  0  0  0
   -0.4417   -2.0547   -8.1830 N   0  0  0  0  0  0  0  0  0  0  0  0
    0.1872   -3.2397   -7.3015 S   0  0  0  0  0  0  0  0  0  0  0  0
    0.6996   -2.3702   -6.0553 N   0  0  0  0  0  0  0  0  0  0  0  0
    1.1989   -0.2106   -4.0772 C   0  0  0  0  0  0  0  0  0  0  0  0
    0.6291   -1.1875   -3.2382 C   0  0  0  0  0  0  0  0  0  0  0  0
   -0.3988   -2.0213   -3.4456 N   0  0  0  0  0  0  0  0  0  0  0  0
   -0.5435   -2.6432   -2.3119 N   0  0  0  0  0  0  0  0  0  0  0  0
   -1.5988   -3.6045   -2.1433 C   0  0  0  0  0  0  0  0  0  0  0  0
   -1.4749   -4.3178   -0.8103 C   0  0  0  0  0  0  0  0  0  0  0  0
    0.2679   -2.3165   -1.3500 N   0  0  0  0  0  0  0  0  0  0  0  0
    1.0515   -1.3707   -1.8885 C   0  0  0  0  0  0  0  0  0  0  0  0
    2.0279   -0.5417   -1.3105 C   0  0  0  0  0  0  0  0  0  0  0  0
    2.5955    0.3835   -2.1632 C   0  0  0  0  0  0  0  0  0  0  0  0
    2.2089    0.5370   -3.5083 C   0  0  0  0  0  0  0  0  0  0  0  0
    2.8634    1.4524   -4.2394 F   0  0  0  0  0  0  0  0  0  0  0  0
    3.5460    1.2114   -1.6914 F   0  0  0  0  0  0  0  0  0  0  0  0
    2.3134   -0.5025    0.1190 C   0  0  0  0  0  0  0  0  0  0  0  0
    1.9503    0.5575    0.9224 C   0  0  0  0  0  0  0  0  0  0  0  0
    1.1572    1.6043    0.4664 N   0  0  0  0  0  0  0  0  0  0  0  0
    0.0296    1.2498   -0.2967 C   0  0  0  0  0  0  0  0  0  0  0  0
   -0.8010    0.2254    0.1573 C   0  0  0  0  0  0  0  0  0  0  0  0
   -1.8510   -0.2144   -0.6166 C   0  0  0  0  0  0  0  0  0  0  0  0
   -2.0846    0.3486   -1.8680 C   0  0  0  0  0  0  0  0  0  0  0  0
   -3.4056   -0.3368   -2.8270 S   0  0  0  0  0  0  0  0  0  0  0  0
   -2.8879    0.0027   -4.5294 C   0  0  0  0  0  0  0  0  0  0  0  0
   -1.2940    1.4060   -2.2997 C   0  0  0  0  0  0  0  0  0  0  0  0
   -0.2488    1.8582   -1.5174 C   0  0  0  0  0  0  0  0  0  0  0  0
    1.4484    2.9206    0.8073 C   0  0  0  0  0  0  0  0  0  0  0  0
    2.7525    3.2914    1.1279 C   0  0  0  0  0  0  0  0  0  0  0  0
    3.0467    4.5873    1.5002 C   0  0  0  0  0  0  0  0  0  0  0  0
    2.0405    5.5415    1.5501 C   0  0  0  0  0  0  0  0  0  0  0  0
    2.2969    7.2274    2.0090 S   0  0  0  0  0  0  0  0  0  0  0  0
    4.0079    7.2542    2.6161 C   0  0  0  0  0  0  0  0  0  0  0  0
    0.7385    5.1806    1.2087 C   0  0  0  0  0  0  0  0  0  0  0  0
    0.4419    3.8873    0.8454 C   0  0  0  0  0  0  0  0  0  0  0  0
    2.4036    0.3770    2.2512 C   0  0  0  0  0  0  0  0  0  0  0  0
    2.1966    1.2735    3.7091 S   0  0  0  0  0  0  0  0  0  0  0  0
    3.0959    0.0390    4.5956 C   0  0  0  0  0  0  0  0  0  0  0  0
    3.4568   -1.0553    3.7719 C   0  0  0  0  0  0  0  0  0  0  0  0
    4.0583   -2.2116    4.2011 N   0  0  0  0  0  0  0  0  0  0  0  0
    4.9194   -2.8980    3.3288 C   0  0  0  0  0  0  0  0  0  0  0  0
    4.8904   -4.2904    3.2542 C   0  0  0  0  0  0  0  0  0  0  0  0
    5.7428   -4.9536    2.4019 C   0  0  0  0  0  0  0  0  0  0  0  0
    6.6405   -4.2456    1.6025 C   0  0  0  0  0  0  0  0  0  0  0  0
    7.6769   -5.2071    0.5503 S   0  0  0  0  0  0  0  0  0  0  0  0
    8.6620   -3.9732   -0.3451 C   0  0  0  0  0  0  0  0  0  0  0  0
    6.6755   -2.8596    1.6794 C   0  0  0  0  0  0  0  0  0  0  0  0
    5.8237   -2.1944    2.5388 C   0  0  0  0  0  0  0  0  0  0  0  0
    3.7990   -2.7534    5.4732 C   0  0  0  0  0  0  0  0  0  0  0  0
    4.8248   -3.3344    6.2126 C   0  0  0  0  0  0  0  0  0  0  0  0
    4.5953   -3.7747    7.5021 C   0  0  0  0  0  0  0  0  0  0  0  0
    3.3408   -3.6237    8.0762 C   0  0  0  0  0  0  0  0  0  0  0  0
    2.9731   -4.0416    9.7500 S   0  0  0  0  0  0  0  0  0  0  0  0
    4.6079   -4.1059   10.5348 C   0  0  0  0  0  0  0  0  0  0  0  0
    2.2927   -3.1139    7.3088 C   0  0  0  0  0  0  0  0  0  0  0  0
    2.5140   -2.6949    6.0178 C   0  0  0  0  0  0  0  0  0  0  0  0
    3.0707   -0.8273    2.4378 C   0  0  0  0  0  0  0  0  0  0  0  0
    3.1463   -1.7682    0.9764 S   0  0  0  0  0  0  0  0  0  0  0  0
    3.4629    0.1385    5.9402 C   0  0  0  0  0  0  0  0  0  0  0  0
    3.0224    0.9885    6.9247 C   0  0  0  0  0  0  0  0  0  0  0  0
    1.9855    2.0157    6.7864 C   0  0  0  0  0  0  0  0  0  0  0  0
    1.5005    2.4477    5.7551 O   0  0  0  0  0  0  0  0  0  0  0  0
    1.6339    2.4297    8.1571 C   0  0  0  0  0  0  0  0  0  0  0  0
    0.6591    3.3502    8.5340 C   0  0  0  0  0  0  0  0  0  0  0  0
    0.5438    3.5156    9.8939 C   0  0  0  0  0  0  0  0  0  0  0  0
    1.3423    2.8211   10.8117 C   0  0  0  0  0  0  0  0  0  0  0  0
    2.3139    1.9166   10.4526 C   0  0  0  0  0  0  0  0  0  0  0  0
    2.4439    1.7292    9.0738 C   0  0  0  0  0  0  0  0  0  0  0  0
    3.3582    0.8705    8.3241 C   0  0  0  0  0  0  0  0  0  0  0  0
    4.3576    0.1022    8.8704 C   0  0  0  0  0  0  0  0  0  0  0  0
    5.3395   -0.5936    8.1413 C   0  0  0  0  0  0  0  0  0  0  0  0
    6.2003   -1.1661    7.6369 N   0  0  0  0  0  0  0  0  0  0  0  0
    4.5694   -0.0838   10.2503 C   0  0  0  0  0  0  0  0  0  0  0  0
    4.7989   -0.3232   11.3506 N   0  0  0  0  0  0  0  0  0  0  0  0
    0.6743    3.4639   12.0018 C   0  0  0  0  0  0  0  0  0  0  0  0
   -0.3529    2.5997   12.7635 C   0  0  0  0  0  0  0  0  0  0  0  0
   -1.1706    3.6081   13.5377 C   0  0  0  0  0  0  0  0  0  0  0  0
   -1.9270    4.2666   12.6689 C   0  0  0  0  0  0  0  0  0  0  0  0
   -1.6334    3.7142   11.2927 C   0  0  0  0  0  0  0  0  0  0  0  0
   -1.3503    2.2496   11.6516 C   0  0  0  0  0  0  0  0  0  0  0  0
   -0.2162    4.2387   10.9781 C   0  0  0  0  0  0  0  0  0  0  0  0
   -1.0720    1.3820   -9.8158 H   0  0  0  0  0  0  0  0  0  0  0  0
   -5.2231   -2.9957   -8.0075 H   0  0  0  0  0  0  0  0  0  0  0  0
   -5.2906   -1.0063  -12.6653 H   0  0  0  0  0  0  0  0  0  0  0  0
   -7.3110   -3.7656  -12.5213 H   0  0  0  0  0  0  0  0  0  0  0  0
   -8.8325   -1.5805  -12.4713 H   0  0  0  0  0  0  0  0  0  0  0  0
  -10.4037   -3.6857  -12.5060 H   0  0  0  0  0  0  0  0  0  0  0  0
  -10.3976   -4.7630  -10.0774 H   0  0  0  0  0  0  0  0  0  0  0  0
   -8.8240   -3.3199   -8.5468 H   0  0  0  0  0  0  0  0  0  0  0  0
   -8.0377   -1.1602   -9.9385 H   0  0  0  0  0  0  0  0  0  0  0  0
   -9.8036   -1.3510  -10.0195 H   0  0  0  0  0  0  0  0  0  0  0  0
   -7.3018   -4.8198  -10.1375 H   0  0  0  0  0  0  0  0  0  0  0  0
   -0.5677    2.4559   -7.4265 H   0  0  0  0  0  0  0  0  0  0  0  0
   -2.5501   -3.0650   -2.2157 H   0  0  0  0  0  0  0  0  0  0  0  0
   -1.5447   -4.3045   -2.9816 H   0  0  0  0  0  0  0  0  0  0  0  0
   -1.5108   -3.6006    0.0043 H   0  0  0  0  0  0  0  0  0  0  0  0
   -0.5303   -4.8512   -0.7498 H   0  0  0  0  0  0  0  0  0  0  0  0
   -2.2905   -5.0262   -0.6978 H   0  0  0  0  0  0  0  0  0  0  0  0
   -0.6040   -0.2340    1.1140 H   0  0  0  0  0  0  0  0  0  0  0  0
   -2.4952   -1.0060   -0.2656 H   0  0  0  0  0  0  0  0  0  0  0  0
   -2.9918    1.0596   -4.7574 H   0  0  0  0  0  0  0  0  0  0  0  0
   -3.5398   -0.5773   -5.1740 H   0  0  0  0  0  0  0  0  0  0  0  0
   -1.8649   -0.3364   -4.6553 H   0  0  0  0  0  0  0  0  0  0  0  0
   -1.4772    1.8792   -3.2508 H   0  0  0  0  0  0  0  0  0  0  0  0
    0.3690    2.6726   -1.8651 H   0  0  0  0  0  0  0  0  0  0  0  0
    3.5466    2.5631    1.0676 H   0  0  0  0  0  0  0  0  0  0  0  0
    4.0677    4.8384    1.7375 H   0  0  0  0  0  0  0  0  0  0  0  0
    4.1651    8.2540    3.0085 H   0  0  0  0  0  0  0  0  0  0  0  0
    4.1256    6.5215    3.4091 H   0  0  0  0  0  0  0  0  0  0  0  0
    4.6988    7.0678    1.7988 H   0  0  0  0  0  0  0  0  0  0  0  0
   -0.0394    5.9279    1.2445 H   0  0  0  0  0  0  0  0  0  0  0  0
   -0.5735    3.6137    0.6014 H   0  0  0  0  0  0  0  0  0  0  0  0
    4.1927   -4.8434    3.8647 H   0  0  0  0  0  0  0  0  0  0  0  0
    5.7218   -6.0305    2.3379 H   0  0  0  0  0  0  0  0  0  0  0  0
    8.0087   -3.3206   -0.9166 H   0  0  0  0  0  0  0  0  0  0  0  0
    9.2971   -4.5405   -1.0184 H   0  0  0  0  0  0  0  0  0  0  0  0
    9.2761   -3.4099    0.3515 H   0  0  0  0  0  0  0  0  0  0  0  0
    7.3654   -2.2838    1.0847 H   0  0  0  0  0  0  0  0  0  0  0  0
    5.8677   -1.1176    2.6070 H   0  0  0  0  0  0  0  0  0  0  0  0
    5.8140   -3.4112    5.7897 H   0  0  0  0  0  0  0  0  0  0  0  0
    5.4133   -4.2020    8.0578 H   0  0  0  0  0  0  0  0  0  0  0  0
    5.1691   -3.2115   10.2808 H   0  0  0  0  0  0  0  0  0  0  0  0
    4.4186   -4.1292   11.6034 H   0  0  0  0  0  0  0  0  0  0  0  0
    5.1375   -5.0053   10.2344 H   0  0  0  0  0  0  0  0  0  0  0  0
    1.3081   -3.0452    7.7451 H   0  0  0  0  0  0  0  0  0  0  0  0
    1.7022   -2.2887    5.4332 H   0  0  0  0  0  0  0  0  0  0  0  0
    4.1730   -0.6141    6.2569 H   0  0  0  0  0  0  0  0  0  0  0  0
    0.0682    3.8664    7.7937 H   0  0  0  0  0  0  0  0  0  0  0  0
    2.9228    1.3921   11.1702 H   0  0  0  0  0  0  0  0  0  0  0  0
    1.3249    4.0335   12.6626 H   0  0  0  0  0  0  0  0  0  0  0  0
    0.0753    1.7773   13.3300 H   0  0  0  0  0  0  0  0  0  0  0  0
   -1.0770    3.7715   14.5953 H   0  0  0  0  0  0  0  0  0  0  0  0
   -2.5912    5.0901   12.8556 H   0  0  0  0  0  0  0  0  0  0  0  0
   -2.3727    3.9072   10.5200 H   0  0  0  0  0  0  0  0  0  0  0  0
   -0.9216    1.6678   10.8378 H   0  0  0  0  0  0  0  0  0  0  0  0
   -2.2334    1.7420   12.0361 H   0  0  0  0  0  0  0  0  0  0  0  0
   -0.1593    5.3255   10.9563 H   0  0  0  0  0  0  0  0  0  0  0  0
  1  2  2  0  0  0  0
  2  3  1  0  0  0  0
  3  4  2  0  0  0  0
  3  5  1  0  0  0  0
  5  6  2  0  0  0  0
  6  7  1  0  0  0  0
  7  8  2  0  0  0  0
  8  9  1  0  0  0  0
  9 10  2  0  0  0  0
 10 11  1  0  0  0  0
 11 12  2  0  0  0  0
 12 13  1  0  0  0  0
 13 14  3  0  0  0  0
 12 15  1  0  0  0  0
 15 16  3  0  0  0  0
  8 17  1  0  0  0  0
 17 18  1  0  0  0  0
 18 19  1  0  0  0  0
 19 20  2  0  0  0  0
 20 21  1  0  0  0  0
 21 22  1  0  0  0  0
 21 23  1  0  0  0  0
  1 24  1  0  0  0  0
 24 25  2  0  0  0  0
 25 26  1  0  0  0  0
 26 27  1  0  0  0  0
 26 28  2  0  0  0  0
 28 29  1  0  0  0  0
 29 30  1  0  0  0  0
 30 31  2  0  0  0  0
 31 32  1  0  0  0  0
 32 33  1  0  0  0  0
 28 34  1  0  0  0  0
 34 35  1  0  0  0  0
 35 36  2  0  0  0  0
 36 37  1  0  0  0  0
 37 38  1  0  0  0  0
 38 39  1  0  0  0  0
 37 40  1  0  0  0  0
 40 41  2  0  0  0  0
 41 42  1  0  0  0  0
 42 43  2  0  0  0  0
 43 44  1  0  0  0  0
 44 45  1  0  0  0  0
 43 46  1  0  0  0  0
 42 47  1  0  0  0  0
 47 48  2  0  0  0  0
 48 49  1  0  0  0  0
 49 50  1  0  0  0  0
 50 51  2  0  0  0  0
 51 52  1  0  0  0  0
 52 53  2  0  0  0  0
 53 54  1  0  0  0  0
 54 55  1  0  0  0  0
 53 56  1  0  0  0  0
 56 57  2  0  0  0  0
 49 58  1  0  0  0  0
 58 59  2  0  0  0  0
 59 60  1  0  0  0  0
 60 61  2  0  0  0  0
 61 62  1  0  0  0  0
 62 63  1  0  0  0  0
 61 64  1  0  0  0  0
 64 65  2  0  0  0  0
 48 66  1  0  0  0  0
 66 67  1  0  0  0  0
 67 68  1  0  0  0  0
 68 69  2  0  0  0  0
 69 70  1  0  0  0  0
 70 71  1  0  0  0  0
 71 72  2  0  0  0  0
 72 73  1  0  0  0  0
 73 74  2  0  0  0  0
 74 75  1  0  0  0  0
 75 76  1  0  0  0  0
 74 77  1  0  0  0  0
 77 78  2  0  0  0  0
 70 79  1  0  0  0  0
 79 80  2  0  0  0  0
 80 81  1  0  0  0  0
 81 82  2  0  0  0  0
 82 83  1  0  0  0  0
 83 84  1  0  0  0  0
 82 85  1  0  0  0  0
 85 86  2  0  0  0  0
 69 87  1  0  0  0  0
 87 88  1  0  0  0  0
 68 89  1  0  0  0  0
 89 90  2  0  0  0  0
 90 91  1  0  0  0  0
 91 92  2  0  0  0  0
 91 93  1  0  0  0  0
 93 94  2  0  0  0  0
 94 95  1  0  0  0  0
 95 96  2  0  0  0  0
 96 97  1  0  0  0  0
 97 98  2  0  0  0  0
 98 99  1  0  0  0  0
 99100  2  0  0  0  0
100101  1  0  0  0  0
101102  3  0  0  0  0
100103  1  0  0  0  0
103104  3  0  0  0  0
 96105  1  0  0  0  0
105106  1  0  0  0  0
106107  1  0  0  0  0
107108  2  0  0  0  0
108109  1  0  0  0  0
109110  1  0  0  0  0
109111  1  0  0  0  0
 11  2  1  0  0  0  0
 23 17  1  0  0  0  0
 30 24  1  0  0  0  0
 44 34  2  0  0  0  0
 88 47  1  0  0  0  0
 99 90  1  0  0  0  0
111105  1  0  0  0  0
 10  5  1  0  0  0  0
 22 18  1  0  0  0  0
 33 29  2  0  0  0  0
 41 35  1  0  0  0  0
 57 50  1  0  0  0  0
 65 58  1  0  0  0  0
 87 66  2  0  0  0  0
 98 93  1  0  0  0  0
110106  1  0  0  0  0
 23  7  1  0  0  0  0
 78 71  1  0  0  0  0
 86 79  1  0  0  0  0
111 95  1  0  0  0  0
  1112  1  0  0  0  0
  6113  1  0  0  0  0
  9114  1  0  0  0  0
 17115  1  0  0  0  0
 18116  1  0  0  0  0
 19117  1  0  0  0  0
 20118  1  0  0  0  0
 21119  1  0  0  0  0
 22120  1  0  0  0  0
 22121  1  0  0  0  0
 23122  1  0  0  0  0
 25123  1  0  0  0  0
 38124  1  0  0  0  0
 38125  1  0  0  0  0
 39126  1  0  0  0  0
 39127  1  0  0  0  0
 39128  1  0  0  0  0
 51129  1  0  0  0  0
 52130  1  0  0  0  0
 55131  1  0  0  0  0
 55132  1  0  0  0  0
 55133  1  0  0  0  0
 56134  1  0  0  0  0
 57135  1  0  0  0  0
 59136  1  0  0  0  0
 60137  1  0  0  0  0
 63138  1  0  0  0  0
 63139  1  0  0  0  0
 63140  1  0  0  0  0
 64141  1  0  0  0  0
 65142  1  0  0  0  0
 72143  1  0  0  0  0
 73144  1  0  0  0  0
 76145  1  0  0  0  0
 76146  1  0  0  0  0
 76147  1  0  0  0  0
 77148  1  0  0  0  0
 78149  1  0  0  0  0
 80150  1  0  0  0  0
 81151  1  0  0  0  0
 84152  1  0  0  0  0
 84153  1  0  0  0  0
 84154  1  0  0  0  0
 85155  1  0  0  0  0
 86156  1  0  0  0  0
 89157  1  0  0  0  0
 94158  1  0  0  0  0
 97159  1  0  0  0  0
105160  1  0  0  0  0
106161  1  0  0  0  0
107162  1  0  0  0  0
108163  1  0  0  0  0
109164  1  0  0  0  0
110165  1  0  0  0  0
110166  1  0  0  0  0
111167  1  0  0  0  0
M  END
