213

C         -3.24030       -0.98370        6.75050
C         -3.44720        0.24510        7.34490
C         -2.84860        1.50370        6.87480
O         -2.16390        1.68190        5.88390
C         -3.16020        2.50810        7.91240
C         -2.79750        3.85110        7.91330
C         -3.25520        4.55260        9.00380
C         -4.01080        3.96080       10.02270
C         -4.37250        2.63360       10.03530
C         -3.91910        1.90560        8.93340
C         -4.12710        0.50280        8.58140
C         -4.96090       -0.37410        9.23420
C         -5.67110       -0.08290       10.41330
N         -6.29030        0.07340       11.36880
C         -5.27910       -1.65920        8.75710
N         -5.63330       -2.69720        8.41150
C         -4.11870        5.24900       10.80160
C         -3.19770        5.39280       12.03130
C         -3.16700        6.88200       12.28870
C         -2.45410        7.44430       11.32110
C         -1.99100        6.34430       10.39350
C         -1.80990        5.20490       11.40450
C         -3.27870        5.91030        9.66210
C         -2.86330       -1.18280        5.42400
C         -2.99280       -0.34830        4.29310
N         -3.87240        0.67950        4.16170
C         -4.96650        0.84760        5.02760
C         -5.76020       -0.23010        5.41110
C         -6.78230       -0.06330        6.32210
C         -7.02530        1.19060        6.87460
S         -8.22550        1.50290        8.12240
C         -8.87320       -0.13920        8.54010
C         -6.28060        2.28470        6.43600
C         -5.26820        2.11890        5.51680
C         -3.75310        1.60650        3.10210
C         -4.84000        1.81260        2.26080
C         -4.75140        2.70400        1.20990
C         -3.57480        3.41200        1.00330
S         -3.36220        4.56880       -0.30960
C         -5.05810        4.88190       -0.88260
C         -2.49200        3.22230        1.85950
C         -2.57790        2.32600        2.90270
C         -2.18990       -0.83540        3.23570
S         -1.75840       -0.19670        1.69270
C         -0.71020       -1.57320        1.40130
C         -0.82800       -2.55700        2.37650
N         -0.35270       -3.84210        2.19570
C         -0.25320       -4.31000        0.86570
C         -1.27150       -4.06930       -0.05060
C         -1.12050       -4.40610       -1.38010
C          0.05840       -4.99720       -1.81310
S          0.41450       -5.33080       -3.50860
C         -0.93510       -4.49830       -4.39370
C          1.03400       -5.34030       -0.87900
C          0.87930       -5.00500        0.44980
C         -0.22210       -4.76870        3.23790
C         -0.59380       -6.10020        3.03700
C         -0.47690       -7.01620        4.05680
C          0.00750       -6.63120        5.30600
S          0.10320       -7.88950        6.54030
C          0.40650       -6.96300        8.07240
C          0.39590       -5.31500        5.50460
C          0.28350       -4.39610        4.47800
C         -1.61150       -2.08080        3.45810
S         -2.01420       -2.68760        5.02460
C          0.14330       -1.52750        0.24920
C          1.52620       -1.61670        0.18470
N          2.37520       -1.73760        1.26740
C          3.67270       -2.25250        1.09400
C          3.90170       -3.37560        0.30010
C          5.17820       -3.86990        0.14590
C          6.25650       -3.25830        0.78030
S          7.84050       -3.98870        0.52010
C          8.99560       -2.80200        1.26500
C          6.03270       -2.14140        1.57550
C          4.75390       -1.64310        1.72510
C          2.02370       -1.23020        2.52850
C          2.39340       -1.92640        3.67510
C          2.00170       -1.48730        4.92600
C          1.20580       -0.35630        5.04990
S          0.55930        0.21160        6.59130
C          0.53310       -1.30780        7.59120
C          0.90220        0.38720        3.91220
C          1.31880       -0.03340        2.66810
C          1.97550       -1.46910       -1.15570
S          3.52480       -1.51410       -1.92340
C          2.79000       -1.13120       -3.46840
C          1.40420       -1.03860       -3.40080
N          0.53140       -0.88930       -4.46480
C         -0.61030       -0.09460       -4.28550
C         -0.54580        1.06360       -3.51210
C         -1.66260        1.85400       -3.33870
C         -2.85640        1.50720       -3.95570
S         -4.30190        2.52100       -3.80640
C         -3.57400        4.17950       -4.00350
C         -2.93320        0.34590       -4.71600
C         -1.82020       -0.45200       -4.87850
C          0.85240       -1.39740       -5.73070
C          1.54830       -2.59940       -5.85260
C          2.04070       -3.00760       -7.07540
C          1.82860       -2.22850       -8.20720
S          2.53460       -2.57300       -9.78810
C          3.65120       -3.96500       -9.46520
C          1.03710       -1.08630       -8.10840
C          0.55790       -0.66970       -6.88630
C          0.96350       -1.21480       -2.06740
S         -0.58520       -1.15160       -1.30860
C          3.62350       -0.99790       -4.61140
N          4.67410       -1.75330       -4.83690
N          5.21310       -1.56380       -5.99620
C          4.63920       -0.64130       -6.73530
S          3.30870        0.14320       -5.89880
C          5.03340       -0.47630       -8.08190
C          4.51080        0.34380       -9.03450
C          3.51500        1.41350       -8.81700
O          2.92630        1.68800       -7.78840
C          3.39960        2.13170      -10.09420
C          2.61800        3.25770      -10.34960
C          2.73730        3.74180      -11.62930
C          3.57780        3.15350      -12.58510
C          4.35210        2.04320      -12.34710
C          4.24050        1.52830      -11.05120
C          4.89500        0.37720      -10.43770
C          5.66590       -0.54140      -11.09650
C          5.98770       -0.47550      -12.46940
N          6.29440       -0.48690      -13.57550
C          6.21230       -1.71390      -10.53260
N          6.67130       -2.70360      -10.17420
C          3.21190        4.16280      -13.64430
C          2.22200        3.69360      -14.73160
C          1.69120        4.98240      -15.31680
C          0.89390        5.53780      -14.41320
C          0.87250        4.63370      -13.20170
C          1.01280        3.26890      -13.88830
C          2.27350        4.81690      -12.57990
H         -3.31210       -1.87570        7.36200
H         -2.21580        4.27010        7.10690
H         -4.95510        2.18910       10.82510
H         -5.12910        5.61140       10.98150
H         -3.45850        4.75620       12.87230
H         -3.69650        7.36360       13.08980
H         -2.26930        8.48920       11.15250
H         -1.15190        6.57400        9.74210
H         -1.00750        5.40620       12.11250
H         -1.65740        4.22860       10.94840
H         -3.73060        6.71350        9.08240
H         -5.57160       -1.21180        5.00350
H         -7.37250       -0.92020        6.60170
H         -9.54180        0.02080        9.38020
H         -9.42580       -0.54820        7.69920
H         -8.06340       -0.79760        8.84000
H         -6.49290        3.26080        6.84420
H         -4.68500        2.96650        5.19020
H         -5.75490        1.26210        2.42490
H         -5.59870        2.82640        0.55520
H         -5.69120        5.10460       -0.02930
H         -5.42860        4.02850       -1.44400
H         -4.99630        5.75050       -1.53100
H         -1.58910        3.79160        1.70020
H         -1.76310        2.19400        3.59560
H         -2.18240       -3.58780        0.27350
H         -1.92400       -4.18860       -2.06420
H         -1.87050       -5.02770       -4.23560
H         -1.00560       -3.46530       -4.06470
H         -0.66440       -4.53490       -5.44480
H          1.92330       -5.85230       -1.21480
H          1.64150       -5.25720        1.17190
H         -0.98540       -6.40900        2.07940
H         -0.77200       -8.04260        3.90270
H          1.40810       -6.54240        8.06760
H          0.31840       -7.68810        8.87540
H         -0.34770       -6.19010        8.18640
H          0.79600       -4.98890        6.45130
H          0.61140       -3.38210        4.63100
H          3.07340       -3.85760       -0.19260
H          5.35460       -4.73740       -0.47060
H          8.85400       -1.82260        0.81780
H          8.86100       -2.76970        2.34240
H          9.98770       -3.17500        1.03070
H          6.84510       -1.64410        2.08000
H          4.59050       -0.76890        2.33820
H          2.97950       -2.82910        3.58300
H          2.31010       -2.04340        5.79740
H          1.53510       -1.56790        7.92060
H         -0.08600       -1.08080        8.45380
H          0.08400       -2.11180        7.01510
H          0.33130        1.29530        4.02320
H          1.09160        0.55940        1.79490
H          0.39040        1.34900       -3.05600
H         -1.59810        2.74100       -2.72820
H         -3.08620        4.49410       -3.08580
H         -2.87010        4.15680       -4.82910
H         -4.39860        4.84640       -4.23420
H         -3.86970        0.07750       -5.18020
H         -1.87700       -1.34840       -5.47870
H          1.74740       -3.20100       -4.97860
H          2.60360       -3.92510       -7.12450
H          3.07610       -4.85040       -9.20990
H          4.19240       -4.13090      -10.39140
H          4.35100       -3.70080       -8.67770
H          0.84230       -0.50270       -8.99510
H          0.00260        0.25230       -6.81240
H          5.84190       -1.14460       -8.35220
H          1.99410        3.68430       -9.57970
H          5.00090        1.61120      -13.09010
H          4.03640        4.75000      -14.04390
H          2.62590        2.96710      -15.43110
H          1.98400        5.37210      -16.27390
H          0.38790        6.48400      -14.46460
H          0.04580        4.76410      -12.50850
H          1.21500        2.44600      -13.20520
H          0.14750        3.02720      -14.50310
H          2.47090        5.84150      -12.26990
