187

C          2.48800        3.80630        0.31730
C          2.67930        5.16390        0.40760
C          1.76580        6.14830        1.00320
O          0.55820        6.06460        1.14530
C          2.60080        7.30880        1.36350
C          2.21680        8.42510        2.10230
C          3.22470        9.34110        2.28980
C          4.51730        9.16300        1.77980
C          4.90840        8.06650        1.04680
C          3.89960        7.12070        0.84880
C          3.92780        5.84280        0.14080
C          4.91130        5.42150       -0.71890
C          4.78220        4.31900       -1.58380
N          4.71660        3.49150       -2.37890
C          6.11970        6.11040       -0.94240
N          7.12840        6.61680       -1.15510
C          5.01590       10.45790        2.37170
C          5.87160       10.34470        3.65130
C          5.80410       11.72890        4.25520
C          4.57910       11.90030        4.73550
C          3.79800       10.63470        4.46480
C          4.92160        9.59850        4.59720
C          3.57340       10.65790        2.93800
C          1.36860        3.04840        0.67860
C          1.37850        1.65050        0.87340
N          2.45160        0.79880        0.69530
C          2.54800       -0.28970        1.58090
C          2.39510       -0.07220        2.95120
C          2.46870       -1.12470        3.83430
C          2.70190       -2.41880        3.37270
S          2.77160       -3.68850        4.59600
C          3.35570       -5.14500        3.68130
C          2.85280       -2.63990        2.01060
C          2.77500       -1.58430        1.12400
C          3.17060        0.76450       -0.51000
C          4.49300        0.32170       -0.51410
C          5.18170        0.20810       -1.70170
C          4.56810        0.54470       -2.90390
S          5.49420        0.34370       -4.39260
C          4.85580        1.70880       -5.40930
C          3.25520        0.99750       -2.90250
C          2.56320        1.10910       -1.71520
C          0.12490        1.19070        1.30050
S         -0.51860       -0.38710        1.58830
C         -2.15410        0.27340        1.69080
C         -2.17250        1.65780        1.55890
N         -3.27170        2.49790        1.56260
C         -3.02380        3.82190        1.98710
C         -2.37660        4.04570        3.20130
C         -2.00830        5.32210        3.56630
C         -2.28230        6.39610        2.72580
S         -1.71060        7.98880        3.22210
C         -1.55590        8.85340        1.63000
C         -2.98670        6.18450        1.54800
C         -3.35140        4.90610        1.17980
C         -4.47450        2.19780        0.91960
C         -4.53860        1.31060       -0.15240
C         -5.74860        1.00650       -0.74750
C         -6.91890        1.59340       -0.28760
S         -8.51960        1.24890       -0.94830
C         -8.28450       -0.31310       -1.83790
C         -6.85480        2.51330        0.75940
C         -5.65250        2.80600        1.36090
C         -0.86040        2.16430        1.35080
S         -0.23000        3.73240        0.99760
C         -3.18360       -0.71250        1.63250
C         -4.52840       -0.71300        1.92330
C         -5.20250       -1.87750        1.49170
C         -6.62490       -2.12090        1.70460
C         -7.11350       -3.41880        1.85550
C         -8.46460       -3.64630        2.01860
C         -9.37030       -2.59230        2.03630
C        -10.83660       -2.84010        2.23720
C        -11.18690       -2.79550        3.72610
C         -8.88020       -1.29780        1.91520
C         -7.52960       -1.06210        1.75950
C         -4.34620       -2.77760        0.87470
S         -2.70560       -2.22120        0.91750
C         -4.52470       -3.91320        0.00850
C         -5.50000       -4.00700       -0.97270
F         -6.54500       -3.15650       -0.97720
C         -5.34530       -4.83100       -2.09540
F         -6.25220       -4.71920       -3.08110
C         -4.20730       -5.58860       -2.29960
C         -3.30340       -5.69300       -1.20140
N         -2.28340       -6.56050       -1.25820
C         -1.38660       -6.56790       -0.30460
C         -0.33290       -7.62920       -0.39750
C         -0.74760       -8.86510        0.40470
C         -1.46660       -5.63670        0.77060
N         -2.50030       -4.84050        0.86710
C         -3.44890       -4.85130       -0.07920
C         -0.40230       -5.54130        1.82400
C         -0.60640       -4.37060        2.77630
C         -3.81020       -6.11760       -3.58350
C         -2.55960       -5.86710       -4.04640
C         -1.67430       -4.80950       -3.47390
O         -1.92810       -4.01700       -2.59000
C         -0.46130       -4.80820       -4.29860
C          0.66170       -4.00570       -4.10400
C          1.64030       -4.17810       -5.05020
C          1.50160       -5.06460       -6.12880
C          0.40170       -5.86700       -6.32590
C         -0.60260       -5.72480       -5.35960
C         -1.88820       -6.40600       -5.21960
C         -2.34680       -7.42460       -6.00990
C         -3.56290       -8.11230       -5.80700
N         -4.52810       -8.72430       -5.70090
C         -1.65770       -7.94210       -7.12710
N         -1.15030       -8.40750       -8.04550
C          2.84700       -4.69130       -6.70410
C          2.84480       -3.72620       -7.90950
C          4.25550       -3.17990       -7.93740
C          4.39210       -2.35570       -6.90630
C          3.07590       -2.33150       -6.16440
C          2.10450       -2.50960       -7.33830
C          3.00530       -3.71820       -5.49180
H          3.34670        3.21690        0.01030
H          1.21550        8.51880        2.49130
H          5.90770        7.93710        0.66520
H          5.40430       11.18680        1.66300
H          6.86210        9.92410        3.50040
H          6.61070       12.43750        4.22220
H          4.15810       12.78080        5.18410
H          2.89910       10.47780        5.05480
H          4.64800        8.60160        4.25680
H          5.31190        9.54220        5.61210
H          2.99870       11.52020        2.60500
H          2.22170        0.92970        3.31500
H          2.35250       -0.95770        4.89390
H          2.59980       -5.47390        2.97430
H          4.29200       -4.91460        3.18200
H          3.51630       -5.91430        4.43020
H          3.02010       -3.63130        1.62210
H          2.87830       -1.76820        0.06520
H          4.97230        0.06870        0.42020
H          6.20560       -0.13220       -1.70870
H          4.72270        2.57440       -4.76830
H          3.92570        1.42260       -5.89270
H          5.61260        1.90780       -6.16150
H          2.76100        1.25640       -3.82520
H          1.53750        1.44760       -1.71930
H         -2.13900        3.20660        3.83910
H         -1.48610        5.49680        4.49440
H         -1.02770        8.20380        0.93790
H         -2.53470        9.13010        1.24920
H         -0.97810        9.75160        1.82630
H         -3.23760        7.00600        0.89700
H         -3.87100        4.73960        0.24780
H         -3.63400        0.86590       -0.53800
H         -5.76430        0.30840       -1.56860
H         -7.80220       -1.03390       -1.18540
H         -7.71060       -0.15000       -2.74550
H         -9.28140       -0.65750       -2.09460
H         -7.76570        2.97740        1.10520
H         -5.61430        3.50240        2.18540
H         -5.01920        0.08610        2.44770
H         -6.42410       -4.25140        1.85300
H         -8.82520       -4.65950        2.12810
H        -11.10650       -3.81780        1.83290
H        -11.41470       -2.07910        1.70940
H        -12.24970       -2.97340        3.87260
H        -10.62900       -3.55530        4.26920
H        -10.93590       -1.82320        4.14430
H         -9.56600       -0.46280        1.92890
H         -7.17390       -0.04960        1.65150
H         -0.22600       -7.90720       -1.44690
H          0.62340       -7.25310       -0.03190
H         -0.88480       -8.62160        1.45580
H         -1.68340       -9.26070        0.01810
H          0.01490       -9.63550        0.32440
H         -0.38630       -6.47940        2.38730
H          0.56510       -5.44600        1.32160
H         -1.60240       -4.40610        3.20660
H          0.12430       -4.40460        3.58030
H         -0.49650       -3.42790        2.24740
H         -4.53320       -6.67900       -4.15850
H          0.71560       -3.32570       -3.26810
H          0.31430       -6.54750       -7.15650
H          3.55780       -5.50750       -6.81710
H          2.46710       -4.15420       -8.83410
H          4.99980       -3.48240       -8.65020
H          5.26840       -1.82910       -6.57720
H          2.91090       -1.49530       -5.49060
H          2.12300       -1.66190       -8.02140
H          1.07770       -2.71360       -7.03950
H          3.81700       -3.88870       -4.78750
