184

C         -1.01060       -4.89550       -8.99120
C         -1.08350       -3.64340       -9.48570
C         -1.83990       -2.52600       -8.84070
O         -2.53150       -2.58650       -7.84780
C         -1.66620       -1.36410       -9.72150
C         -2.15490       -0.07710       -9.50090
C         -1.83730        0.81850      -10.49200
C         -1.09610        0.45900      -11.62810
C         -0.61650       -0.80660      -11.86260
C         -0.91990       -1.73540      -10.86030
C         -0.56610       -3.14560      -10.75820
C          0.15420       -3.86000      -11.67440
C          0.51640       -5.21930      -11.54770
N          0.85670       -6.31510      -11.51910
C          0.64470       -3.33970      -12.89260
N          1.07130       -2.99050      -13.89900
C         -1.13630        1.85570      -12.19360
C          0.14140        2.72120      -12.05820
C          0.87980        2.21080      -10.84540
C          0.17930        2.55080       -9.77160
C         -1.04550        3.29800      -10.23900
C         -0.47530        4.00460      -11.47910
C         -1.96050        2.25590      -10.92940
C         -1.44430       -5.26230       -7.65040
C         -2.26060       -6.39310       -7.46820
C         -2.72410       -6.72880       -6.21560
C         -3.61960       -7.88740       -6.04780
O         -3.98820       -8.60590       -6.94910
N         -4.04220       -8.11540       -4.75150
C         -3.74530       -7.40580       -3.60490
O         -4.23810       -7.71730       -2.54260
C         -2.82060       -6.27630       -3.79470
C         -2.43320       -5.51880       -2.71250
C         -1.56840       -4.42090       -2.87250
C         -1.08290       -4.11630       -4.12630
C         -1.46780       -4.86740       -5.25510
C         -1.03970       -4.53120       -6.55040
C         -2.34830       -5.96690       -5.08820
C         -1.25010       -3.57710       -1.71540
C          0.01440       -3.09410       -1.45920
F          1.05040       -3.45520       -2.23840
C          0.27490       -2.20080       -0.41160
F          1.53390       -1.73940       -0.28850
C         -0.72260       -1.73880        0.42520
C         -2.01570       -2.30970        0.25690
N         -2.98430       -2.03110        1.14820
C         -4.18590       -2.51210        0.95960
C         -5.19570       -2.23300        2.02950
C         -5.17200       -3.34430        3.08240
C         -4.48720       -3.28070       -0.20680
N         -3.54060       -3.60440       -1.04620
C         -2.28190       -3.18280       -0.82500
C         -5.87990       -3.73830       -0.51880
C         -5.95490       -4.62120       -1.75760
C         -0.50740       -0.68130        1.38580
C         -1.31830        0.42400        1.59160
N         -2.44440        0.75050        0.85410
C         -2.50480        0.41030       -0.50330
C         -3.67950       -0.07270       -1.07490
C         -3.69400       -0.53530       -2.37610
C         -2.53310       -0.51660       -3.13710
S         -2.42320       -1.14710       -4.78350
C         -3.88480       -2.20610       -4.92750
C         -1.37690        0.04360       -2.59680
C         -1.36230        0.50500       -1.30080
C         -3.53650        1.33290        1.50280
C         -4.34880        2.25340        0.83880
C         -5.41370        2.83370        1.48900
C         -5.69050        2.52000        2.81880
S         -7.08370        3.32400        3.54790
C         -6.88270        3.00050        5.32350
C         -4.89010        1.60110        3.48190
C         -3.82540        1.01170        2.82710
C         -0.77070        1.26200        2.59430
S         -1.29140        2.72030        3.34220
C          0.20140        2.80760        4.28680
C          1.02660        1.68940        4.07050
N          2.20410        1.37380        4.70880
C          3.07050        0.45720        4.05480
C          3.46180       -0.71710        4.69550
C          4.24610       -1.63450        4.03390
C          4.65250       -1.40020        2.72070
S          5.59120       -2.66360        1.93400
C          5.40900       -2.27100        0.17010
C          4.30430       -0.20800        2.09940
C          3.51660        0.71200        2.76260
C          2.49690        1.69230        6.03770
C          3.83480        1.75650        6.44540
C          4.15570        2.09740        7.73710
C          3.15430        2.40020        8.66050
S          3.68210        2.92140       10.25610
C          2.15280        3.50250       11.04180
C          1.82500        2.28030        8.28010
C          1.50210        1.92350        6.98510
C          0.45090        0.83600        3.09410
S          0.94410       -0.64920        2.35820
C          0.30470        3.93740        5.11580
C          1.39310        4.51130        5.71570
C          1.21370        5.32880        6.93830
O          0.16550        5.69610        7.42630
C          2.57190        5.51470        7.48590
C          2.91830        6.11500        8.69460
C          4.26450        6.08830        8.96890
C          5.20490        5.52790        8.09450
C          4.88110        4.95490        6.88790
C          3.51370        4.94960        6.60300
C          2.80090        4.41630        5.44580
C          3.35250        4.10140        4.22410
C          2.57580        3.94110        3.06540
N          1.97870        3.84320        2.08770
C          4.73110        3.97580        3.98130
N          5.84130        3.81170        3.73450
C          6.36190        5.84430        9.00920
C          7.23740        7.05470        8.62320
C          7.95460        7.40720        9.90620
C          7.06430        7.94010       10.73310
C          5.72980        7.95660       10.02290
C          6.20140        8.18560        8.58100
C          5.31340        6.47150        9.98300
H         -0.61920       -5.70270       -9.59650
H         -2.71790        0.15300       -8.61000
H         -0.05190       -1.06480      -12.74270
H         -1.60900        1.96280      -13.16760
H          0.72300        2.81200      -12.97140
H          1.77900        1.62510      -10.89500
H          0.37460        2.30530       -8.74430
H         -1.54440        3.91420       -9.49590
H         -1.23930        4.44580      -12.11770
H          0.27300        4.75470      -11.22860
H         -2.97360        2.62490      -11.07600
H         -2.56360       -6.99200       -8.31440
H         -4.67120       -8.90410       -4.62990
H         -2.79840       -5.78520       -1.73430
H         -0.42830       -3.27080       -4.27030
H         -0.37960       -3.68580       -6.67410
H         -6.19430       -2.14950        1.60010
H         -4.93580       -1.28560        2.50340
H         -5.41000       -4.30850        2.63880
H         -4.18400       -3.40790        3.53160
H         -5.89830       -3.13430        3.86340
H         -6.50560       -2.85030       -0.65830
H         -6.27690       -4.28020        0.34290
H         -6.99020       -4.88000       -1.96560
H         -5.39100       -5.53800       -1.61220
H         -5.54270       -4.10330       -2.61930
H         -4.58260       -0.11150       -0.48330
H         -4.61460       -0.92430       -2.78050
H         -3.90770       -2.90200       -4.09320
H         -3.75520       -2.73630       -5.86550
H         -4.78570       -1.60040       -4.96730
H         -0.48900        0.10510       -3.20690
H         -0.45910        0.93070       -0.89040
H         -4.12960        2.51750       -0.18460
H         -6.03940        3.54980        0.97890
H         -7.62630        3.61650        5.81950
H         -5.88630        3.29720        5.63680
H         -7.07130        1.95300        5.54120
H         -5.08820        1.32610        4.50540
H         -3.21520        0.28530        3.34270
H          3.12800       -0.91310        5.70380
H          4.53480       -2.55490        4.51710
H          4.36050       -2.09760       -0.05270
H          6.01860       -1.41090       -0.09120
H          5.76410       -3.14660       -0.36440
H          4.63270        0.01610        1.09850
H          3.23230        1.62510        2.26390
H          4.62090        1.55930        5.73210
H          5.18810        2.15710        8.04360
H          1.66370        4.22370       10.39400
H          2.45990        3.98050       11.96670
H          1.50150        2.66190       11.26290
H          1.02480        2.46240        8.97840
H          0.46330        1.81330        6.71550
H         -0.64450        4.40030        5.37230
H          2.16600        6.55060        9.33460
H          5.60980        4.52310        6.22170
H          6.93950        4.98830        9.35220
H          7.85470        6.90750        7.74120
H          8.98950        7.18910       10.09460
H          7.20670        8.25600       11.74990
H          4.97490        8.63230       10.41630
H          5.42380        8.04670        7.83220
H          6.66340        9.16270        8.44920
H          5.19770        6.03070       10.97120
