173

C         -3.05850        1.86440        5.45170
C         -4.05980        2.76840        5.35810
C         -4.80500        3.27170        4.16770
O         -4.41650        3.40310        3.02990
C         -6.10790        3.72390        4.70120
C         -7.24320        4.07530        3.97270
C         -8.31460        4.44780        4.74820
C         -8.26460        4.47750        6.14960
C         -7.14960        4.15080        6.88200
C         -6.04870        3.76820        6.10870
C         -4.71150        3.36470        6.52190
C         -4.13750        3.60640        7.73690
C         -4.80830        4.22600        8.81340
N         -5.30630        4.71810        9.72270
C         -2.78000        3.36460        8.04440
N         -1.68290        3.23730        8.35600
C         -9.69550        4.93750        6.27130
C         -9.91440        6.43100        6.59280
C        -11.34710        6.68190        6.18120
C        -11.39660        6.65520        4.85550
C         -9.99780        6.38670        4.34860
C         -9.18230        7.11000        5.42800
C         -9.75160        4.90640        4.71010
C         -2.42870        1.09940        4.41470
C         -1.15230        0.59300        4.62580
F         -0.54290        0.79710        5.80550
C         -0.41950       -0.04550        3.62420
F          0.83020       -0.44770        3.91310
C         -0.89640       -0.14950        2.32990
C         -2.24080        0.25540        2.10470
N         -2.77950        0.11680        0.88080
C         -4.04450        0.39600        0.69850
C         -4.55560        0.35010       -0.70830
C         -4.63530        1.76300       -1.29240
C         -4.87720        0.69710        1.81700
N         -4.35040        0.89380        2.99790
C         -3.02680        0.78030        3.16120
C         -6.37370        0.71250        1.74790
C         -6.92760       -0.70920        1.87280
C         -0.06470       -0.58730        1.23100
C          0.15170        0.11380        0.05750
N         -0.29790        1.39940       -0.18490
C         -0.73420        1.74000       -1.46500
C         -1.30170        0.77500       -2.30020
C         -1.73070        1.11280       -3.56330
C         -1.61430        2.42250       -4.02410
S         -2.22370        2.73790       -5.65190
C         -1.86110        4.49490       -5.92560
C         -1.05160        3.38650       -3.19840
C         -0.61050        3.04540       -1.93480
C         -0.40690        2.30110        0.88830
C          0.57950        2.33900        1.87110
C          0.42620        3.11810        3.00170
C         -0.71500        3.89300        3.15950
S         -1.08430        4.83200        4.60900
C          0.19750        4.33410        5.79390
C         -1.65410        3.93700        2.13150
C         -1.51010        3.14360        1.01620
C          1.00000       -0.61710       -0.81290
S          1.67810       -0.34060       -2.37950
C          2.49050       -1.88370       -2.32500
C          2.26390       -2.56740       -1.15340
N          2.82760       -3.81020       -0.80200
C          2.09540       -4.96840       -1.02220
C          0.71000       -4.91860       -1.20280
C         -0.00470       -6.06450       -1.46670
C          0.63650       -7.29690       -1.56010
S         -0.38710       -8.69440       -1.91880
C          0.74250      -10.10900       -1.78700
C          2.01280       -7.35610       -1.39210
C          2.72940       -6.20680       -1.12810
C          4.05960       -3.80350       -0.13700
C          5.06310       -2.90240       -0.49660
C          6.27510       -2.90870        0.15610
C          6.51670       -3.80310        1.19540
S          8.11900       -3.74070        1.93730
C          7.95090       -4.77460        3.42100
C          5.51220       -4.67980        1.58260
C          4.29650       -4.67210        0.92800
C          1.42050       -1.83000       -0.28940
S          0.82000       -2.09600        1.30670
C          3.40240       -2.25450       -3.39420
C          3.37150       -3.49160       -4.01200
O          2.39630       -4.36860       -3.65010
C          1.49910       -4.81210       -4.66280
C          0.49910       -3.72060       -5.02600
C          4.40110       -3.90130       -4.92140
O          4.29030       -5.17760       -5.39940
C          5.38900       -6.05660       -5.21100
C          5.73970       -6.22210       -3.73860
C          5.45810       -3.06970       -5.23600
C          5.45910       -1.77040       -4.67500
C          4.43450       -1.36090       -3.76130
N          4.62350       -0.12020       -3.31970
S          5.94950        0.47540       -4.00850
N          6.35290       -0.80890       -4.89130
C          6.58750       -3.43500       -6.08300
C          7.85640       -3.35170       -5.63780
C          8.21620       -3.10250       -4.20160
O          7.46080       -3.06480       -3.25640
C          9.67850       -3.01190       -4.19400
C         10.69420       -2.78110       -3.25430
C         11.92560       -2.84780       -3.84660
Cl        13.42920       -2.62560       -3.08080
S         11.86960       -3.20270       -5.55850
C         10.15530       -3.25850       -5.47770
C          9.09330       -3.51070       -6.40170
C          9.24440       -3.83140       -7.72750
C          8.18950       -4.11020       -8.61500
N          7.36460       -4.35980       -9.37410
C         10.52700       -3.93130       -8.30490
N         11.56690       -4.01390       -8.78300
H         -2.65900        1.67280        6.44200
H         -7.24460        4.03870        2.89430
H         -7.12140        4.17060        7.95900
H        -10.35910        4.28020        6.83000
H         -9.63470        6.72500        7.60050
H        -12.15970        6.79410        6.87470
H        -12.25900        6.74040        4.22060
H         -9.79590        6.64220        3.31180
H         -8.11470        6.90180        5.39260
H         -9.34390        8.18650        5.41300
H        -10.45330        4.22830        4.22750
H         -3.86400       -0.24320       -1.30590
H         -5.54040       -0.11660       -0.74020
H         -5.23130        2.41490       -0.65760
H         -3.63830        2.18590       -1.38340
H         -5.08170        1.73130       -2.28320
H         -6.74050        1.31250        2.58150
H         -6.70930        1.16180        0.81350
H         -8.01370       -0.69250        1.82870
H         -6.62500       -1.14430        2.82210
H         -6.55740       -1.34490        1.07130
H         -1.42140       -0.23460       -1.93960
H         -2.17350        0.36860       -4.20750
H         -2.20780        4.71110       -6.93140
H         -2.40530        5.10420       -5.20990
H         -0.79080        4.66700       -5.85960
H         -0.94300        4.40770       -3.52600
H         -0.16510        3.79960       -1.30340
H          1.46680        1.73230        1.76180
H          1.19980        3.10390        3.75260
H          0.20330        3.25490        5.90510
H         -0.08410        4.78870        6.73850
H          1.16620        4.70820        5.47560
H         -2.52250        4.56570        2.23740
H         -2.27240        3.15340        0.25310
H          0.18940       -3.97610       -1.14040
H         -1.07460       -6.01910       -1.60390
H          1.19790      -10.12640       -0.80120
H          0.12450      -10.99090       -1.92430
H          1.49470      -10.06220       -2.56930
H          2.54510       -8.29040       -1.47740
H          3.80210       -6.26610       -1.02180
H          4.90180       -2.19960       -1.29610
H          7.05240       -2.22370       -0.14380
H          7.12380       -4.41490        4.02570
H          7.81340       -5.81530        3.14160
H          8.88360       -4.66140        3.96470
H          5.65750       -5.37070        2.39780
H          3.51510       -5.34300        1.25260
H          2.04770       -5.14330       -5.54880
H          0.98850       -5.66570       -4.21150
H         -0.21610       -4.10420       -5.74780
H         -0.03470       -3.39430       -4.13670
H          1.01070       -2.86280       -5.45890
H          5.04360       -7.00140       -5.63820
H          6.26300       -5.71210       -5.77820
H          6.10840       -5.28490       -3.32430
H          6.50710       -6.98300       -3.62630
H          4.85340       -6.52090       -3.18350
H          6.36800       -3.71060       -7.10720
H         10.53460       -2.57920       -2.21160
