
  xtb     02132201503D
 energy: -273.602728968476 gnorm: 0.000170301529 xtb: 6.4.1 (unknown)
157171  0     0  0            999 V2000
    4.7561   -5.0355   -2.0374 C   0  0  0  0  0  0  0  0  0  0  0  0
    4.5896   -5.9214   -1.0257 C   0  0  0  0  0  0  0  0  0  0  0  0
    3.6575   -5.7560    0.1261 C   0  0  0  0  0  0  0  0  0  0  0  0
    2.8115   -4.9030    0.2959 O   0  0  0  0  0  0  0  0  0  0  0  0
    4.0167   -6.8178    1.0812 C   0  0  0  0  0  0  0  0  0  0  0  0
    3.4372   -7.0398    2.3281 C   0  0  0  0  0  0  0  0  0  0  0  0
    3.9732   -8.1013    3.0150 C   0  0  0  0  0  0  0  0  0  0  0  0
    5.0226   -8.8797    2.5064 C   0  0  0  0  0  0  0  0  0  0  0  0
    5.6111   -8.6653    1.2839 C   0  0  0  0  0  0  0  0  0  0  0  0
    5.0706   -7.5958    0.5617 C   0  0  0  0  0  0  0  0  0  0  0  0
    5.4253   -7.0825   -0.7549 C   0  0  0  0  0  0  0  0  0  0  0  0
    6.3481   -7.6278   -1.6063 C   0  0  0  0  0  0  0  0  0  0  0  0
    7.1382   -8.7596   -1.3123 C   0  0  0  0  0  0  0  0  0  0  0  0
    7.8219   -9.6657   -1.1400 N   0  0  0  0  0  0  0  0  0  0  0  0
    6.6403   -7.1585   -2.9056 C   0  0  0  0  0  0  0  0  0  0  0  0
    6.9374   -6.8556   -3.9725 N   0  0  0  0  0  0  0  0  0  0  0  0
    5.0530   -9.7745    3.7200 C   0  0  0  0  0  0  0  0  0  0  0  0
    4.4129  -11.1792    3.5940 C   0  0  0  0  0  0  0  0  0  0  0  0
    3.3592  -11.0751    2.5193 C   0  0  0  0  0  0  0  0  0  0  0  0
    2.3642  -10.3403    2.9980 C   0  0  0  0  0  0  0  0  0  0  0  0
    2.7269   -9.9345    4.4051 C   0  0  0  0  0  0  0  0  0  0  0  0
    3.5229  -11.1727    4.8472 C   0  0  0  0  0  0  0  0  0  0  0  0
    3.8823   -8.9095    4.2847 C   0  0  0  0  0  0  0  0  0  0  0  0
    3.8919   -3.9132   -2.2784 C   0  0  0  0  0  0  0  0  0  0  0  0
    2.4757   -4.0035   -2.1867 C   0  0  0  0  0  0  0  0  0  0  0  0
    1.8863   -5.2165   -2.1720 N   0  0  0  0  0  0  0  0  0  0  0  0
    0.5970   -5.2722   -2.0529 C   0  0  0  0  0  0  0  0  0  0  0  0
   -0.1968   -4.0945   -1.9289 C   0  0  0  0  0  0  0  0  0  0  0  0
   -1.5076   -4.2506   -1.7810 O   0  0  0  0  0  0  0  0  0  0  0  0
   -2.3081   -3.0773   -1.6593 C   0  0  0  0  0  0  0  0  0  0  0  0
   -2.1857   -2.4408   -0.2829 C   0  0  0  0  0  0  0  0  0  0  0  0
    0.3505   -2.9047   -2.0131 N   0  0  0  0  0  0  0  0  0  0  0  0
    1.6852   -2.8308   -2.1642 C   0  0  0  0  0  0  0  0  0  0  0  0
    2.2964   -1.5489   -2.2582 C   0  0  0  0  0  0  0  0  0  0  0  0
    3.6412   -1.5227   -2.6194 C   0  0  0  0  0  0  0  0  0  0  0  0
    4.4202   -2.6740   -2.6141 C   0  0  0  0  0  0  0  0  0  0  0  0
    5.7441   -2.5576   -2.8297 F   0  0  0  0  0  0  0  0  0  0  0  0
    4.2132   -0.3552   -2.9730 F   0  0  0  0  0  0  0  0  0  0  0  0
    1.5672   -0.3630   -1.9331 C   0  0  0  0  0  0  0  0  0  0  0  0
    2.0574    0.7886   -1.3172 C   0  0  0  0  0  0  0  0  0  0  0  0
    3.3134    0.9347   -0.7662 N   0  0  0  0  0  0  0  0  0  0  0  0
    3.9206    2.1974   -0.7759 C   0  0  0  0  0  0  0  0  0  0  0  0
    3.7696    3.0391   -1.8740 C   0  0  0  0  0  0  0  0  0  0  0  0
    4.3443    4.2946   -1.8841 C   0  0  0  0  0  0  0  0  0  0  0  0
    5.0876    4.7266   -0.7941 C   0  0  0  0  0  0  0  0  0  0  0  0
    5.8698    6.3028   -0.6884 S   0  0  0  0  0  0  0  0  0  0  0  0
    5.3270    7.1637   -2.1915 C   0  0  0  0  0  0  0  0  0  0  0  0
    5.2541    3.8784    0.3007 C   0  0  0  0  0  0  0  0  0  0  0  0
    4.6766    2.6299    0.3139 C   0  0  0  0  0  0  0  0  0  0  0  0
    3.9638   -0.1619   -0.1813 C   0  0  0  0  0  0  0  0  0  0  0  0
    5.3360   -0.3402   -0.3461 C   0  0  0  0  0  0  0  0  0  0  0  0
    5.9605   -1.4766    0.1285 C   0  0  0  0  0  0  0  0  0  0  0  0
    5.2211   -2.4554    0.7791 C   0  0  0  0  0  0  0  0  0  0  0  0
    5.9108   -3.9817    1.3420 S   0  0  0  0  0  0  0  0  0  0  0  0
    7.4249   -4.1372    0.3479 C   0  0  0  0  0  0  0  0  0  0  0  0
    3.8645   -2.2454    1.0194 C   0  0  0  0  0  0  0  0  0  0  0  0
    3.2431   -1.1138    0.5426 C   0  0  0  0  0  0  0  0  0  0  0  0
    1.0356    1.7622   -1.2041 C   0  0  0  0  0  0  0  0  0  0  0  0
    0.9687    3.3512   -0.5277 S   0  0  0  0  0  0  0  0  0  0  0  0
   -0.7570    3.4389   -0.8667 C   0  0  0  0  0  0  0  0  0  0  0  0
   -1.2543    2.2599   -1.4240 C   0  0  0  0  0  0  0  0  0  0  0  0
   -2.5813    1.9681   -1.6623 N   0  0  0  0  0  0  0  0  0  0  0  0
   -2.8964    1.0902   -2.7107 C   0  0  0  0  0  0  0  0  0  0  0  0
   -2.2244    1.1859   -3.9308 C   0  0  0  0  0  0  0  0  0  0  0  0
   -2.5088    0.3078   -4.9512 C   0  0  0  0  0  0  0  0  0  0  0  0
   -3.4780   -0.6807   -4.7858 C   0  0  0  0  0  0  0  0  0  0  0  0
   -3.7390   -1.7583   -6.1564 S   0  0  0  0  0  0  0  0  0  0  0  0
   -5.0065   -2.9182   -5.5710 C   0  0  0  0  0  0  0  0  0  0  0  0
   -4.1683   -0.7614   -3.5834 C   0  0  0  0  0  0  0  0  0  0  0  0
   -3.8759    0.1139   -2.5561 C   0  0  0  0  0  0  0  0  0  0  0  0
   -3.5965    2.3917   -0.7866 C   0  0  0  0  0  0  0  0  0  0  0  0
   -4.8560    2.7238   -1.2894 C   0  0  0  0  0  0  0  0  0  0  0  0
   -5.8513    3.1556   -0.4434 C   0  0  0  0  0  0  0  0  0  0  0  0
   -5.6163    3.2753    0.9259 C   0  0  0  0  0  0  0  0  0  0  0  0
   -6.9679    3.8099    1.9129 S   0  0  0  0  0  0  0  0  0  0  0  0
   -6.2385    4.0330    3.5582 C   0  0  0  0  0  0  0  0  0  0  0  0
   -4.3659    2.9424    1.4300 C   0  0  0  0  0  0  0  0  0  0  0  0
   -3.3701    2.5010    0.5814 C   0  0  0  0  0  0  0  0  0  0  0  0
   -0.2056    1.3322   -1.6461 C   0  0  0  0  0  0  0  0  0  0  0  0
   -0.1566   -0.3049   -2.2130 S   0  0  0  0  0  0  0  0  0  0  0  0
   -1.4601    4.6231   -0.5309 C   0  0  0  0  0  0  0  0  0  0  0  0
   -2.6468    5.0952   -1.0570 C   0  0  0  0  0  0  0  0  0  0  0  0
   -3.1234    6.2248   -0.3950 C   0  0  0  0  0  0  0  0  0  0  0  0
   -4.5299    7.0340   -0.9127 Cl  0  0  0  0  0  0  0  0  0  0  0  0
   -2.3006    6.6852    0.6246 C   0  0  0  0  0  0  0  0  0  0  0  0
   -0.8823    5.6746    0.7271 S   0  0  0  0  0  0  0  0  0  0  0  0
   -2.4155    7.8229    1.4527 C   0  0  0  0  0  0  0  0  0  0  0  0
   -3.5692    8.3603    1.9538 C   0  0  0  0  0  0  0  0  0  0  0  0
   -3.4835    9.6879    2.5616 C   0  0  0  0  0  0  0  0  0  0  0  0
   -2.4395   10.2852    2.7273 O   0  0  0  0  0  0  0  0  0  0  0  0
   -4.6975   10.2630    2.9121 N   0  0  0  0  0  0  0  0  0  0  0  0
   -4.6402   11.6229    3.4380 C   0  0  0  0  0  0  0  0  0  0  0  0
   -4.7342   12.6573    2.3246 C   0  0  0  0  0  0  0  0  0  0  0  0
   -5.9126    9.6673    2.7203 C   0  0  0  0  0  0  0  0  0  0  0  0
   -7.3122   10.5025    2.9838 S   0  0  0  0  0  0  0  0  0  0  0  0
   -5.9447    8.3516    2.3525 N   0  0  0  0  0  0  0  0  0  0  0  0
   -7.2269    7.6585    2.2835 C   0  0  0  0  0  0  0  0  0  0  0  0
   -7.8879    7.8428    0.9244 C   0  0  0  0  0  0  0  0  0  0  0  0
   -4.8163    7.6088    2.0354 C   0  0  0  0  0  0  0  0  0  0  0  0
   -4.8829    6.3999    1.9126 O   0  0  0  0  0  0  0  0  0  0  0  0
    5.6302   -5.1032   -2.6733 H   0  0  0  0  0  0  0  0  0  0  0  0
    2.6360   -6.4119    2.6850 H   0  0  0  0  0  0  0  0  0  0  0  0
    6.4233   -9.2669    0.9112 H   0  0  0  0  0  0  0  0  0  0  0  0
    5.9880   -9.7927    4.2762 H   0  0  0  0  0  0  0  0  0  0  0  0
    5.1259  -11.9924    3.4898 H   0  0  0  0  0  0  0  0  0  0  0  0
    3.4680  -11.4854    1.5325 H   0  0  0  0  0  0  0  0  0  0  0  0
    1.4756  -10.0133    2.4904 H   0  0  0  0  0  0  0  0  0  0  0  0
    1.9045   -9.6151    5.0400 H   0  0  0  0  0  0  0  0  0  0  0  0
    4.0775  -11.0245    5.7727 H   0  0  0  0  0  0  0  0  0  0  0  0
    2.9034  -12.0646    4.9283 H   0  0  0  0  0  0  0  0  0  0  0  0
    4.0515   -8.3641    5.2111 H   0  0  0  0  0  0  0  0  0  0  0  0
    0.1283   -6.2452   -2.0679 H   0  0  0  0  0  0  0  0  0  0  0  0
   -2.0230   -2.3601   -2.4349 H   0  0  0  0  0  0  0  0  0  0  0  0
   -3.3283   -3.4266   -1.8334 H   0  0  0  0  0  0  0  0  0  0  0  0
   -2.8361   -1.5731   -0.2274 H   0  0  0  0  0  0  0  0  0  0  0  0
   -1.1610   -2.1232   -0.1129 H   0  0  0  0  0  0  0  0  0  0  0  0
   -2.4690   -3.1525    0.4886 H   0  0  0  0  0  0  0  0  0  0  0  0
    3.2126    2.6982   -2.7337 H   0  0  0  0  0  0  0  0  0  0  0  0
    4.2122    4.9186   -2.7528 H   0  0  0  0  0  0  0  0  0  0  0  0
    4.2426    7.2162   -2.2147 H   0  0  0  0  0  0  0  0  0  0  0  0
    5.7199    6.6638   -3.0721 H   0  0  0  0  0  0  0  0  0  0  0  0
    5.7437    8.1637   -2.1210 H   0  0  0  0  0  0  0  0  0  0  0  0
    5.8354    4.2195    1.1434 H   0  0  0  0  0  0  0  0  0  0  0  0
    4.7987    1.9836    1.1701 H   0  0  0  0  0  0  0  0  0  0  0  0
    5.9078    0.3997   -0.8853 H   0  0  0  0  0  0  0  0  0  0  0  0
    7.0185   -1.5961   -0.0378 H   0  0  0  0  0  0  0  0  0  0  0  0
    8.1903   -3.4611    0.7169 H   0  0  0  0  0  0  0  0  0  0  0  0
    7.1963   -3.9394   -0.6954 H   0  0  0  0  0  0  0  0  0  0  0  0
    7.7572   -5.1637    0.4714 H   0  0  0  0  0  0  0  0  0  0  0  0
    3.3003   -2.9891    1.5579 H   0  0  0  0  0  0  0  0  0  0  0  0
    2.1874   -0.9697    0.7159 H   0  0  0  0  0  0  0  0  0  0  0  0
   -1.4806    1.9556   -4.0713 H   0  0  0  0  0  0  0  0  0  0  0  0
   -1.9872    0.3780   -5.8930 H   0  0  0  0  0  0  0  0  0  0  0  0
   -5.1792   -3.6003   -6.3977 H   0  0  0  0  0  0  0  0  0  0  0  0
   -5.9230   -2.3841   -5.3385 H   0  0  0  0  0  0  0  0  0  0  0  0
   -4.6370   -3.4686   -4.7107 H   0  0  0  0  0  0  0  0  0  0  0  0
   -4.9315   -1.5061   -3.4274 H   0  0  0  0  0  0  0  0  0  0  0  0
   -4.4122    0.0377   -1.6221 H   0  0  0  0  0  0  0  0  0  0  0  0
   -5.0436    2.6476   -2.3506 H   0  0  0  0  0  0  0  0  0  0  0  0
   -6.8227    3.4175   -0.8338 H   0  0  0  0  0  0  0  0  0  0  0  0
   -7.0283    4.4433    4.1806 H   0  0  0  0  0  0  0  0  0  0  0  0
   -5.9161    3.0765    3.9595 H   0  0  0  0  0  0  0  0  0  0  0  0
   -5.4147    4.7367    3.4797 H   0  0  0  0  0  0  0  0  0  0  0  0
   -4.1516    3.0194    2.4828 H   0  0  0  0  0  0  0  0  0  0  0  0
   -2.4059    2.2342    0.9884 H   0  0  0  0  0  0  0  0  0  0  0  0
   -3.1415    4.6630   -1.9051 H   0  0  0  0  0  0  0  0  0  0  0  0
   -1.4964    8.3402    1.7082 H   0  0  0  0  0  0  0  0  0  0  0  0
   -3.6825   11.7147    3.9536 H   0  0  0  0  0  0  0  0  0  0  0  0
   -5.4587   11.7483    4.1484 H   0  0  0  0  0  0  0  0  0  0  0  0
   -4.6678   13.6540    2.7507 H   0  0  0  0  0  0  0  0  0  0  0  0
   -5.6816   12.5655    1.7989 H   0  0  0  0  0  0  0  0  0  0  0  0
   -3.9182   12.5225    1.6187 H   0  0  0  0  0  0  0  0  0  0  0  0
   -7.0213    6.6008    2.4504 H   0  0  0  0  0  0  0  0  0  0  0  0
   -7.8693    8.0423    3.0773 H   0  0  0  0  0  0  0  0  0  0  0  0
   -8.8167    7.2805    0.8995 H   0  0  0  0  0  0  0  0  0  0  0  0
   -7.2367    7.4730    0.1360 H   0  0  0  0  0  0  0  0  0  0  0  0
   -8.1074    8.8919    0.7428 H   0  0  0  0  0  0  0  0  0  0  0  0
  1  2  2  0  0  0  0
  2  3  1  0  0  0  0
  3  4  2  0  0  0  0
  3  5  1  0  0  0  0
  5  6  2  0  0  0  0
  6  7  1  0  0  0  0
  7  8  2  0  0  0  0
  8  9  1  0  0  0  0
  9 10  2  0  0  0  0
 10 11  1  0  0  0  0
 11 12  2  0  0  0  0
 12 13  1  0  0  0  0
 13 14  3  0  0  0  0
 12 15  1  0  0  0  0
 15 16  3  0  0  0  0
  8 17  1  0  0  0  0
 17 18  1  0  0  0  0
 18 19  1  0  0  0  0
 19 20  2  0  0  0  0
 20 21  1  0  0  0  0
 21 22  1  0  0  0  0
 21 23  1  0  0  0  0
  1 24  1  0  0  0  0
 24 25  1  0  0  0  0
 25 26  2  0  0  0  0
 26 27  1  0  0  0  0
 27 28  2  0  0  0  0
 28 29  1  0  0  0  0
 29 30  1  0  0  0  0
 30 31  1  0  0  0  0
 28 32  1  0  0  0  0
 32 33  2  0  0  0  0
 33 34  1  0  0  0  0
 34 35  2  0  0  0  0
 35 36  1  0  0  0  0
 36 37  1  0  0  0  0
 35 38  1  0  0  0  0
 34 39  1  0  0  0  0
 39 40  2  0  0  0  0
 40 41  1  0  0  0  0
 41 42  1  0  0  0  0
 42 43  2  0  0  0  0
 43 44  1  0  0  0  0
 44 45  2  0  0  0  0
 45 46  1  0  0  0  0
 46 47  1  0  0  0  0
 45 48  1  0  0  0  0
 48 49  2  0  0  0  0
 41 50  1  0  0  0  0
 50 51  2  0  0  0  0
 51 52  1  0  0  0  0
 52 53  2  0  0  0  0
 53 54  1  0  0  0  0
 54 55  1  0  0  0  0
 53 56  1  0  0  0  0
 56 57  2  0  0  0  0
 40 58  1  0  0  0  0
 58 59  1  0  0  0  0
 59 60  1  0  0  0  0
 60 61  2  0  0  0  0
 61 62  1  0  0  0  0
 62 63  1  0  0  0  0
 63 64  2  0  0  0  0
 64 65  1  0  0  0  0
 65 66  2  0  0  0  0
 66 67  1  0  0  0  0
 67 68  1  0  0  0  0
 66 69  1  0  0  0  0
 69 70  2  0  0  0  0
 62 71  1  0  0  0  0
 71 72  2  0  0  0  0
 72 73  1  0  0  0  0
 73 74  2  0  0  0  0
 74 75  1  0  0  0  0
 75 76  1  0  0  0  0
 74 77  1  0  0  0  0
 77 78  2  0  0  0  0
 61 79  1  0  0  0  0
 79 80  1  0  0  0  0
 60 81  1  0  0  0  0
 81 82  2  0  0  0  0
 82 83  1  0  0  0  0
 83 84  1  0  0  0  0
 83 85  2  0  0  0  0
 85 86  1  0  0  0  0
 85 87  1  0  0  0  0
 87 88  2  0  0  0  0
 88 89  1  0  0  0  0
 89 90  2  0  0  0  0
 89 91  1  0  0  0  0
 91 92  1  0  0  0  0
 92 93  1  0  0  0  0
 91 94  1  0  0  0  0
 94 95  2  0  0  0  0
 94 96  1  0  0  0  0
 96 97  1  0  0  0  0
 97 98  1  0  0  0  0
 96 99  1  0  0  0  0
 99100  2  0  0  0  0
 11  2  1  0  0  0  0
 23 17  1  0  0  0  0
 36 24  2  0  0  0  0
 80 39  1  0  0  0  0
 86 81  1  0  0  0  0
 99 88  1  0  0  0  0
 10  5  1  0  0  0  0
 22 18  1  0  0  0  0
 33 25  1  0  0  0  0
 49 42  1  0  0  0  0
 57 50  1  0  0  0  0
 79 58  2  0  0  0  0
 23  7  1  0  0  0  0
 70 63  1  0  0  0  0
 78 71  1  0  0  0  0
  1101  1  0  0  0  0
  6102  1  0  0  0  0
  9103  1  0  0  0  0
 17104  1  0  0  0  0
 18105  1  0  0  0  0
 19106  1  0  0  0  0
 20107  1  0  0  0  0
 21108  1  0  0  0  0
 22109  1  0  0  0  0
 22110  1  0  0  0  0
 23111  1  0  0  0  0
 27112  1  0  0  0  0
 30113  1  0  0  0  0
 30114  1  0  0  0  0
 31115  1  0  0  0  0
 31116  1  0  0  0  0
 31117  1  0  0  0  0
 43118  1  0  0  0  0
 44119  1  0  0  0  0
 47120  1  0  0  0  0
 47121  1  0  0  0  0
 47122  1  0  0  0  0
 48123  1  0  0  0  0
 49124  1  0  0  0  0
 51125  1  0  0  0  0
 52126  1  0  0  0  0
 55127  1  0  0  0  0
 55128  1  0  0  0  0
 55129  1  0  0  0  0
 56130  1  0  0  0  0
 57131  1  0  0  0  0
 64132  1  0  0  0  0
 65133  1  0  0  0  0
 68134  1  0  0  0  0
 68135  1  0  0  0  0
 68136  1  0  0  0  0
 69137  1  0  0  0  0
 70138  1  0  0  0  0
 72139  1  0  0  0  0
 73140  1  0  0  0  0
 76141  1  0  0  0  0
 76142  1  0  0  0  0
 76143  1  0  0  0  0
 77144  1  0  0  0  0
 78145  1  0  0  0  0
 82146  1  0  0  0  0
 87147  1  0  0  0  0
 92148  1  0  0  0  0
 92149  1  0  0  0  0
 93150  1  0  0  0  0
 93151  1  0  0  0  0
 93152  1  0  0  0  0
 97153  1  0  0  0  0
 97154  1  0  0  0  0
 98155  1  0  0  0  0
 98156  1  0  0  0  0
 98157  1  0  0  0  0
M  END
