200

C          6.71750        3.92500       -0.46600
C          6.98490        4.98290       -1.30240
C          6.21430        5.36970       -2.48720
O          5.36400        4.71740       -3.06850
C          6.67090        6.72390       -2.84970
C          6.19410        7.52110       -3.88730
C          6.79910        8.75270       -3.96880
C          7.81060        9.15760       -3.08880
C          8.29830        8.37560       -2.06790
C          7.69040        7.12140       -1.96140
C          7.94510        6.02530       -1.02610
C          8.92190        6.01410       -0.05840
C          9.27850        4.89560        0.71820
N          9.65380        4.01920        1.36100
C          9.72120        7.12430        0.27670
N         10.37160        8.00470        0.62550
C          7.95450       10.50750       -3.74690
C          7.31210       11.70430       -3.01410
C          7.18740       12.76120       -4.08770
C          6.22900       12.37810       -4.92160
C          5.68960       11.05590       -4.42560
C          5.84790       11.25750       -2.91300
C          6.82590       10.05610       -4.72860
C          5.68490        2.98600       -0.49790
C          5.36790        2.14140        0.59530
N          5.90430        2.23760        1.85650
C          6.00810        1.08240        2.64820
C          6.43220       -0.12290        2.08770
C          6.57260       -1.24160        2.87700
C          6.30170       -1.18150        4.24270
S          6.56420       -2.66190        5.16180
C          6.36370       -2.14340        6.89230
C          5.85880        0.01080        4.80010
C          5.71240        1.13110        4.00720
C          6.27110        3.47640        2.41380
C          7.39280        3.57230        3.23690
C          7.79740        4.79980        3.71460
C          7.10530        5.95610        3.36650
S          7.75170        7.49280        3.94580
C          7.08350        8.68770        2.75120
C          5.94890        5.85560        2.60050
C          5.52920        4.62490        2.14090
C          4.35270        1.23330        0.25030
S          3.46960        0.01120        1.10800
C          2.41320       -0.22280       -0.27950
C          2.73680        0.60630       -1.34350
N          2.11630        0.66810       -2.58770
C          2.98200        0.80920       -3.68930
C          4.10540       -0.00750       -3.77620
C          5.00500        0.13380       -4.81470
C          4.79030        1.09740       -5.78980
S          5.86160        1.36960       -7.16570
C          7.32050        0.35670       -6.78780
C          3.66120        1.91040       -5.71200
C          2.76890        1.77350       -4.67370
C          0.76140        0.97140       -2.72000
C          0.08190        0.60760       -3.88220
C         -1.24460        0.94300       -4.06270
C         -1.92340        1.64630       -3.07690
S         -3.59880        2.18750       -3.22340
C         -4.07430        1.68090       -4.90140
C         -1.26360        1.97270       -1.89430
C          0.06160        1.64240       -1.71530
C          3.86020        1.41050       -1.03590
S          4.63680        2.69580       -1.88810
C          1.37860       -1.18520       -0.09940
C          0.22250       -1.47880       -0.77540
C         -0.45740       -2.45620       -0.00330
C         -1.69720       -3.09050       -0.14760
C         -2.69260       -2.81840       -1.18620
C         -3.04720       -1.51450       -1.51910
C         -4.10820       -1.28000       -2.37250
C         -4.81950       -2.32970       -2.93730
C         -6.03680       -2.08130       -3.78010
C         -7.29510       -2.22300       -2.92060
C         -4.43070       -3.63080       -2.64110
C         -3.39050       -3.87430       -1.76980
C         -1.99570       -3.97320        0.88040
C         -1.14080       -4.27610        1.97210
C          0.12660       -3.67310        2.09120
C          1.08460       -4.02710        3.13810
C          1.18690       -5.35010        3.56770
C          2.10680       -5.71010        4.53180
C          2.96190       -4.76900        5.09020
C          3.94510       -5.15540        6.15630
C          3.43250       -4.75330        7.54040
C          2.86790       -3.45290        4.65260
C          1.94760       -3.08280        3.69310
C          0.39180       -2.73200        1.10350
O          1.49450       -1.94910        1.02750
C         -1.90860       -5.12790        2.81260
C         -3.13250       -5.27660        2.20800
O         -3.18140       -4.60060        1.03010
C         -4.35230       -5.89780        2.60170
C         -4.62320       -6.65970        3.72010
C         -5.96910       -7.01100        3.80170
S         -6.71960       -7.91510        5.09620
C         -5.31400       -8.79830        5.86000
C         -4.72830       -9.84450        4.93250
C         -6.74750       -6.49920        2.74330
S         -5.75280       -5.58390        1.63600
C         -8.12560       -6.71440        2.63890
C         -9.03700       -6.18740        1.75800
C         -8.76010       -5.18650        0.72260
O         -7.67290       -4.79190        0.33590
C        -10.07070       -4.73700        0.22180
C        -10.30980       -3.73940       -0.72080
C        -11.64240       -3.51960       -0.97330
C        -12.66210       -4.23760       -0.33540
C        -12.43860       -5.23010        0.58990
C        -11.08860       -5.47170        0.86170
C        -10.46480       -6.43000        1.77480
C        -11.12650       -7.41060        2.46890
C        -10.52010       -8.39930        3.27230
N        -10.11560       -9.25500        3.92350
C        -12.52300       -7.60230        2.44020
N        -13.65120       -7.81600        2.47060
C        -13.75300       -3.47920       -1.05090
C        -14.47840       -2.38450       -0.23980
C        -15.12190       -1.51750       -1.29780
C        -14.15680       -0.84050       -1.90680
C        -12.84460       -1.23830       -1.27020
C        -13.31210       -1.47640        0.17130
C        -12.61530       -2.68180       -1.76570
H          7.36530        3.83490        0.39600
H          5.41860        7.16520       -4.54740
H          9.08380        8.69980       -1.40580
H          8.93810       10.73530       -4.15310
H          7.81210       11.99690       -2.09470
H          7.82620       13.62190       -4.15920
H          5.90730       12.85490       -5.82890
H          4.71070       10.75840       -4.79180
H          5.69950       10.35210       -2.32720
H          5.20170       12.04740       -2.53310
H          7.05720        9.98350       -5.78970
H          6.67290       -0.16840        1.03630
H          6.91100       -2.17260        2.44950
H          6.61770       -3.01330        7.49000
H          5.33400       -1.85620        7.08520
H          7.04870       -1.33060        7.11410
H          5.62160        0.08350        5.84910
H          5.36790        2.05570        4.44580
H          7.96570        2.68830        3.46800
H          8.68030        4.87930        4.32840
H          7.22360        8.30830        1.74330
H          7.66510        9.59400        2.88630
H          6.03550        8.88890        2.95460
H          5.36460        6.73070        2.36370
H          4.63100        4.55430        1.54520
H          4.27610       -0.75870       -3.01860
H          5.86460       -0.51590       -4.85020
H          7.06630       -0.69880       -6.82380
H          7.71800        0.63600       -5.81660
H          8.04450        0.58540       -7.56360
H          3.50550        2.66410       -6.46810
H          1.91310        2.42760       -4.60780
H          0.60490        0.06210       -4.65340
H         -1.73320        0.64820       -4.97690
H         -5.09760        2.02090       -5.02930
H         -3.43150        2.16640       -5.62980
H         -4.02920        0.59910       -4.99320
H         -1.80000        2.50620       -1.12420
H          0.56780        1.91870       -0.80290
H         -0.11490       -1.05510       -1.69600
H         -2.52350       -0.68360       -1.06920
H         -4.40660       -0.26260       -2.57620
H         -6.07710       -2.80390       -4.59870
H         -6.00360       -1.07740       -4.20930
H         -7.29310       -1.47520       -2.13010
H         -8.18960       -2.09160       -3.52690
H         -7.32080       -3.20700       -2.45730
H         -4.96590       -4.46050       -3.08010
H         -3.11390       -4.89050       -1.53290
H          0.56360       -6.10640        3.11460
H          2.17280       -6.74250        4.84630
H          4.90000       -4.66260        5.96490
H          4.10970       -6.23430        6.13400
H          3.26260       -3.68000        7.58790
H          2.49100       -5.25450        7.75510
H          4.15250       -5.02650        8.30860
H          3.53360       -2.70680        5.06100
H          1.89390       -2.05380        3.37370
H         -1.61870       -5.53340        3.75980
H         -3.87090       -6.92460        4.43940
H         -4.57640       -8.06490        6.18250
H         -5.75570       -9.26240        6.74170
H         -5.49640      -10.55570        4.63840
H         -4.32160       -9.38510        4.03390
H         -3.93020      -10.38250        5.44020
H         -8.51540       -7.36710        3.41260
H         -9.49470       -3.20720       -1.18520
H        -13.23470       -5.77340        1.07070
H        -14.43020       -4.07840       -1.65650
H        -15.12640       -2.75650        0.54900
H        -16.17190       -1.52730       -1.52440
H        -14.23980       -0.17190       -2.74360
H        -12.00400       -0.56600       -1.41990
H        -12.57150       -1.96300        0.80320
H        -13.65340       -0.55990        0.64990
H        -12.53220       -2.75260       -2.84870
