
  xtb     02052223393D
 energy: -445.649002767127 gnorm: 0.000594015693 xtb: 6.4.1 (unknown)
271295  0     0  0            999 V2000
   -2.0180    5.9336    5.0791 C   0  0  0  0  0  0  0  0  0  0  0  0
   -3.1074    6.7669    5.1121 C   0  0  0  0  0  0  0  0  0  0  0  0
   -4.1380    6.4609    6.1342 C   0  0  0  0  0  0  0  0  0  0  0  0
   -3.9913    5.7995    7.1398 O   0  0  0  0  0  0  0  0  0  0  0  0
   -5.3825    7.0812    5.6361 C   0  0  0  0  0  0  0  0  0  0  0  0
   -6.6553    6.9822    6.1921 C   0  0  0  0  0  0  0  0  0  0  0  0
   -7.6300    7.6425    5.4823 C   0  0  0  0  0  0  0  0  0  0  0  0
   -7.3565    8.3633    4.3137 C   0  0  0  0  0  0  0  0  0  0  0  0
   -6.1018    8.4849    3.7642 C   0  0  0  0  0  0  0  0  0  0  0  0
   -5.0996    7.8020    4.4587 C   0  0  0  0  0  0  0  0  0  0  0  0
   -3.6582    7.7288    4.2060 C   0  0  0  0  0  0  0  0  0  0  0  0
   -2.9589    8.5917    3.3906 C   0  0  0  0  0  0  0  0  0  0  0  0
   -1.5877    8.8609    3.5601 C   0  0  0  0  0  0  0  0  0  0  0  0
   -0.5076    9.2091    3.7420 N   0  0  0  0  0  0  0  0  0  0  0  0
   -3.5601    9.3768    2.3978 C   0  0  0  0  0  0  0  0  0  0  0  0
   -3.9975    9.9714    1.5145 N   0  0  0  0  0  0  0  0  0  0  0  0
   -8.8002    8.7549    4.1192 C   0  0  0  0  0  0  0  0  0  0  0  0
   -9.5856    7.9710    3.0464 C   0  0  0  0  0  0  0  0  0  0  0  0
  -11.0329    8.2185    3.4056 C   0  0  0  0  0  0  0  0  0  0  0  0
  -11.2942    7.5406    4.5159 C   0  0  0  0  0  0  0  0  0  0  0  0
  -10.0286    6.8227    4.9248 C   0  0  0  0  0  0  0  0  0  0  0  0
   -9.4344    6.5267    3.5417 C   0  0  0  0  0  0  0  0  0  0  0  0
   -9.1058    7.9541    5.4256 C   0  0  0  0  0  0  0  0  0  0  0  0
   -1.1344    5.5540    4.0670 C   0  0  0  0  0  0  0  0  0  0  0  0
   -0.4247    4.3341    4.1003 C   0  0  0  0  0  0  0  0  0  0  0  0
   -0.2496    3.5250    5.1916 N   0  0  0  0  0  0  0  0  0  0  0  0
    0.0023    4.0213    6.4785 C   0  0  0  0  0  0  0  0  0  0  0  0
   -0.3677    3.2654    7.5913 C   0  0  0  0  0  0  0  0  0  0  0  0
   -0.1104    3.7311    8.8606 C   0  0  0  0  0  0  0  0  0  0  0  0
    0.5187    4.9604    9.0504 C   0  0  0  0  0  0  0  0  0  0  0  0
    0.7980    5.4534   10.7196 S   0  0  0  0  0  0  0  0  0  0  0  0
    1.3684    7.1710   10.5762 C   0  0  0  0  0  0  0  0  0  0  0  0
    0.9002    5.7088    7.9438 C   0  0  0  0  0  0  0  0  0  0  0  0
    0.6482    5.2403    6.6706 C   0  0  0  0  0  0  0  0  0  0  0  0
   -0.1146    2.1362    4.9568 C   0  0  0  0  0  0  0  0  0  0  0  0
    1.0233    1.4481    5.3611 C   0  0  0  0  0  0  0  0  0  0  0  0
    1.1902    0.1177    5.0268 C   0  0  0  0  0  0  0  0  0  0  0  0
    0.2186   -0.5414    4.2836 C   0  0  0  0  0  0  0  0  0  0  0  0
    0.3661   -2.2088    3.7311 S   0  0  0  0  0  0  0  0  0  0  0  0
    2.0769   -2.6572    4.1386 C   0  0  0  0  0  0  0  0  0  0  0  0
   -0.9530    0.1291    3.9344 C   0  0  0  0  0  0  0  0  0  0  0  0
   -1.1181    1.4539    4.2705 C   0  0  0  0  0  0  0  0  0  0  0  0
    0.0499    4.0009    2.8187 C   0  0  0  0  0  0  0  0  0  0  0  0
    0.7897    2.5786    2.1961 S   0  0  0  0  0  0  0  0  0  0  0  0
    0.7995    3.2834    0.5848 C   0  0  0  0  0  0  0  0  0  0  0  0
    0.3984    4.6154    0.5676 C   0  0  0  0  0  0  0  0  0  0  0  0
    0.5720    5.4413   -0.5190 N   0  0  0  0  0  0  0  0  0  0  0  0
    1.4094    5.0224   -1.5830 C   0  0  0  0  0  0  0  0  0  0  0  0
    0.9884    5.2489   -2.8899 C   0  0  0  0  0  0  0  0  0  0  0  0
    1.7542    4.8182   -3.9509 C   0  0  0  0  0  0  0  0  0  0  0  0
    2.9526    4.1402   -3.7278 C   0  0  0  0  0  0  0  0  0  0  0  0
    3.7936    3.5315   -5.1546 S   0  0  0  0  0  0  0  0  0  0  0  0
    5.1580    2.5490   -4.4721 C   0  0  0  0  0  0  0  0  0  0  0  0
    3.4095    3.9754   -2.4274 C   0  0  0  0  0  0  0  0  0  0  0  0
    2.6475    4.4261   -1.3663 C   0  0  0  0  0  0  0  0  0  0  0  0
    0.3505    6.8381   -0.4668 C   0  0  0  0  0  0  0  0  0  0  0  0
    1.4223    7.6883   -0.7412 C   0  0  0  0  0  0  0  0  0  0  0  0
    1.2540    9.0531   -0.7157 C   0  0  0  0  0  0  0  0  0  0  0  0
    0.0122    9.6026   -0.4082 C   0  0  0  0  0  0  0  0  0  0  0  0
   -0.0996   11.3639   -0.4139 S   0  0  0  0  0  0  0  0  0  0  0  0
   -1.4005   11.6981    0.8052 C   0  0  0  0  0  0  0  0  0  0  0  0
   -1.0640    8.7619   -0.1612 C   0  0  0  0  0  0  0  0  0  0  0  0
   -0.8960    7.3883   -0.1981 C   0  0  0  0  0  0  0  0  0  0  0  0
   -0.1187    4.9771    1.8419 C   0  0  0  0  0  0  0  0  0  0  0  0
   -1.0061    6.3167    2.4789 S   0  0  0  0  0  0  0  0  0  0  0  0
    1.1266    2.3539   -0.4542 C   0  0  0  0  0  0  0  0  0  0  0  0
    0.4044    1.9652   -1.5721 C   0  0  0  0  0  0  0  0  0  0  0  0
   -0.7665    2.5532   -2.0246 N   0  0  0  0  0  0  0  0  0  0  0  0
   -1.6761    3.0879   -1.0962 C   0  0  0  0  0  0  0  0  0  0  0  0
   -1.8980    2.4683    0.1343 C   0  0  0  0  0  0  0  0  0  0  0  0
   -2.7545    3.0358    1.0514 C   0  0  0  0  0  0  0  0  0  0  0  0
   -3.4286    4.2191    0.7583 C   0  0  0  0  0  0  0  0  0  0  0  0
   -4.4622    4.8766    2.0336 S   0  0  0  0  0  0  0  0  0  0  0  0
   -5.3438    6.2345    1.2146 C   0  0  0  0  0  0  0  0  0  0  0  0
   -3.2531    4.8084   -0.4869 C   0  0  0  0  0  0  0  0  0  0  0  0
   -2.3780    4.2494   -1.3997 C   0  0  0  0  0  0  0  0  0  0  0  0
   -1.1784    2.3286   -3.3457 C   0  0  0  0  0  0  0  0  0  0  0  0
   -0.2490    2.2887   -4.3873 C   0  0  0  0  0  0  0  0  0  0  0  0
   -0.6446    1.9684   -5.6672 C   0  0  0  0  0  0  0  0  0  0  0  0
   -1.9778    1.6812   -5.9459 C   0  0  0  0  0  0  0  0  0  0  0  0
   -2.3596    1.2079   -7.6011 S   0  0  0  0  0  0  0  0  0  0  0  0
   -4.1283    0.8080   -7.5482 C   0  0  0  0  0  0  0  0  0  0  0  0
   -2.9171    1.7789   -4.9284 C   0  0  0  0  0  0  0  0  0  0  0  0
   -2.5195    2.1014   -3.6460 C   0  0  0  0  0  0  0  0  0  0  0  0
    0.9500    0.7850   -2.1328 C   0  0  0  0  0  0  0  0  0  0  0  0
    0.3832   -0.3044   -3.3429 S   0  0  0  0  0  0  0  0  0  0  0  0
    1.5495   -1.5068   -2.8366 C   0  0  0  0  0  0  0  0  0  0  0  0
    2.4147   -1.0339   -1.8601 C   0  0  0  0  0  0  0  0  0  0  0  0
    3.4567   -1.8008   -1.2979 N   0  0  0  0  0  0  0  0  0  0  0  0
    4.7645   -1.5025   -1.7516 C   0  0  0  0  0  0  0  0  0  0  0  0
    5.5802   -2.4613   -2.3456 C   0  0  0  0  0  0  0  0  0  0  0  0
    6.8331   -2.1285   -2.8271 C   0  0  0  0  0  0  0  0  0  0  0  0
    7.2965   -0.8245   -2.7304 C   0  0  0  0  0  0  0  0  0  0  0  0
    8.8604   -0.2686   -3.3278 S   0  0  0  0  0  0  0  0  0  0  0  0
    9.6711   -1.7831   -3.9086 C   0  0  0  0  0  0  0  0  0  0  0  0
    6.4873    0.1385   -2.1330 C   0  0  0  0  0  0  0  0  0  0  0  0
    5.2409   -0.1953   -1.6526 C   0  0  0  0  0  0  0  0  0  0  0  0
    3.1401   -2.8278   -0.4181 C   0  0  0  0  0  0  0  0  0  0  0  0
    4.0983   -3.7095    0.0887 C   0  0  0  0  0  0  0  0  0  0  0  0
    3.7270   -4.7471    0.9181 C   0  0  0  0  0  0  0  0  0  0  0  0
    2.3956   -4.9332    1.2786 C   0  0  0  0  0  0  0  0  0  0  0  0
    2.0124   -6.3144    2.3240 S   0  0  0  0  0  0  0  0  0  0  0  0
    0.2209   -6.1735    2.5799 C   0  0  0  0  0  0  0  0  0  0  0  0
    1.4479   -4.0260    0.8336 C   0  0  0  0  0  0  0  0  0  0  0  0
    1.8197   -2.9857    0.0090 C   0  0  0  0  0  0  0  0  0  0  0  0
    2.0393    0.2618   -1.4519 C   0  0  0  0  0  0  0  0  0  0  0  0
    2.4573    1.2546   -0.1019 S   0  0  0  0  0  0  0  0  0  0  0  0
    1.4056   -2.8499   -3.2885 C   0  0  0  0  0  0  0  0  0  0  0  0
    0.2340   -3.4745   -3.6922 C   0  0  0  0  0  0  0  0  0  0  0  0
   -1.0198   -2.8552   -3.8010 N   0  0  0  0  0  0  0  0  0  0  0  0
   -1.6436   -2.3612   -2.6566 C   0  0  0  0  0  0  0  0  0  0  0  0
   -1.3529   -2.9031   -1.4031 C   0  0  0  0  0  0  0  0  0  0  0  0
   -1.9048   -2.3609   -0.2620 C   0  0  0  0  0  0  0  0  0  0  0  0
   -2.7736   -1.2775   -0.3440 C   0  0  0  0  0  0  0  0  0  0  0  0
   -3.4084   -0.6246    1.1738 S   0  0  0  0  0  0  0  0  0  0  0  0
   -4.8869    0.2919    0.6556 C   0  0  0  0  0  0  0  0  0  0  0  0
   -3.0825   -0.7460   -1.5879 C   0  0  0  0  0  0  0  0  0  0  0  0
   -2.5214   -1.2787   -2.7296 C   0  0  0  0  0  0  0  0  0  0  0  0
   -1.5832   -2.7367   -5.0768 C   0  0  0  0  0  0  0  0  0  0  0  0
   -2.9554   -2.8913   -5.2757 C   0  0  0  0  0  0  0  0  0  0  0  0
   -3.4925   -2.7530   -6.5359 C   0  0  0  0  0  0  0  0  0  0  0  0
   -2.6749   -2.4708   -7.6287 C   0  0  0  0  0  0  0  0  0  0  0  0
   -3.4720   -2.3126   -9.1980 S   0  0  0  0  0  0  0  0  0  0  0  0
   -2.1994   -1.5560  -10.2481 C   0  0  0  0  0  0  0  0  0  0  0  0
   -1.3063   -2.3473   -7.4408 C   0  0  0  0  0  0  0  0  0  0  0  0
   -0.7688   -2.4775   -6.1754 C   0  0  0  0  0  0  0  0  0  0  0  0
    0.4395   -4.8582   -3.8904 C   0  0  0  0  0  0  0  0  0  0  0  0
   -0.5987   -6.2058   -4.1848 S   0  0  0  0  0  0  0  0  0  0  0  0
    0.7129   -7.3251   -3.8166 C   0  0  0  0  0  0  0  0  0  0  0  0
    1.9076   -6.6778   -3.5550 C   0  0  0  0  0  0  0  0  0  0  0  0
    3.1474   -7.2547   -3.3400 N   0  0  0  0  0  0  0  0  0  0  0  0
    4.2985   -6.6313   -3.8245 C   0  0  0  0  0  0  0  0  0  0  0  0
    4.2730   -5.9324   -5.0352 C   0  0  0  0  0  0  0  0  0  0  0  0
    5.4150   -5.3420   -5.5277 C   0  0  0  0  0  0  0  0  0  0  0  0
    6.6176   -5.4453   -4.8355 C   0  0  0  0  0  0  0  0  0  0  0  0
    8.0314   -4.6493   -5.5438 S   0  0  0  0  0  0  0  0  0  0  0  0
    9.4277   -5.5240   -4.7754 C   0  0  0  0  0  0  0  0  0  0  0  0
    6.6557   -6.1444   -3.6387 C   0  0  0  0  0  0  0  0  0  0  0  0
    5.5102   -6.7345   -3.1425 C   0  0  0  0  0  0  0  0  0  0  0  0
    3.3135   -8.2930   -2.3809 C   0  0  0  0  0  0  0  0  0  0  0  0
    3.3390   -7.9863   -1.0227 C   0  0  0  0  0  0  0  0  0  0  0  0
    3.5308   -8.9885   -0.0972 C   0  0  0  0  0  0  0  0  0  0  0  0
    3.6818  -10.3124   -0.5131 C   0  0  0  0  0  0  0  0  0  0  0  0
    3.8349  -11.5165    0.7689 S   0  0  0  0  0  0  0  0  0  0  0  0
    4.1040  -13.0812   -0.1065 C   0  0  0  0  0  0  0  0  0  0  0  0
    3.6787  -10.6133   -1.8693 C   0  0  0  0  0  0  0  0  0  0  0  0
    3.5093   -9.6004   -2.7977 C   0  0  0  0  0  0  0  0  0  0  0  0
    1.7300   -5.2741   -3.6165 C   0  0  0  0  0  0  0  0  0  0  0  0
    2.7521   -3.9586   -3.1822 S   0  0  0  0  0  0  0  0  0  0  0  0
    0.4077   -8.7312   -3.7654 C   0  0  0  0  0  0  0  0  0  0  0  0
    0.4515   -9.4359   -2.6161 C   0  0  0  0  0  0  0  0  0  0  0  0
    0.3071  -11.1804   -2.5236 S   0  0  0  0  0  0  0  0  0  0  0  0
    0.4377  -11.1359   -0.7764 C   0  0  0  0  0  0  0  0  0  0  0  0
    0.4645  -12.3006   -0.0569 C   0  0  0  0  0  0  0  0  0  0  0  0
    0.4672  -13.5320   -0.7443 C   0  0  0  0  0  0  0  0  0  0  0  0
    0.5136  -14.5366   -1.2970 N   0  0  0  0  0  0  0  0  0  0  0  0
    0.5321  -12.4333    1.3417 C   0  0  0  0  0  0  0  0  0  0  0  0
    0.5866  -12.6389    2.4695 N   0  0  0  0  0  0  0  0  0  0  0  0
    0.5115   -9.8616   -0.3152 N   0  0  0  0  0  0  0  0  0  0  0  0
    0.5751   -9.5098    1.0886 C   0  0  0  0  0  0  0  0  0  0  0  0
   -0.7577   -9.6143    1.7853 C   0  0  0  0  0  0  0  0  0  0  0  0
   -1.9423   -9.3493    1.1120 C   0  0  0  0  0  0  0  0  0  0  0  0
   -3.1551   -9.4292    1.7738 C   0  0  0  0  0  0  0  0  0  0  0  0
   -3.1929   -9.7660    3.1154 C   0  0  0  0  0  0  0  0  0  0  0  0
   -2.0128  -10.0187    3.7947 C   0  0  0  0  0  0  0  0  0  0  0  0
   -0.8005   -9.9446    3.1335 C   0  0  0  0  0  0  0  0  0  0  0  0
    0.5216   -8.8589   -1.2695 C   0  0  0  0  0  0  0  0  0  0  0  0
    0.5177   -7.6812   -0.9896 O   0  0  0  0  0  0  0  0  0  0  0  0
   -1.9597    5.3094    5.9678 H   0  0  0  0  0  0  0  0  0  0  0  0
   -6.8200    6.4286    7.1030 H   0  0  0  0  0  0  0  0  0  0  0  0
   -5.9068    9.0545    2.8703 H   0  0  0  0  0  0  0  0  0  0  0  0
   -9.0065    9.8234    4.1021 H   0  0  0  0  0  0  0  0  0  0  0  0
   -9.2930    8.1838    2.0212 H   0  0  0  0  0  0  0  0  0  0  0  0
  -11.6793    8.8852    2.8656 H   0  0  0  0  0  0  0  0  0  0  0  0
  -12.2032    7.5276    5.0883 H   0  0  0  0  0  0  0  0  0  0  0  0
  -10.1393    5.9874    5.6111 H   0  0  0  0  0  0  0  0  0  0  0  0
   -8.4066    6.1687    3.5704 H   0  0  0  0  0  0  0  0  0  0  0  0
  -10.0463    5.8296    2.9713 H   0  0  0  0  0  0  0  0  0  0  0  0
   -9.5136    8.4901    6.2805 H   0  0  0  0  0  0  0  0  0  0  0  0
   -0.8670    2.3187    7.4508 H   0  0  0  0  0  0  0  0  0  0  0  0
   -0.4035    3.1529    9.7229 H   0  0  0  0  0  0  0  0  0  0  0  0
    1.4413    7.5404   11.5943 H   0  0  0  0  0  0  0  0  0  0  0  0
    2.3455    7.2056   10.1029 H   0  0  0  0  0  0  0  0  0  0  0  0
    0.6387    7.7540   10.0222 H   0  0  0  0  0  0  0  0  0  0  0  0
    1.4036    6.6551    8.0556 H   0  0  0  0  0  0  0  0  0  0  0  0
    0.9551    5.8280    5.8183 H   0  0  0  0  0  0  0  0  0  0  0  0
    1.7901    1.9650    5.9189 H   0  0  0  0  0  0  0  0  0  0  0  0
    2.0915   -0.3854    5.3368 H   0  0  0  0  0  0  0  0  0  0  0  0
    2.2334   -3.6502    3.7296 H   0  0  0  0  0  0  0  0  0  0  0  0
    2.2121   -2.6799    5.2160 H   0  0  0  0  0  0  0  0  0  0  0  0
    2.7587   -1.9580    3.6634 H   0  0  0  0  0  0  0  0  0  0  0  0
   -1.7187   -0.3944    3.3834 H   0  0  0  0  0  0  0  0  0  0  0  0
   -2.0186    1.9809    3.9933 H   0  0  0  0  0  0  0  0  0  0  0  0
    0.0541    5.7600   -3.0647 H   0  0  0  0  0  0  0  0  0  0  0  0
    1.4237    4.9811   -4.9653 H   0  0  0  0  0  0  0  0  0  0  0  0
    5.8646    3.1940   -3.9583 H   0  0  0  0  0  0  0  0  0  0  0  0
    4.7691    1.7792   -3.8115 H   0  0  0  0  0  0  0  0  0  0  0  0
    5.6428    2.0872   -5.3264 H   0  0  0  0  0  0  0  0  0  0  0  0
    4.3567    3.5031   -2.2240 H   0  0  0  0  0  0  0  0  0  0  0  0
    3.0268    4.3178   -0.3609 H   0  0  0  0  0  0  0  0  0  0  0  0
    2.3926    7.2698   -0.9638 H   0  0  0  0  0  0  0  0  0  0  0  0
    2.0842    9.7111   -0.9199 H   0  0  0  0  0  0  0  0  0  0  0  0
   -2.3779   11.4301    0.4164 H   0  0  0  0  0  0  0  0  0  0  0  0
   -1.1786   11.1479    1.7149 H   0  0  0  0  0  0  0  0  0  0  0  0
   -1.3600   12.7659    0.9956 H   0  0  0  0  0  0  0  0  0  0  0  0
   -2.0406    9.1692    0.0467 H   0  0  0  0  0  0  0  0  0  0  0  0
   -1.7409    6.7369   -0.0397 H   0  0  0  0  0  0  0  0  0  0  0  0
   -1.4099    1.5338    0.3666 H   0  0  0  0  0  0  0  0  0  0  0  0
   -2.9226    2.5551    2.0023 H   0  0  0  0  0  0  0  0  0  0  0  0
   -5.8456    5.8640    0.3256 H   0  0  0  0  0  0  0  0  0  0  0  0
   -6.0790    6.5814    1.9346 H   0  0  0  0  0  0  0  0  0  0  0  0
   -4.6576    7.0424    0.9753 H   0  0  0  0  0  0  0  0  0  0  0  0
   -3.7852    5.7063   -0.7586 H   0  0  0  0  0  0  0  0  0  0  0  0
   -2.2322    4.7205   -2.3603 H   0  0  0  0  0  0  0  0  0  0  0  0
    0.7877    2.5064   -4.1888 H   0  0  0  0  0  0  0  0  0  0  0  0
    0.0830    1.9271   -6.4627 H   0  0  0  0  0  0  0  0  0  0  0  0
   -4.3021    0.0155   -6.8259 H   0  0  0  0  0  0  0  0  0  0  0  0
   -4.7048    1.6985   -7.3149 H   0  0  0  0  0  0  0  0  0  0  0  0
   -4.3822    0.4546   -8.5427 H   0  0  0  0  0  0  0  0  0  0  0  0
   -3.9626    1.5912   -5.1146 H   0  0  0  0  0  0  0  0  0  0  0  0
   -3.2603    2.1591   -2.8629 H   0  0  0  0  0  0  0  0  0  0  0  0
    5.2374   -3.4779   -2.4558 H   0  0  0  0  0  0  0  0  0  0  0  0
    7.4256   -2.8969   -3.2949 H   0  0  0  0  0  0  0  0  0  0  0  0
    9.7762   -2.4793   -3.0815 H   0  0  0  0  0  0  0  0  0  0  0  0
    9.1067   -2.2201   -4.7273 H   0  0  0  0  0  0  0  0  0  0  0  0
   10.6516   -1.4745   -4.2576 H   0  0  0  0  0  0  0  0  0  0  0  0
    6.8556    1.1494   -2.0450 H   0  0  0  0  0  0  0  0  0  0  0  0
    4.6355    0.5614   -1.1802 H   0  0  0  0  0  0  0  0  0  0  0  0
    5.1401   -3.5795   -0.1564 H   0  0  0  0  0  0  0  0  0  0  0  0
    4.4754   -5.4277    1.2964 H   0  0  0  0  0  0  0  0  0  0  0  0
   -0.2924   -6.2608    1.6261 H   0  0  0  0  0  0  0  0  0  0  0  0
   -0.0118   -5.2318    3.0702 H   0  0  0  0  0  0  0  0  0  0  0  0
   -0.0537   -7.0041    3.2238 H   0  0  0  0  0  0  0  0  0  0  0  0
    0.4149   -4.1055    1.1268 H   0  0  0  0  0  0  0  0  0  0  0  0
    1.0630   -2.2822   -0.3013 H   0  0  0  0  0  0  0  0  0  0  0  0
   -0.6927   -3.7544   -1.3285 H   0  0  0  0  0  0  0  0  0  0  0  0
   -1.6708   -2.7712    0.7088 H   0  0  0  0  0  0  0  0  0  0  0  0
   -4.6039    1.2152    0.1571 H   0  0  0  0  0  0  0  0  0  0  0  0
   -5.4260    0.5230    1.5691 H   0  0  0  0  0  0  0  0  0  0  0  0
   -5.4951   -0.3376    0.0129 H   0  0  0  0  0  0  0  0  0  0  0  0
   -3.7463    0.0987   -1.6780 H   0  0  0  0  0  0  0  0  0  0  0  0
   -2.7375   -0.8294   -3.6868 H   0  0  0  0  0  0  0  0  0  0  0  0
   -3.5941   -3.1211   -4.4361 H   0  0  0  0  0  0  0  0  0  0  0  0
   -4.5545   -2.8716   -6.6922 H   0  0  0  0  0  0  0  0  0  0  0  0
   -1.8138   -0.6639   -9.7627 H   0  0  0  0  0  0  0  0  0  0  0  0
   -1.4085   -2.2713  -10.4540 H   0  0  0  0  0  0  0  0  0  0  0  0
   -2.7018   -1.2906  -11.1731 H   0  0  0  0  0  0  0  0  0  0  0  0
   -0.6476   -2.1383   -8.2677 H   0  0  0  0  0  0  0  0  0  0  0  0
    0.2958   -2.3626   -6.0337 H   0  0  0  0  0  0  0  0  0  0  0  0
    3.3553   -5.8685   -5.6001 H   0  0  0  0  0  0  0  0  0  0  0  0
    5.3894   -4.8046   -6.4630 H   0  0  0  0  0  0  0  0  0  0  0  0
   10.3087   -5.2254   -5.3348 H   0  0  0  0  0  0  0  0  0  0  0  0
    9.5393   -5.2308   -3.7354 H   0  0  0  0  0  0  0  0  0  0  0  0
    9.2741   -6.5949   -4.8649 H   0  0  0  0  0  0  0  0  0  0  0  0
    7.5706   -6.2346   -3.0748 H   0  0  0  0  0  0  0  0  0  0  0  0
    5.5602   -7.2733   -2.2091 H   0  0  0  0  0  0  0  0  0  0  0  0
    3.2020   -6.9644   -0.7025 H   0  0  0  0  0  0  0  0  0  0  0  0
    3.5613   -8.7571    0.9565 H   0  0  0  0  0  0  0  0  0  0  0  0
    4.2233  -13.8271    0.6735 H   0  0  0  0  0  0  0  0  0  0  0  0
    5.0101  -13.0197   -0.7021 H   0  0  0  0  0  0  0  0  0  0  0  0
    3.2424  -13.3333   -0.7190 H   0  0  0  0  0  0  0  0  0  0  0  0
    3.8031  -11.6266   -2.2160 H   0  0  0  0  0  0  0  0  0  0  0  0
    3.5149   -9.8297   -3.8531 H   0  0  0  0  0  0  0  0  0  0  0  0
    0.1023   -9.2214   -4.6821 H   0  0  0  0  0  0  0  0  0  0  0  0
    0.9233   -8.4706    1.1123 H   0  0  0  0  0  0  0  0  0  0  0  0
    1.3194  -10.1353    1.5871 H   0  0  0  0  0  0  0  0  0  0  0  0
   -1.9237   -9.0724    0.0667 H   0  0  0  0  0  0  0  0  0  0  0  0
   -4.0709   -9.2264    1.2384 H   0  0  0  0  0  0  0  0  0  0  0  0
   -4.1398   -9.8315    3.6298 H   0  0  0  0  0  0  0  0  0  0  0  0
   -2.0356  -10.2819    4.8412 H   0  0  0  0  0  0  0  0  0  0  0  0
    0.1181  -10.1544    3.6599 H   0  0  0  0  0  0  0  0  0  0  0  0
  1  2  2  0  0  0  0
  2  3  1  0  0  0  0
  3  4  2  0  0  0  0
  3  5  1  0  0  0  0
  5  6  2  0  0  0  0
  6  7  1  0  0  0  0
  7  8  2  0  0  0  0
  8  9  1  0  0  0  0
  9 10  2  0  0  0  0
 10 11  1  0  0  0  0
 11 12  2  0  0  0  0
 12 13  1  0  0  0  0
 13 14  3  0  0  0  0
 12 15  1  0  0  0  0
 15 16  3  0  0  0  0
  8 17  1  0  0  0  0
 17 18  1  0  0  0  0
 18 19  1  0  0  0  0
 19 20  2  0  0  0  0
 20 21  1  0  0  0  0
 21 22  1  0  0  0  0
 21 23  1  0  0  0  0
  1 24  1  0  0  0  0
 24 25  2  0  0  0  0
 25 26  1  0  0  0  0
 26 27  1  0  0  0  0
 27 28  2  0  0  0  0
 28 29  1  0  0  0  0
 29 30  2  0  0  0  0
 30 31  1  0  0  0  0
 31 32  1  0  0  0  0
 30 33  1  0  0  0  0
 33 34  2  0  0  0  0
 26 35  1  0  0  0  0
 35 36  2  0  0  0  0
 36 37  1  0  0  0  0
 37 38  2  0  0  0  0
 38 39  1  0  0  0  0
 39 40  1  0  0  0  0
 38 41  1  0  0  0  0
 41 42  2  0  0  0  0
 25 43  1  0  0  0  0
 43 44  1  0  0  0  0
 44 45  1  0  0  0  0
 45 46  2  0  0  0  0
 46 47  1  0  0  0  0
 47 48  1  0  0  0  0
 48 49  2  0  0  0  0
 49 50  1  0  0  0  0
 50 51  2  0  0  0  0
 51 52  1  0  0  0  0
 52 53  1  0  0  0  0
 51 54  1  0  0  0  0
 54 55  2  0  0  0  0
 47 56  1  0  0  0  0
 56 57  2  0  0  0  0
 57 58  1  0  0  0  0
 58 59  2  0  0  0  0
 59 60  1  0  0  0  0
 60 61  1  0  0  0  0
 59 62  1  0  0  0  0
 62 63  2  0  0  0  0
 46 64  1  0  0  0  0
 64 65  1  0  0  0  0
 45 66  1  0  0  0  0
 66 67  2  0  0  0  0
 67 68  1  0  0  0  0
 68 69  1  0  0  0  0
 69 70  2  0  0  0  0
 70 71  1  0  0  0  0
 71 72  2  0  0  0  0
 72 73  1  0  0  0  0
 73 74  1  0  0  0  0
 72 75  1  0  0  0  0
 75 76  2  0  0  0  0
 68 77  1  0  0  0  0
 77 78  2  0  0  0  0
 78 79  1  0  0  0  0
 79 80  2  0  0  0  0
 80 81  1  0  0  0  0
 81 82  1  0  0  0  0
 80 83  1  0  0  0  0
 83 84  2  0  0  0  0
 67 85  1  0  0  0  0
 85 86  1  0  0  0  0
 86 87  1  0  0  0  0
 87 88  2  0  0  0  0
 88 89  1  0  0  0  0
 89 90  1  0  0  0  0
 90 91  2  0  0  0  0
 91 92  1  0  0  0  0
 92 93  2  0  0  0  0
 93 94  1  0  0  0  0
 94 95  1  0  0  0  0
 93 96  1  0  0  0  0
 96 97  2  0  0  0  0
 89 98  1  0  0  0  0
 98 99  2  0  0  0  0
 99100  1  0  0  0  0
100101  2  0  0  0  0
101102  1  0  0  0  0
102103  1  0  0  0  0
101104  1  0  0  0  0
104105  2  0  0  0  0
 88106  1  0  0  0  0
106107  1  0  0  0  0
 87108  1  0  0  0  0
108109  2  0  0  0  0
109110  1  0  0  0  0
110111  1  0  0  0  0
111112  2  0  0  0  0
112113  1  0  0  0  0
113114  2  0  0  0  0
114115  1  0  0  0  0
115116  1  0  0  0  0
114117  1  0  0  0  0
117118  2  0  0  0  0
110119  1  0  0  0  0
119120  2  0  0  0  0
120121  1  0  0  0  0
121122  2  0  0  0  0
122123  1  0  0  0  0
123124  1  0  0  0  0
122125  1  0  0  0  0
125126  2  0  0  0  0
109127  1  0  0  0  0
127128  1  0  0  0  0
128129  1  0  0  0  0
129130  2  0  0  0  0
130131  1  0  0  0  0
131132  1  0  0  0  0
132133  2  0  0  0  0
133134  1  0  0  0  0
134135  2  0  0  0  0
135136  1  0  0  0  0
136137  1  0  0  0  0
135138  1  0  0  0  0
138139  2  0  0  0  0
131140  1  0  0  0  0
140141  2  0  0  0  0
141142  1  0  0  0  0
142143  2  0  0  0  0
143144  1  0  0  0  0
144145  1  0  0  0  0
143146  1  0  0  0  0
146147  2  0  0  0  0
130148  1  0  0  0  0
148149  1  0  0  0  0
129150  1  0  0  0  0
150151  2  0  0  0  0
151152  1  0  0  0  0
152153  1  0  0  0  0
153154  2  0  0  0  0
154155  1  0  0  0  0
155156  3  0  0  0  0
154157  1  0  0  0  0
157158  3  0  0  0  0
153159  1  0  0  0  0
159160  1  0  0  0  0
160161  1  0  0  0  0
161162  2  0  0  0  0
162163  1  0  0  0  0
163164  2  0  0  0  0
164165  1  0  0  0  0
165166  2  0  0  0  0
159167  1  0  0  0  0
167168  2  0  0  0  0
 11  2  1  0  0  0  0
 23 17  1  0  0  0  0
 65 24  1  0  0  0  0
107 66  1  0  0  0  0
149108  1  0  0  0  0
167151  1  0  0  0  0
 10  5  1  0  0  0  0
 22 18  1  0  0  0  0
 34 27  1  0  0  0  0
 42 35  1  0  0  0  0
 64 43  2  0  0  0  0
 76 69  1  0  0  0  0
 84 77  1  0  0  0  0
106 85  2  0  0  0  0
118111  1  0  0  0  0
126119  1  0  0  0  0
148127  2  0  0  0  0
166161  1  0  0  0  0
 23  7  1  0  0  0  0
 55 48  1  0  0  0  0
 63 56  1  0  0  0  0
 97 90  1  0  0  0  0
105 98  1  0  0  0  0
139132  1  0  0  0  0
147140  1  0  0  0  0
  1169  1  0  0  0  0
  6170  1  0  0  0  0
  9171  1  0  0  0  0
 17172  1  0  0  0  0
 18173  1  0  0  0  0
 19174  1  0  0  0  0
 20175  1  0  0  0  0
 21176  1  0  0  0  0
 22177  1  0  0  0  0
 22178  1  0  0  0  0
 23179  1  0  0  0  0
 28180  1  0  0  0  0
 29181  1  0  0  0  0
 32182  1  0  0  0  0
 32183  1  0  0  0  0
 32184  1  0  0  0  0
 33185  1  0  0  0  0
 34186  1  0  0  0  0
 36187  1  0  0  0  0
 37188  1  0  0  0  0
 40189  1  0  0  0  0
 40190  1  0  0  0  0
 40191  1  0  0  0  0
 41192  1  0  0  0  0
 42193  1  0  0  0  0
 49194  1  0  0  0  0
 50195  1  0  0  0  0
 53196  1  0  0  0  0
 53197  1  0  0  0  0
 53198  1  0  0  0  0
 54199  1  0  0  0  0
 55200  1  0  0  0  0
 57201  1  0  0  0  0
 58202  1  0  0  0  0
 61203  1  0  0  0  0
 61204  1  0  0  0  0
 61205  1  0  0  0  0
 62206  1  0  0  0  0
 63207  1  0  0  0  0
 70208  1  0  0  0  0
 71209  1  0  0  0  0
 74210  1  0  0  0  0
 74211  1  0  0  0  0
 74212  1  0  0  0  0
 75213  1  0  0  0  0
 76214  1  0  0  0  0
 78215  1  0  0  0  0
 79216  1  0  0  0  0
 82217  1  0  0  0  0
 82218  1  0  0  0  0
 82219  1  0  0  0  0
 83220  1  0  0  0  0
 84221  1  0  0  0  0
 91222  1  0  0  0  0
 92223  1  0  0  0  0
 95224  1  0  0  0  0
 95225  1  0  0  0  0
 95226  1  0  0  0  0
 96227  1  0  0  0  0
 97228  1  0  0  0  0
 99229  1  0  0  0  0
100230  1  0  0  0  0
103231  1  0  0  0  0
103232  1  0  0  0  0
103233  1  0  0  0  0
104234  1  0  0  0  0
105235  1  0  0  0  0
112236  1  0  0  0  0
113237  1  0  0  0  0
116238  1  0  0  0  0
116239  1  0  0  0  0
116240  1  0  0  0  0
117241  1  0  0  0  0
118242  1  0  0  0  0
120243  1  0  0  0  0
121244  1  0  0  0  0
124245  1  0  0  0  0
124246  1  0  0  0  0
124247  1  0  0  0  0
125248  1  0  0  0  0
126249  1  0  0  0  0
133250  1  0  0  0  0
134251  1  0  0  0  0
137252  1  0  0  0  0
137253  1  0  0  0  0
137254  1  0  0  0  0
138255  1  0  0  0  0
139256  1  0  0  0  0
141257  1  0  0  0  0
142258  1  0  0  0  0
145259  1  0  0  0  0
145260  1  0  0  0  0
145261  1  0  0  0  0
146262  1  0  0  0  0
147263  1  0  0  0  0
150264  1  0  0  0  0
160265  1  0  0  0  0
160266  1  0  0  0  0
162267  1  0  0  0  0
163268  1  0  0  0  0
164269  1  0  0  0  0
165270  1  0  0  0  0
166271  1  0  0  0  0
M  END
