258

C          0.76120        6.73240       -5.34970
C          0.70190        7.98400       -4.78460
C         -0.02170        8.34920       -3.56350
O         -0.81320        7.66570       -2.93700
C          0.40330        9.72010       -3.22790
C         -0.00230       10.48340       -2.13680
C          0.57560       11.72940       -2.08090
C          1.48490       12.18560       -3.04370
C          1.88820       11.44410       -4.12930
C          1.31830       10.17090       -4.20070
C          1.49060        9.11840       -5.20090
C          2.27710        9.21370       -6.32390
C          2.33670        8.27230       -7.36750
N          2.43630        7.58480       -8.28460
C          3.14200       10.28700       -6.61480
N          3.89770       11.09650       -6.92100
C          1.67000       13.51480       -2.35540
C          2.96600       13.72610       -1.53430
C          3.41910       12.35770       -1.08930
C          2.56010       11.92430       -0.17640
C          1.51070       12.99160        0.01220
C          2.36020       14.25080       -0.22280
C          0.65810       13.00550       -1.28100
C          0.16490        5.53140       -4.96300
C          0.51230        4.28070       -5.53490
N          1.60480        4.03650       -6.32170
C          1.62160        2.86220       -7.10340
C          2.66310        1.95040       -6.96890
C          2.64980        0.76300       -7.67340
C          1.59480        0.47640       -8.53160
S          1.45190       -1.02390       -9.44360
C          2.69070       -2.11310       -8.68410
C          0.57770        1.41380       -8.70720
C          0.58690        2.59460       -7.99860
C          2.80140        4.77240       -6.22260
C          3.53140        5.04510       -7.37450
C          4.66350        5.83480       -7.31420
C          5.06840        6.37590       -6.10210
S          6.42290        7.49460       -5.94290
C          6.57660        8.18480       -7.61500
C          4.38480        6.03490       -4.93480
C          3.27050        5.23030       -4.98980
C         -0.37340        3.27680       -5.11020
S         -0.50820        1.57690       -5.42030
C         -1.79920        1.45130       -4.25360
C         -2.07640        2.65980       -3.62710
N         -2.95390        2.81100       -2.53900
C         -2.59160        2.19170       -1.33770
C         -3.53530        1.60600       -0.48950
C         -3.13540        0.93130        0.64210
C         -1.78680        0.81020        0.96430
S         -1.40050       -0.19790        2.36780
C          0.40620       -0.32490        2.33990
C         -0.84590        1.43810        0.15940
C         -1.24640        2.11460       -0.97720
C         -4.20810        3.38370       -2.76040
C         -4.76400        3.37600       -4.04110
C         -6.02050        3.89600       -4.26200
C         -6.75780        4.42740       -3.21010
S         -8.37280        5.04650       -3.56990
C         -9.24060        4.79030       -1.99300
C         -6.19240        4.48020       -1.94260
C         -4.92800        3.97340       -1.72230
C         -1.29580        3.70550       -4.15960
S         -1.13860        5.38180       -3.77810
C         -2.39350        0.18810       -3.98240
C         -3.51550       -0.05640       -3.24530
C         -3.67710       -1.41630       -2.89340
C         -4.55680       -1.90710       -1.90510
C         -5.62830       -1.03080       -1.42090
C         -6.36540       -0.27800       -2.33970
C         -7.29180        0.63650       -1.90010
F         -7.98050        1.35270       -2.80590
C         -7.56150        0.87990       -0.54190
O         -8.44540        1.86830       -0.28500
C         -9.02980        2.02280        1.00080
C        -10.01920        0.90960        1.31930
C         -6.83660        0.08260        0.34440
F         -7.00000        0.20650        1.68650
C         -5.90560       -0.85080       -0.07240
C         -4.20580       -3.13500       -1.36460
C         -3.19370       -3.95800       -1.92390
C         -2.47110       -3.55170       -3.06180
C         -1.48730       -4.45360       -3.66340
C         -1.82160       -5.78360       -3.89610
C         -0.91020       -6.66000       -4.45120
C          0.38900       -6.27710       -4.79970
O          1.37470       -7.02520       -5.32380
C          1.19230       -8.41880       -5.54860
C          2.51950       -8.96610       -6.04430
C          0.68770       -4.92650       -4.55310
C         -0.20430       -4.03460       -4.00650
F          1.92580       -4.48580       -4.86070
F         -1.33320       -7.93070       -4.65190
C         -2.65750       -2.23130       -3.44560
S         -1.59950       -1.29520       -4.46790
C         -2.75490       -4.96330       -1.02250
C         -3.31730       -4.85550        0.21650
S         -4.69410       -3.74570        0.19970
C         -2.65370       -5.02050        1.47240
C         -1.28970       -4.79170        1.63060
N         -0.34010       -4.84290        0.59460
C          0.09070       -6.10190        0.17200
C          0.54320       -6.32350       -1.13220
C          0.95720       -7.57460       -1.52550
C          0.90620       -8.65400       -0.64740
S          1.44870      -10.20890       -1.28720
C          1.38000      -11.31720        0.14700
C          0.43200       -8.45000        0.64000
C          0.03700       -7.18860        1.04350
C          0.04150       -3.66380       -0.05370
C         -0.85630       -2.60570       -0.20200
C         -0.52980       -1.51730       -0.98100
C          0.72450       -1.42040       -1.57350
S          1.05240        0.01710       -2.55450
C          2.30120       -0.57040       -3.73970
C          1.66360       -2.41610       -1.33810
C          1.32120       -3.52670       -0.59310
C         -0.97840       -4.42720        2.95300
S          0.48700       -3.95100        3.72840
C         -0.40110       -3.66090        5.22990
C         -1.77000       -4.02160        5.12180
N         -2.69600       -3.99690        6.13010
C         -4.04870       -3.80080        5.77790
C         -4.40260       -2.77630        4.90460
C         -5.71780       -2.61040        4.51570
C         -6.69690       -3.46810        5.00080
S         -8.39710       -3.37900        4.55140
C         -8.40220       -2.25500        3.12720
C         -6.34820       -4.46980        5.90650
C         -5.03820       -4.63740        6.29160
C         -2.39480       -4.27050        7.47470
C         -3.10880       -3.62910        8.48700
C         -2.80200       -3.86570        9.80880
C         -1.76290       -4.72670       10.14900
S         -1.39900       -4.91270       11.86530
C          0.33460       -5.45690       11.86000
C         -1.07880       -5.40220        9.14410
C         -1.40260       -5.18670        7.82060
C         -2.07510       -4.41800        3.80720
S         -3.52730       -4.89160        2.97970
C          0.14740       -3.08110        6.37300
C          1.45590       -2.81290        6.70420
C          2.63550       -3.08630        5.88220
O          2.66360       -3.42660        4.71040
C          3.80520       -2.86670        6.75080
C          5.14650       -3.02520        6.41070
C          6.01900       -2.75310        7.43740
C          5.58890       -2.35130        8.70820
C          4.26810       -2.18910        9.05590
C          3.36310       -2.46290        8.02670
C          1.90250       -2.37520        8.00540
C          1.11600       -1.95290        9.05140
C         -0.26100       -1.67140        8.96910
N         -1.37130       -1.37250        8.96880
C          1.58970       -1.72100       10.35700
N          1.90060       -1.56680       11.45210
C          6.99710       -2.24020        9.23810
C          7.57750       -0.81560        9.36110
C          9.07110       -1.03840        9.43090
C          9.47900       -1.41900        8.22700
C          8.26790       -1.45980        7.32320
C          7.45430       -0.30410        7.92000
C          7.47690       -2.68840        7.82030
H          1.39960        6.64200       -6.21890
H         -0.70970       10.09490       -1.42090
H          2.58680       11.81030       -4.86330
H          1.39780       14.39450       -2.93530
H          3.71440       14.34390       -2.02330
H          4.25780       11.83740       -1.51350
H          2.53780       10.96900        0.31470
H          0.93440       12.94110        0.93250
H          1.76810       15.15610       -0.34990
H          3.10750       14.40590        0.55410
H         -0.27360       13.55430       -1.15760
H          3.47810        2.17010       -6.29440
H          3.46160        0.06680       -7.53840
H          2.52630       -2.16470       -7.61200
H          3.69340       -1.76710       -8.91700
H          2.53010       -3.09040       -9.12830
H         -0.22260        1.19630       -9.39700
H         -0.20760        3.31460       -8.12480
H          3.19310        4.66190       -8.32450
H          5.20030        6.04640       -8.22370
H          7.06380        7.47340       -8.27590
H          5.59230        8.45750       -7.98370
H          7.19160        9.07320       -7.51210
H          4.73660        6.41780       -3.98910
H          2.73930        4.97800       -4.08430
H         -4.58700        1.66090       -0.72650
H         -3.86820        0.47240        1.28670
H          0.72940       -0.70560        1.37530
H          0.66920       -1.03360        3.11970
H          0.84970        0.64300        2.55570
H          0.20590        1.39440        0.39110
H         -0.49860        2.57930       -1.60090
H         -4.21200        2.94260       -4.86220
H         -6.45200        3.87690       -5.25070
H        -10.29950        4.86050       -2.22070
H         -9.00100        3.79990       -1.61980
H         -8.96800        5.56240       -1.27860
H         -6.72800        4.92680       -1.11980
H         -4.48770        4.04430       -0.73930
H         -4.17380        0.71800       -2.90800
H         -6.22940       -0.40650       -3.40160
H         -8.26090        2.10080        1.77460
H         -9.55180        2.98080        0.93170
H        -10.49500        1.11010        2.27460
H         -9.51570       -0.05240        1.37610
H        -10.78240        0.85870        0.54630
H         -5.36860       -1.39510        0.68630
H         -2.80710       -6.15480       -3.66260
H          0.90100       -8.92040       -4.61820
H          0.40710       -8.57730       -6.29680
H          2.42490      -10.03020       -6.23710
H          2.81470       -8.45970       -6.95920
H          3.29010       -8.80740       -5.29490
H          0.11990       -3.02640       -3.81480
H         -1.95180       -5.63780       -1.25120
H          0.56700       -5.51110       -1.84160
H          1.32910       -7.73040       -2.52570
H          1.76950      -12.26930       -0.19940
H          0.35220      -11.43830        0.47680
H          2.00800      -10.92820        0.94280
H          0.36960       -9.26170        1.34680
H         -0.31530       -7.04760        2.05410
H         -1.82190       -2.63590        0.27560
H         -1.25390       -0.73520       -1.14280
H          2.04280       -1.56830       -4.07910
H          2.26660        0.12430       -4.57430
H          3.28850       -0.55860       -3.28660
H          2.66280       -2.33750       -1.73700
H          2.05750       -4.29630       -0.42000
H         -3.64310       -2.10660        4.52750
H         -5.96390       -1.80660        3.84170
H         -9.41400       -2.29040        2.73450
H         -8.16290       -1.24490        3.44480
H         -7.69980       -2.61220        2.37960
H         -7.11760       -5.12220        6.28900
H         -4.76890       -5.42490        6.97920
H         -3.88410       -2.92470        8.23110
H         -3.34060       -3.35540       10.59090
H          0.67950       -5.34690       12.88310
H          0.40950       -6.49750       11.55740
H          0.91350       -4.81170       11.20590
H         -0.29910       -6.10770        9.38400
H         -0.86980       -5.72000        7.04680
H         -0.58340       -2.84510        7.13470
H          5.43340       -3.33670        5.41850
H          3.95480       -1.87880       10.03870
H          7.23430       -2.87150       10.09240
H          7.13530       -0.21040       10.14770
H          9.64890       -0.95290       10.33240
H         10.46560       -1.71510        7.92200
H          8.45520       -1.44080        6.25290
H          7.94410        0.65840        7.78160
H          6.43050       -0.24730        7.55510
H          8.03450       -3.61880        7.72950
