172

C         -1.84550       -8.06120        3.09710
C         -3.08180       -7.52340        3.01280
C         -3.44420       -6.14070        3.44210
O         -2.69480       -5.23620        3.74730
C         -4.91230       -6.12040        3.51320
C         -5.70950       -5.05220        3.92340
C         -7.05740       -5.31150        3.88610
C         -7.57990       -6.55100        3.48690
C         -6.80780       -7.61480        3.08750
C         -5.43120       -7.36660        3.10170
C         -4.32360       -8.23480        2.72850
C         -4.42130       -9.45890        2.12830
C         -5.63930      -10.10750        1.82980
N         -6.59290      -10.68700        1.56230
C         -3.31940      -10.22110        1.68010
N         -2.47610      -10.88170        1.26860
C         -9.00520       -6.10480        3.69020
C         -9.83170       -5.74740        2.42990
C         -8.84180       -5.31290        1.37740
C         -8.34660       -4.13960        1.74750
C         -8.99290       -3.75890        3.05680
C        -10.38520       -4.38010        2.86200
C         -8.42410       -4.72330        4.12780
C         -0.62420       -7.31150        3.32580
C          0.31450       -7.79860        4.25590
C          1.46100       -7.09010        4.53190
C          2.40550       -7.59120        5.54750
O          2.25360       -8.61320        6.17620
N          3.52370       -6.80350        5.74080
C          3.86950       -5.62150        5.11920
O          4.89840       -5.05090        5.40530
C          2.89950       -5.13500        4.12210
C          3.11210       -3.92950        3.49590
C          2.16330       -3.40970        2.58980
C          1.06760       -4.17430        2.24990
C          0.81780       -5.40890        2.87920
C         -0.35440       -6.14430        2.63520
C          1.73390       -5.88250        3.85420
C          2.30750       -2.04810        2.10930
C          2.62410       -0.93500        2.86810
N          2.82740       -0.91680        4.23800
C          2.17320       -1.84440        5.06120
C          0.85180       -2.20630        4.80420
C          0.25180       -3.23970        5.49360
C          0.96050       -3.91090        6.48260
S          0.36320       -5.33900        7.32750
C         -1.32350       -5.54940        6.69780
C          2.24080       -3.47550        6.82260
C          2.84500       -2.45790        6.12000
C          3.75100       -0.01200        4.78130
C          4.92980        0.29710        4.10220
C          5.81910        1.20350        4.63370
C          5.56030        1.81350        5.85920
S          6.77250        2.96020        6.43410
C          6.16920        3.45350        8.07350
C          4.39470        1.49790        6.54500
C          3.49830        0.59570        6.00710
C          2.63330        0.23330        2.06170
S          2.89550        1.90960        2.38040
C          2.59610        2.30150        0.68670
C          2.24970        1.18220       -0.06390
N          1.83520        1.14970       -1.38320
C          2.17360        0.01390       -2.14120
C          3.45940       -0.52160       -2.06580
C          3.78070       -1.65420       -2.77850
C          2.82990       -2.27350       -3.58840
S          3.35740       -3.72350       -4.44280
C          1.87110       -4.28380       -5.32200
C          1.55440       -1.73170       -3.68040
C          1.23020       -0.59950       -2.95870
C          1.08280        2.17240       -1.96370
C          1.22680        2.46360       -3.32270
C          0.57230        3.53960       -3.87700
C         -0.22200        4.36640       -3.08690
S         -0.90510        5.79790       -3.86510
C         -1.31560        6.87540       -2.46150
C         -0.43100        4.03920       -1.75360
C          0.20320        2.94320       -1.20410
C          2.29990        0.01160        0.73680
S          1.94390       -1.65480        0.44100
C          2.68430        3.66420        0.29420
C          2.43360        4.75630        1.10390
C          2.46480        5.96190        0.41220
S          2.05350        7.45760        1.23300
C          3.37420        8.64150        0.75050
C          4.74850        8.00770        0.73360
C          2.72680        5.81220       -0.96180
S          3.12240        4.14550       -1.31580
C          2.44050        6.79020       -1.91740
C          2.46000        6.69230       -3.28680
C          3.00140        5.56460       -4.04990
O          3.67280        4.63950       -3.62140
C          2.58230        5.77090       -5.44410
C          2.76450        4.89700       -6.51280
C          2.14640        5.29850       -7.67220
C          1.41130        6.48770       -7.76410
C          1.24790        7.37260       -6.72480
C          1.86090        6.97820       -5.53420
C          1.85790        7.61760       -4.21940
C          1.38320        8.87750       -3.94890
C          0.77570        9.72520       -4.89640
N          0.26110       10.47000       -5.60340
C          1.47300        9.51860       -2.69920
N          1.53580       10.10630       -1.71250
C          1.00210        6.21740       -9.18920
C         -0.43900        5.69820       -9.42170
C         -0.84920        4.97820       -8.16040
C         -0.14740        3.85510       -8.08990
C          0.75540        3.79960       -9.29760
C         -0.13830        4.49840      -10.33420
C          1.82980        4.89720       -9.09160
H         -1.72720       -9.13610        3.03520
H         -5.26690       -4.11720        4.22980
H         -7.22260       -8.56410        2.79240
H         -9.58200       -6.67030        4.41890
H        -10.54840       -6.50690        2.13040
H         -8.57150       -5.91110        0.52710
H         -7.57880       -3.56090        1.26820
H         -8.94690       -2.70730        3.32710
H        -10.97500       -4.41960        3.77660
H        -10.95770       -3.89070        2.07580
H         -8.62470       -4.38200        5.14140
H          0.12780       -8.71630        4.79370
H          4.17780       -7.13950        6.44190
H          4.02020       -3.38680        3.70930
H          0.34790       -3.79440        1.53910
H         -1.04550       -5.78700        1.88720
H          0.30010       -1.69560        4.02900
H         -0.75590       -3.52190        5.23640
H         -1.93780       -4.70710        7.00270
H         -1.69250       -6.46150        7.15700
H         -1.31600       -5.65370        5.61670
H          2.77090       -3.97180        7.62060
H          3.85590       -2.16580        6.35840
H          5.15000       -0.18470        3.16120
H          6.73120        1.44410        4.10980
H          5.22310        3.97900        7.98120
H          6.92440        4.12390        8.47210
H          6.07750        2.58030        8.71280
H          4.16530        1.95300        7.49480
H          2.58910        0.35970        6.54010
H          4.20190       -0.03900       -1.44810
H          4.77360       -2.07260       -2.72140
H          1.56370       -3.53830       -6.04970
H          2.16220       -5.19680       -5.83210
H          1.07780       -4.49610       -4.61140
H          0.79920       -2.18480       -4.30200
H          0.23380       -0.18770       -3.02410
H          1.89050        1.86760       -3.92900
H          0.69670        3.77740       -4.92230
H         -2.20620        6.51590       -1.95450
H         -0.47030        6.92340       -1.78060
H         -1.51030        7.85610       -2.88560
H         -1.08250        4.63180       -1.13140
H          0.03570        2.70070       -0.16540
H          2.19300        4.68200        2.14960
H          3.30180        9.40040        1.52970
H          3.11730        9.10190       -0.20230
H          5.49790        8.77840        0.56580
H          4.83210        7.27050       -0.06270
H          4.95830        7.51850        1.68290
H          2.03920        7.70300       -1.49520
H          3.32580        3.98320       -6.39240
H          0.67350        8.27970       -6.81050
H          1.30140        6.95720       -9.92870
H         -1.13300        6.44780       -9.79210
H         -1.53860        5.37470       -7.43810
H         -0.14370        3.12280       -7.30330
H          1.15250        2.82150       -9.55720
H          0.38800        4.76980      -11.24830
H         -1.02880        3.92150      -10.57960
H          2.68060        4.77870       -9.75970
