205

C         -3.15150        3.72830        4.84210
C         -2.50970        4.83280        5.31310
C         -1.32320        5.40510        4.62780
O         -0.72260        4.92730        3.68980
C         -1.11620        6.72740        5.24640
C         -0.13050        7.65670        4.92450
C         -0.15320        8.78990        5.70250
C         -1.09790        8.99570        6.71580
C         -2.08300        8.09240        7.03750
C         -2.06760        6.92610        6.26850
C         -2.91460        5.74280        6.35190
C         -3.82640        5.45170        7.33690
C         -4.51280        4.22390        7.41480
N         -5.07690        3.23220        7.54900
C         -4.08980        6.27820        8.44240
N         -4.30280        6.89210        9.39080
C         -0.52540       10.33990        7.08880
C         -1.29300       11.58290        6.59200
C         -0.27480       12.69680        6.68040
C          0.62090       12.50170        5.72110
C          0.22330       11.25280        4.96800
C         -1.30370       11.35530        5.07470
C          0.52980       10.11020        5.95950
C         -2.52090        2.77000        3.99620
C         -1.41270        1.95770        4.23600
N         -0.75230        1.79550        5.43320
C         -0.43980        0.52010        5.91270
C         -1.17690       -0.60410        5.54650
C         -0.87650       -1.84750        6.06620
C          0.14740       -1.98580        6.99050
S          0.60270       -3.52920        7.73110
C         -0.77980       -4.63130        7.32770
C          0.88330       -0.86570        7.36800
C          0.60280        0.36810        6.82890
C         -0.51920        2.88200        6.31660
C         -1.25580        3.00040        7.48780
C         -1.03800        4.06250        8.34630
C         -0.06210        5.00500        8.04750
S          0.27420        6.43120        9.02570
C         -0.85190        6.29290       10.44230
C          0.71620        4.85070        6.90040
C          0.49350        3.79650        6.04160
C         -1.13300        1.15550        3.10100
S          0.11120        0.01390        2.71650
C         -0.50540       -0.14020        1.07700
C         -1.66890        0.59960        0.88780
N         -2.45120        0.59790       -0.26380
C         -2.90410        1.82810       -0.75630
C         -4.17510        1.94600       -1.31060
C         -4.63490        3.16730       -1.76210
C         -3.83480        4.29580       -1.64880
S         -4.33390        5.91070       -2.17610
C         -6.12170        5.74370       -2.44780
C         -2.55620        4.18060       -1.10780
C         -2.09260        2.95990       -0.67250
C         -2.74390       -0.60230       -0.91380
C         -2.84290       -0.65080       -2.30690
C         -3.03790       -1.85170       -2.94970
C         -3.14720       -3.03430       -2.22130
S         -3.29000       -4.53850       -3.14110
C         -4.05510       -5.68100       -1.95360
C         -3.09320       -2.98720       -0.83490
C         -2.88940       -1.78270       -0.18970
C         -2.00190        1.34130        2.04010
S         -3.24170        2.47760        2.41740
C          0.15600       -0.83300        0.01460
C          0.81660       -2.05020       -0.06920
N          1.09170       -2.91630        0.98170
C          1.75980       -2.46280        2.12470
C          1.57950       -3.11770        3.34180
C          2.25820       -2.70820        4.46960
C          3.12050       -1.62090        4.40610
S          4.01140       -1.01840        5.80680
C          4.18540       -2.50210        6.84320
C          3.29430       -0.95340        3.19890
C          2.62850       -1.37240        2.06650
C          0.98630       -4.29150        0.72250
C         -0.08860       -4.76870       -0.03040
C         -0.18150       -6.10570       -0.34230
C          0.78520       -7.00540        0.10120
S          0.55980       -8.69270       -0.36800
C          2.04970       -9.52360        0.25010
C          1.84620       -6.53930        0.86520
C          1.94880       -5.19470        1.16400
C          1.13870       -2.35880       -1.41800
S          1.81230       -3.73960       -2.21290
C          1.55400       -2.99330       -3.79190
C          0.93210       -1.74940       -3.68830
N          0.41040       -1.01140       -4.72790
C          0.26690        0.37280       -4.54870
C         -0.91980        1.02020       -4.88110
C         -1.07430        2.37150       -4.64370
C         -0.03810        3.10310       -4.07700
S         -0.13400        4.82170       -3.70300
C         -1.63160        5.36920       -4.56640
C          1.16090        2.46320       -3.76740
C          1.31460        1.11550       -4.00130
C         -0.22940       -1.64410       -5.80730
C         -0.92490       -2.84110       -5.63180
C         -1.51830       -3.45960       -6.70730
C         -1.43460       -2.90210       -7.98390
S         -2.21900       -3.79820       -9.27960
C         -2.01540       -2.73680      -10.73710
C         -0.75690       -1.70200       -8.16010
C         -0.16280       -1.08050       -7.07910
C          0.75960       -1.39120       -2.33080
S          0.08160       -0.01800       -1.54940
C          1.97270       -3.69760       -4.94420
C          2.17960       -5.06330       -5.04970
C          2.59690       -5.49760       -6.30470
C          2.69650       -6.93400       -6.68940
C          1.76570       -7.84460       -5.89520
C          2.76640       -4.43150       -7.19860
S          2.33500       -2.90860       -6.44070
C          3.06460       -4.35720       -8.56430
C          3.80860       -5.20110       -9.35570
C          4.83800       -6.15340       -8.88710
O          5.21330       -6.35860       -7.75060
C          5.40820       -6.69760      -10.12500
S          6.62600       -7.82870      -10.52270
C          6.35450       -7.49920      -12.21050
Br         7.35860       -8.40500      -13.50750
C          5.38620       -6.56530      -12.45320
C          4.84340       -6.10150      -11.24120
C          3.84130       -5.14590      -10.80060
C          3.06650       -4.38980      -11.64540
C          2.06120       -3.48580      -11.26130
N          1.22010       -2.73240      -11.04450
C          3.21590       -4.45820      -13.04570
N          3.32200       -4.49820      -14.18790
H         -4.20970        3.58830        5.03220
H          0.58140        7.45880        4.13860
H         -2.80690        8.26290        7.81750
H         -0.17610       10.43330        8.11490
H         -2.24860       11.75380        7.08030
H         -0.27970       13.45510        7.44110
H          1.51370       13.06460        5.52080
H          0.64870       11.12280        3.97650
H         -1.83100       10.45510        4.76430
H         -1.69740       12.21350        4.53250
H          1.58090       10.05340        6.23510
H         -2.00860       -0.50890        4.86500
H         -1.46380       -2.69550        5.75240
H         -0.60040       -5.54390        7.88770
H         -0.79020       -4.84910        6.26350
H         -1.71240       -4.17620        7.64750
H          1.67800       -0.96920        8.09040
H          1.18920        1.22480        7.12180
H         -2.01950        2.27140        7.71610
H         -1.63980        4.14700        9.23730
H         -0.60960        7.13430       11.08400
H         -0.66780        5.36300       10.97180
H         -1.88560        6.36950       10.11700
H          1.49370        5.57070        6.69620
H          1.08740        3.67950        5.14850
H         -4.81070        1.07580       -1.38110
H         -5.62360        3.22510       -2.18840
H         -6.58820        5.32710       -1.56020
H         -6.48610        6.75150       -2.62050
H         -6.31660        5.12950       -3.32230
H         -1.93030        5.05640       -1.03720
H         -1.09740        2.87710       -0.26290
H         -2.73440        0.25920       -2.87710
H         -3.09330       -1.89150       -4.02690
H         -4.35400       -6.54970       -2.53190
H         -3.34060       -5.97800       -1.19110
H         -4.92730       -5.20970       -1.51100
H         -3.21000       -3.88260       -0.24440
H         -2.83280       -1.75880        0.88870
H          0.90220       -3.95720        3.39650
H          2.10850       -3.23650        5.39640
H          4.54300       -3.32430        6.23140
H          4.92480       -2.25000        7.59670
H          3.24330       -2.75340        7.32170
H          3.96690       -0.11100        3.15440
H          2.78920       -0.86480        1.12720
H         -0.83650       -4.07400       -0.38260
H         -0.99770       -6.47400       -0.94480
H          2.08290       -9.47490        1.33470
H          2.93370       -9.07530       -0.19410
H          1.96040      -10.55760       -0.06840
H          2.61330       -7.20780        1.22100
H          2.79460       -4.84030        1.73370
H         -1.73080        0.45410       -5.31520
H         -2.01380        2.83980       -4.88970
H         -2.51030        4.92510       -4.11000
H         -1.55730        5.11890       -5.62050
H         -1.66610        6.44650       -4.43950
H          1.96790        3.03970       -3.34260
H          2.24800        0.62530       -3.76750
H         -1.00430       -3.28540       -4.65130
H         -2.06150       -4.38120       -6.56710
H         -2.49340       -1.77760      -10.56060
H         -0.95950       -2.62550      -10.96660
H         -2.51830       -3.25640      -11.54700
H         -0.66410       -1.25380       -9.13500
H          0.37600       -0.15550       -7.22020
H          1.98150       -5.71780       -4.22030
H          2.47960       -7.02530       -7.75770
H          3.73390       -7.25800       -6.55140
H          0.74160       -7.48060       -5.94180
H          2.06700       -7.90480       -4.85300
H          1.79430       -8.84830       -6.31210
H          2.66100       -3.47640       -9.05220
H          5.10080       -6.24460      -13.43800
