
  xtb     02122204413D
 energy: -451.962165030746 gnorm: 0.000426366474 xtb: 6.4.1 (unknown)
265289  0     0  0            999 V2000
    5.8635    3.1766   -5.6778 C   0  0  0  0  0  0  0  0  0  0  0  0
    7.2045    2.9212   -5.7237 C   0  0  0  0  0  0  0  0  0  0  0  0
    7.8409    1.8557   -4.9193 C   0  0  0  0  0  0  0  0  0  0  0  0
    7.3324    1.1955   -4.0363 O   0  0  0  0  0  0  0  0  0  0  0  0
    9.1885    1.6809   -5.4987 C   0  0  0  0  0  0  0  0  0  0  0  0
   10.1628    0.7703   -5.0972 C   0  0  0  0  0  0  0  0  0  0  0  0
   11.3426    0.8640   -5.7979 C   0  0  0  0  0  0  0  0  0  0  0  0
   11.5402    1.7941   -6.8273 C   0  0  0  0  0  0  0  0  0  0  0  0
   10.5849    2.6926   -7.2403 C   0  0  0  0  0  0  0  0  0  0  0  0
    9.3786    2.6098   -6.5420 C   0  0  0  0  0  0  0  0  0  0  0  0
    8.1656    3.4091   -6.6785 C   0  0  0  0  0  0  0  0  0  0  0  0
    7.9987    4.5141   -7.4744 C   0  0  0  0  0  0  0  0  0  0  0  0
    6.8531    5.3329   -7.4199 C   0  0  0  0  0  0  0  0  0  0  0  0
    5.9614    6.0563   -7.3853 N   0  0  0  0  0  0  0  0  0  0  0  0
    8.9565    4.9984   -8.3852 C   0  0  0  0  0  0  0  0  0  0  0  0
    9.6902    5.4319   -9.1551 N   0  0  0  0  0  0  0  0  0  0  0  0
   12.9529    1.3320   -7.0837 C   0  0  0  0  0  0  0  0  0  0  0  0
   13.2047    0.4350   -8.3202 C   0  0  0  0  0  0  0  0  0  0  0  0
   11.9080   -0.2839   -8.5986 C   0  0  0  0  0  0  0  0  0  0  0  0
   11.7184   -1.1673   -7.6277 C   0  0  0  0  0  0  0  0  0  0  0  0
   12.8840   -1.0621   -6.6754 C   0  0  0  0  0  0  0  0  0  0  0  0
   14.0065   -0.6984   -7.6605 C   0  0  0  0  0  0  0  0  0  0  0  0
   12.7327    0.2922   -5.9393 C   0  0  0  0  0  0  0  0  0  0  0  0
    5.0164    2.8428   -4.5907 C   0  0  0  0  0  0  0  0  0  0  0  0
    5.0881    3.1738   -3.2337 C   0  0  0  0  0  0  0  0  0  0  0  0
    5.9391    4.0725   -2.6386 N   0  0  0  0  0  0  0  0  0  0  0  0
    7.2446    4.3315   -3.1382 C   0  0  0  0  0  0  0  0  0  0  0  0
    7.4672    5.4176   -3.9798 C   0  0  0  0  0  0  0  0  0  0  0  0
    8.7334    5.6599   -4.4644 C   0  0  0  0  0  0  0  0  0  0  0  0
    9.7978    4.8336   -4.1027 C   0  0  0  0  0  0  0  0  0  0  0  0
   11.3521    5.1969   -4.8475 S   0  0  0  0  0  0  0  0  0  0  0  0
   12.4921    4.0031   -4.0926 C   0  0  0  0  0  0  0  0  0  0  0  0
    9.5846    3.7887   -3.2137 C   0  0  0  0  0  0  0  0  0  0  0  0
    8.3117    3.5451   -2.7297 C   0  0  0  0  0  0  0  0  0  0  0  0
    5.4468    5.0360   -1.7413 C   0  0  0  0  0  0  0  0  0  0  0  0
    6.3182    5.6087   -0.8130 C   0  0  0  0  0  0  0  0  0  0  0  0
    5.8854    6.6077    0.0282 C   0  0  0  0  0  0  0  0  0  0  0  0
    4.5674    7.0565   -0.0258 C   0  0  0  0  0  0  0  0  0  0  0  0
    4.1354    8.3558    1.0861 S   0  0  0  0  0  0  0  0  0  0  0  0
    2.4036    8.7231    0.6778 C   0  0  0  0  0  0  0  0  0  0  0  0
    3.6930    6.4839   -0.9377 C   0  0  0  0  0  0  0  0  0  0  0  0
    4.1333    5.4939   -1.7940 C   0  0  0  0  0  0  0  0  0  0  0  0
    4.0019    2.5981   -2.5265 C   0  0  0  0  0  0  0  0  0  0  0  0
    3.5517    2.5582   -0.8511 S   0  0  0  0  0  0  0  0  0  0  0  0
    2.1603    1.5620   -1.2298 C   0  0  0  0  0  0  0  0  0  0  0  0
    2.0330    1.3379   -2.5952 C   0  0  0  0  0  0  0  0  0  0  0  0
    0.8897    0.7573   -3.1662 N   0  0  0  0  0  0  0  0  0  0  0  0
   -0.3319    1.3350   -2.7777 C   0  0  0  0  0  0  0  0  0  0  0  0
   -0.4396    2.7224   -2.7237 C   0  0  0  0  0  0  0  0  0  0  0  0
   -1.6131    3.3324   -2.3248 C   0  0  0  0  0  0  0  0  0  0  0  0
   -2.7099    2.5607   -1.9650 C   0  0  0  0  0  0  0  0  0  0  0  0
   -4.2618    3.2126   -1.4271 S   0  0  0  0  0  0  0  0  0  0  0  0
   -3.9959    5.0074   -1.3937 C   0  0  0  0  0  0  0  0  0  0  0  0
   -2.6062    1.1714   -2.0105 C   0  0  0  0  0  0  0  0  0  0  0  0
   -1.4365    0.5658   -2.4087 C   0  0  0  0  0  0  0  0  0  0  0  0
    0.9382   -0.4988   -3.7690 C   0  0  0  0  0  0  0  0  0  0  0  0
   -0.1208   -0.9398   -4.5672 C   0  0  0  0  0  0  0  0  0  0  0  0
   -0.1549   -2.2356   -5.0270 C   0  0  0  0  0  0  0  0  0  0  0  0
    0.8836   -3.1169   -4.7345 C   0  0  0  0  0  0  0  0  0  0  0  0
    0.6681   -4.7888   -5.2739 S   0  0  0  0  0  0  0  0  0  0  0  0
    2.2033   -5.6166   -4.7757 C   0  0  0  0  0  0  0  0  0  0  0  0
    1.9905   -2.6537   -4.0402 C   0  0  0  0  0  0  0  0  0  0  0  0
    2.0165   -1.3566   -3.5635 C   0  0  0  0  0  0  0  0  0  0  0  0
    3.1004    1.9047   -3.3180 C   0  0  0  0  0  0  0  0  0  0  0  0
    3.5499    1.9381   -4.9796 S   0  0  0  0  0  0  0  0  0  0  0  0
    1.2797    0.9082   -0.3021 C   0  0  0  0  0  0  0  0  0  0  0  0
    0.4286    1.3470    0.7026 C   0  0  0  0  0  0  0  0  0  0  0  0
    0.5055    2.5628    1.3520 N   0  0  0  0  0  0  0  0  0  0  0  0
    1.7565    3.0919    1.7111 C   0  0  0  0  0  0  0  0  0  0  0  0
    1.8978    4.4732    1.8451 C   0  0  0  0  0  0  0  0  0  0  0  0
    3.1067    5.0148    2.2185 C   0  0  0  0  0  0  0  0  0  0  0  0
    4.2048    4.1910    2.4496 C   0  0  0  0  0  0  0  0  0  0  0  0
    5.7267    4.9644    2.8977 S   0  0  0  0  0  0  0  0  0  0  0  0
    6.9535    3.7776    2.2726 C   0  0  0  0  0  0  0  0  0  0  0  0
    4.0609    2.8150    2.3542 C   0  0  0  0  0  0  0  0  0  0  0  0
    2.8450    2.2697    1.9900 C   0  0  0  0  0  0  0  0  0  0  0  0
   -0.6294    3.0295    2.0459 C   0  0  0  0  0  0  0  0  0  0  0  0
   -0.5495    3.3637    3.3941 C   0  0  0  0  0  0  0  0  0  0  0  0
   -1.6678    3.7960    4.0789 C   0  0  0  0  0  0  0  0  0  0  0  0
   -2.8897    3.8962    3.4258 C   0  0  0  0  0  0  0  0  0  0  0  0
   -4.3735    4.4444    4.2008 S   0  0  0  0  0  0  0  0  0  0  0  0
   -3.9167    4.6314    5.9464 C   0  0  0  0  0  0  0  0  0  0  0  0
   -2.9729    3.5655    2.0752 C   0  0  0  0  0  0  0  0  0  0  0  0
   -1.8546    3.1399    1.3915 C   0  0  0  0  0  0  0  0  0  0  0  0
   -0.5264    0.3413    1.0179 C   0  0  0  0  0  0  0  0  0  0  0  0
   -1.9892    0.2771    1.9320 S   0  0  0  0  0  0  0  0  0  0  0  0
   -2.2578   -1.4089    1.4730 C   0  0  0  0  0  0  0  0  0  0  0  0
   -1.2709   -1.8678    0.6199 C   0  0  0  0  0  0  0  0  0  0  0  0
   -1.0971   -3.1554    0.0975 N   0  0  0  0  0  0  0  0  0  0  0  0
   -1.9020   -3.6359   -0.9337 C   0  0  0  0  0  0  0  0  0  0  0  0
   -2.8150   -2.8084   -1.5875 C   0  0  0  0  0  0  0  0  0  0  0  0
   -3.5366   -3.2787   -2.6643 C   0  0  0  0  0  0  0  0  0  0  0  0
   -3.3521   -4.5787   -3.1147 C   0  0  0  0  0  0  0  0  0  0  0  0
   -4.2372   -5.1031   -4.5536 S   0  0  0  0  0  0  0  0  0  0  0  0
   -3.0403   -6.2357   -5.3273 C   0  0  0  0  0  0  0  0  0  0  0  0
   -2.4962   -5.4289   -2.4278 C   0  0  0  0  0  0  0  0  0  0  0  0
   -1.7917   -4.9659   -1.3389 C   0  0  0  0  0  0  0  0  0  0  0  0
    0.2200   -3.6291    0.2701 C   0  0  0  0  0  0  0  0  0  0  0  0
    0.7802   -3.5435    1.5421 C   0  0  0  0  0  0  0  0  0  0  0  0
    2.0897   -3.9158    1.7698 C   0  0  0  0  0  0  0  0  0  0  0  0
    2.8650   -4.3904    0.7217 C   0  0  0  0  0  0  0  0  0  0  0  0
    4.5491   -4.8922    0.8832 S   0  0  0  0  0  0  0  0  0  0  0  0
    4.9500   -4.5259    2.6156 C   0  0  0  0  0  0  0  0  0  0  0  0
    2.3079   -4.4787   -0.5530 C   0  0  0  0  0  0  0  0  0  0  0  0
    1.0056   -4.0963   -0.7838 C   0  0  0  0  0  0  0  0  0  0  0  0
   -0.3079   -0.8639    0.3783 C   0  0  0  0  0  0  0  0  0  0  0  0
    1.0642   -0.8104   -0.6485 S   0  0  0  0  0  0  0  0  0  0  0  0
   -3.4358   -2.0404    1.9588 C   0  0  0  0  0  0  0  0  0  0  0  0
   -4.0741   -1.7225    3.1551 C   0  0  0  0  0  0  0  0  0  0  0  0
   -3.5312   -0.9060    4.1404 N   0  0  0  0  0  0  0  0  0  0  0  0
   -2.2112   -1.1300    4.5428 C   0  0  0  0  0  0  0  0  0  0  0  0
   -1.6891   -2.4217    4.5333 C   0  0  0  0  0  0  0  0  0  0  0  0
   -0.3602   -2.6509    4.8286 C   0  0  0  0  0  0  0  0  0  0  0  0
    0.4751   -1.5867    5.1381 C   0  0  0  0  0  0  0  0  0  0  0  0
    2.2106   -1.7839    5.4269 S   0  0  0  0  0  0  0  0  0  0  0  0
    2.3221   -3.4832    6.0682 C   0  0  0  0  0  0  0  0  0  0  0  0
   -0.0469   -0.2966    5.1835 C   0  0  0  0  0  0  0  0  0  0  0  0
   -1.3750   -0.0685    4.8976 C   0  0  0  0  0  0  0  0  0  0  0  0
   -4.3564    0.0309    4.7775 C   0  0  0  0  0  0  0  0  0  0  0  0
   -4.2061    0.3028    6.1368 C   0  0  0  0  0  0  0  0  0  0  0  0
   -5.0281    1.2190    6.7537 C   0  0  0  0  0  0  0  0  0  0  0  0
   -6.0265    1.8751    6.0353 C   0  0  0  0  0  0  0  0  0  0  0  0
   -7.0044    3.0384    6.9317 S   0  0  0  0  0  0  0  0  0  0  0  0
   -7.8636    3.9808    5.6423 C   0  0  0  0  0  0  0  0  0  0  0  0
   -6.1928    1.5914    4.6866 C   0  0  0  0  0  0  0  0  0  0  0  0
   -5.3584    0.6840    4.0638 C   0  0  0  0  0  0  0  0  0  0  0  0
   -5.3141   -2.3777    3.2566 C   0  0  0  0  0  0  0  0  0  0  0  0
   -6.5936   -2.2905    4.4051 S   0  0  0  0  0  0  0  0  0  0  0  0
   -7.5686   -3.3846    3.4173 C   0  0  0  0  0  0  0  0  0  0  0  0
   -6.8915   -3.8013    2.2523 C   0  0  0  0  0  0  0  0  0  0  0  0
   -7.4630   -4.5529    1.2676 N   0  0  0  0  0  0  0  0  0  0  0  0
   -6.7211   -5.3147    0.3566 C   0  0  0  0  0  0  0  0  0  0  0  0
   -5.5686   -6.0007    0.7412 C   0  0  0  0  0  0  0  0  0  0  0  0
   -4.9303   -6.8325   -0.1521 C   0  0  0  0  0  0  0  0  0  0  0  0
   -5.4318   -7.0081   -1.4401 C   0  0  0  0  0  0  0  0  0  0  0  0
   -4.6109   -8.1817   -2.4650 S   0  0  0  0  0  0  0  0  0  0  0  0
   -5.7292   -8.3741   -3.8822 C   0  0  0  0  0  0  0  0  0  0  0  0
   -6.5529   -6.2923   -1.8404 C   0  0  0  0  0  0  0  0  0  0  0  0
   -7.1897   -5.4565   -0.9478 C   0  0  0  0  0  0  0  0  0  0  0  0
   -8.8778   -4.5822    1.1526 C   0  0  0  0  0  0  0  0  0  0  0  0
   -9.5611   -5.7894    1.2489 C   0  0  0  0  0  0  0  0  0  0  0  0
  -10.9395   -5.7960    1.3279 C   0  0  0  0  0  0  0  0  0  0  0  0
  -11.6430   -4.5975    1.2977 C   0  0  0  0  0  0  0  0  0  0  0  0
  -13.3913   -4.5267    1.5289 S   0  0  0  0  0  0  0  0  0  0  0  0
  -13.6438   -5.8365    2.7651 C   0  0  0  0  0  0  0  0  0  0  0  0
  -10.9619   -3.4026    1.0846 C   0  0  0  0  0  0  0  0  0  0  0  0
   -9.5857   -3.3920    1.0115 C   0  0  0  0  0  0  0  0  0  0  0  0
   -5.6088   -3.2150    2.1872 C   0  0  0  0  0  0  0  0  0  0  0  0
   -4.3250   -3.2258    1.0209 S   0  0  0  0  0  0  0  0  0  0  0  0
   -8.8454   -3.7649    3.8483 C   0  0  0  0  0  0  0  0  0  0  0  0
   -9.6723   -3.0984    4.7135 C   0  0  0  0  0  0  0  0  0  0  0  0
  -10.8414   -3.7786    5.2916 C   0  0  0  0  0  0  0  0  0  0  0  0
  -11.2885   -4.8590    4.9676 O   0  0  0  0  0  0  0  0  0  0  0  0
  -11.3306   -2.8730    6.3621 C   0  0  0  0  0  0  0  0  0  0  0  0
  -12.3087   -3.0842    7.3163 C   0  0  0  0  0  0  0  0  0  0  0  0
  -13.2865   -4.4831    7.2909 Cl  0  0  0  0  0  0  0  0  0  0  0  0
  -12.4780   -2.1195    8.3206 C   0  0  0  0  0  0  0  0  0  0  0  0
  -13.6909   -2.3318    9.5086 Cl  0  0  0  0  0  0  0  0  0  0  0  0
  -11.6379   -1.0090    8.3779 C   0  0  0  0  0  0  0  0  0  0  0  0
  -11.8018    0.1046    9.6656 Cl  0  0  0  0  0  0  0  0  0  0  0  0
  -10.6518   -0.7933    7.4015 C   0  0  0  0  0  0  0  0  0  0  0  0
   -9.5451    0.5032    7.6017 Cl  0  0  0  0  0  0  0  0  0  0  0  0
  -10.5461   -1.7018    6.3603 C   0  0  0  0  0  0  0  0  0  0  0  0
   -9.6820   -1.7332    5.1804 C   0  0  0  0  0  0  0  0  0  0  0  0
   -9.3010   -0.6323    4.4546 C   0  0  0  0  0  0  0  0  0  0  0  0
   -8.6928   -0.6904    3.1838 C   0  0  0  0  0  0  0  0  0  0  0  0
   -8.2535   -0.6506    2.1227 N   0  0  0  0  0  0  0  0  0  0  0  0
   -9.6796    0.6952    4.7284 C   0  0  0  0  0  0  0  0  0  0  0  0
  -10.0074    1.7944    4.7953 N   0  0  0  0  0  0  0  0  0  0  0  0
    5.3695    3.5707   -6.5596 H   0  0  0  0  0  0  0  0  0  0  0  0
    9.9744    0.0751   -4.2936 H   0  0  0  0  0  0  0  0  0  0  0  0
   10.7477    3.4042   -8.0322 H   0  0  0  0  0  0  0  0  0  0  0  0
   13.7310    2.0812   -6.9502 H   0  0  0  0  0  0  0  0  0  0  0  0
   13.6606    0.9470   -9.1632 H   0  0  0  0  0  0  0  0  0  0  0  0
   11.2539   -0.0435   -9.4160 H   0  0  0  0  0  0  0  0  0  0  0  0
   10.8737   -1.8124   -7.4714 H   0  0  0  0  0  0  0  0  0  0  0  0
   13.0486   -1.9150   -6.0218 H   0  0  0  0  0  0  0  0  0  0  0  0
   14.9191   -0.3578   -7.1728 H   0  0  0  0  0  0  0  0  0  0  0  0
   14.2389   -1.5074   -8.3512 H   0  0  0  0  0  0  0  0  0  0  0  0
   13.3727    0.3575   -5.0604 H   0  0  0  0  0  0  0  0  0  0  0  0
    6.6424    6.0514   -4.2692 H   0  0  0  0  0  0  0  0  0  0  0  0
    8.9140    6.4859   -5.1357 H   0  0  0  0  0  0  0  0  0  0  0  0
   12.5241    4.1502   -3.0172 H   0  0  0  0  0  0  0  0  0  0  0  0
   12.1926    2.9910   -4.3496 H   0  0  0  0  0  0  0  0  0  0  0  0
   13.4646    4.2218   -4.5223 H   0  0  0  0  0  0  0  0  0  0  0  0
   10.3955    3.1552   -2.8932 H   0  0  0  0  0  0  0  0  0  0  0  0
    8.1378    2.7233   -2.0518 H   0  0  0  0  0  0  0  0  0  0  0  0
    7.3438    5.2750   -0.7674 H   0  0  0  0  0  0  0  0  0  0  0  0
    6.5623    7.0547    0.7391 H   0  0  0  0  0  0  0  0  0  0  0  0
    1.7816    7.8524    0.8649 H   0  0  0  0  0  0  0  0  0  0  0  0
    2.1137    9.5320    1.3413 H   0  0  0  0  0  0  0  0  0  0  0  0
    2.3275    9.0493   -0.3552 H   0  0  0  0  0  0  0  0  0  0  0  0
    2.6690    6.8115   -1.0122 H   0  0  0  0  0  0  0  0  0  0  0  0
    3.4498    5.0969   -2.5293 H   0  0  0  0  0  0  0  0  0  0  0  0
    0.4064    3.3329   -3.0029 H   0  0  0  0  0  0  0  0  0  0  0  0
   -1.6579    4.4094   -2.3021 H   0  0  0  0  0  0  0  0  0  0  0  0
   -4.9277    5.4317   -1.0325 H   0  0  0  0  0  0  0  0  0  0  0  0
   -3.7901    5.3732   -2.3955 H   0  0  0  0  0  0  0  0  0  0  0  0
   -3.1903    5.2505   -0.7064 H   0  0  0  0  0  0  0  0  0  0  0  0
   -3.4596    0.5772   -1.7199 H   0  0  0  0  0  0  0  0  0  0  0  0
   -1.3694   -0.5111   -2.4290 H   0  0  0  0  0  0  0  0  0  0  0  0
   -0.9280   -0.2658   -4.8089 H   0  0  0  0  0  0  0  0  0  0  0  0
   -0.9933   -2.5826   -5.6115 H   0  0  0  0  0  0  0  0  0  0  0  0
    3.0525   -5.1431   -5.2597 H   0  0  0  0  0  0  0  0  0  0  0  0
    2.3009   -5.5965   -3.6940 H   0  0  0  0  0  0  0  0  0  0  0  0
    2.1082   -6.6424   -5.1180 H   0  0  0  0  0  0  0  0  0  0  0  0
    2.8344   -3.2930   -3.8374 H   0  0  0  0  0  0  0  0  0  0  0  0
    2.8724   -1.0216   -2.9968 H   0  0  0  0  0  0  0  0  0  0  0  0
    1.0457    5.1101    1.6575 H   0  0  0  0  0  0  0  0  0  0  0  0
    3.2222    6.0799    2.3382 H   0  0  0  0  0  0  0  0  0  0  0  0
    6.6536    3.4532    1.2807 H   0  0  0  0  0  0  0  0  0  0  0  0
    7.8937    4.3177    2.2234 H   0  0  0  0  0  0  0  0  0  0  0  0
    7.0513    2.9353    2.9512 H   0  0  0  0  0  0  0  0  0  0  0  0
    4.8850    2.1553    2.5729 H   0  0  0  0  0  0  0  0  0  0  0  0
    2.7363    1.1965    1.9397 H   0  0  0  0  0  0  0  0  0  0  0  0
    0.3945    3.2770    3.9118 H   0  0  0  0  0  0  0  0  0  0  0  0
   -1.5723    4.0426    5.1241 H   0  0  0  0  0  0  0  0  0  0  0  0
   -4.8291    4.9109    6.4639 H   0  0  0  0  0  0  0  0  0  0  0  0
   -3.5583    3.6816    6.3333 H   0  0  0  0  0  0  0  0  0  0  0  0
   -3.1751    5.4172    6.0567 H   0  0  0  0  0  0  0  0  0  0  0  0
   -3.9240    3.6387    1.5710 H   0  0  0  0  0  0  0  0  0  0  0  0
   -1.9174    2.8797    0.3466 H   0  0  0  0  0  0  0  0  0  0  0  0
   -2.9401   -1.7871   -1.2625 H   0  0  0  0  0  0  0  0  0  0  0  0
   -4.2276   -2.6300   -3.1801 H   0  0  0  0  0  0  0  0  0  0  0  0
   -3.3748   -6.3749   -6.3505 H   0  0  0  0  0  0  0  0  0  0  0  0
   -2.0571   -5.7750   -5.3143 H   0  0  0  0  0  0  0  0  0  0  0  0
   -3.0303   -7.1899   -4.8085 H   0  0  0  0  0  0  0  0  0  0  0  0
   -2.3761   -6.4552   -2.7331 H   0  0  0  0  0  0  0  0  0  0  0  0
   -1.1372   -5.6362   -0.8027 H   0  0  0  0  0  0  0  0  0  0  0  0
    0.1826   -3.1611    2.3569 H   0  0  0  0  0  0  0  0  0  0  0  0
    2.4939   -3.8181    2.7640 H   0  0  0  0  0  0  0  0  0  0  0  0
    4.3623   -5.1575    3.2758 H   0  0  0  0  0  0  0  0  0  0  0  0
    6.0039   -4.7615    2.7267 H   0  0  0  0  0  0  0  0  0  0  0  0
    4.7828   -3.4727    2.8215 H   0  0  0  0  0  0  0  0  0  0  0  0
    2.9266   -4.8321   -1.3639 H   0  0  0  0  0  0  0  0  0  0  0  0
    0.6000   -4.1281   -1.7835 H   0  0  0  0  0  0  0  0  0  0  0  0
   -2.3285   -3.2552    4.2815 H   0  0  0  0  0  0  0  0  0  0  0  0
    0.0126   -3.6632    4.8119 H   0  0  0  0  0  0  0  0  0  0  0  0
    3.3191   -3.5780    6.4870 H   0  0  0  0  0  0  0  0  0  0  0  0
    1.5769   -3.6232    6.8448 H   0  0  0  0  0  0  0  0  0  0  0  0
    2.1899   -4.2075    5.2691 H   0  0  0  0  0  0  0  0  0  0  0  0
    0.6056    0.5270    5.4297 H   0  0  0  0  0  0  0  0  0  0  0  0
   -1.7698    0.9360    4.9148 H   0  0  0  0  0  0  0  0  0  0  0  0
   -3.4438   -0.2093    6.7051 H   0  0  0  0  0  0  0  0  0  0  0  0
   -4.9129    1.4337    7.8056 H   0  0  0  0  0  0  0  0  0  0  0  0
   -8.3030    4.8339    6.1504 H   0  0  0  0  0  0  0  0  0  0  0  0
   -8.6491    3.3721    5.2004 H   0  0  0  0  0  0  0  0  0  0  0  0
   -7.1453    4.3143    4.8990 H   0  0  0  0  0  0  0  0  0  0  0  0
   -6.9622    2.0763    4.1079 H   0  0  0  0  0  0  0  0  0  0  0  0
   -5.4850    0.4844    3.0100 H   0  0  0  0  0  0  0  0  0  0  0  0
   -5.2015   -5.9150    1.7526 H   0  0  0  0  0  0  0  0  0  0  0  0
   -4.0509   -7.3805    0.1491 H   0  0  0  0  0  0  0  0  0  0  0  0
   -5.7618   -7.4530   -4.4576 H   0  0  0  0  0  0  0  0  0  0  0  0
   -5.3069   -9.1732   -4.4839 H   0  0  0  0  0  0  0  0  0  0  0  0
   -6.7163   -8.6587   -3.5304 H   0  0  0  0  0  0  0  0  0  0  0  0
   -6.9382   -6.3735   -2.8429 H   0  0  0  0  0  0  0  0  0  0  0  0
   -8.0676   -4.9107   -1.2587 H   0  0  0  0  0  0  0  0  0  0  0  0
   -9.0065   -6.7147    1.3068 H   0  0  0  0  0  0  0  0  0  0  0  0
  -11.4599   -6.7336    1.4381 H   0  0  0  0  0  0  0  0  0  0  0  0
  -14.6268   -5.6580    3.1893 H   0  0  0  0  0  0  0  0  0  0  0  0
  -13.6209   -6.8157    2.2962 H   0  0  0  0  0  0  0  0  0  0  0  0
  -12.8810   -5.7442    3.5334 H   0  0  0  0  0  0  0  0  0  0  0  0
  -11.5194   -2.4823    1.0057 H   0  0  0  0  0  0  0  0  0  0  0  0
   -9.0514   -2.4613    0.8962 H   0  0  0  0  0  0  0  0  0  0  0  0
   -9.2150   -4.7316    3.5303 H   0  0  0  0  0  0  0  0  0  0  0  0
  1  2  2  0  0  0  0
  2  3  1  0  0  0  0
  3  4  2  0  0  0  0
  3  5  1  0  0  0  0
  5  6  2  0  0  0  0
  6  7  1  0  0  0  0
  7  8  2  0  0  0  0
  8  9  1  0  0  0  0
  9 10  2  0  0  0  0
 10 11  1  0  0  0  0
 11 12  2  0  0  0  0
 12 13  1  0  0  0  0
 13 14  3  0  0  0  0
 12 15  1  0  0  0  0
 15 16  3  0  0  0  0
  8 17  1  0  0  0  0
 17 18  1  0  0  0  0
 18 19  1  0  0  0  0
 19 20  2  0  0  0  0
 20 21  1  0  0  0  0
 21 22  1  0  0  0  0
 21 23  1  0  0  0  0
  1 24  1  0  0  0  0
 24 25  2  0  0  0  0
 25 26  1  0  0  0  0
 26 27  1  0  0  0  0
 27 28  2  0  0  0  0
 28 29  1  0  0  0  0
 29 30  2  0  0  0  0
 30 31  1  0  0  0  0
 31 32  1  0  0  0  0
 30 33  1  0  0  0  0
 33 34  2  0  0  0  0
 26 35  1  0  0  0  0
 35 36  2  0  0  0  0
 36 37  1  0  0  0  0
 37 38  2  0  0  0  0
 38 39  1  0  0  0  0
 39 40  1  0  0  0  0
 38 41  1  0  0  0  0
 41 42  2  0  0  0  0
 25 43  1  0  0  0  0
 43 44  1  0  0  0  0
 44 45  1  0  0  0  0
 45 46  2  0  0  0  0
 46 47  1  0  0  0  0
 47 48  1  0  0  0  0
 48 49  2  0  0  0  0
 49 50  1  0  0  0  0
 50 51  2  0  0  0  0
 51 52  1  0  0  0  0
 52 53  1  0  0  0  0
 51 54  1  0  0  0  0
 54 55  2  0  0  0  0
 47 56  1  0  0  0  0
 56 57  2  0  0  0  0
 57 58  1  0  0  0  0
 58 59  2  0  0  0  0
 59 60  1  0  0  0  0
 60 61  1  0  0  0  0
 59 62  1  0  0  0  0
 62 63  2  0  0  0  0
 46 64  1  0  0  0  0
 64 65  1  0  0  0  0
 45 66  1  0  0  0  0
 66 67  2  0  0  0  0
 67 68  1  0  0  0  0
 68 69  1  0  0  0  0
 69 70  2  0  0  0  0
 70 71  1  0  0  0  0
 71 72  2  0  0  0  0
 72 73  1  0  0  0  0
 73 74  1  0  0  0  0
 72 75  1  0  0  0  0
 75 76  2  0  0  0  0
 68 77  1  0  0  0  0
 77 78  2  0  0  0  0
 78 79  1  0  0  0  0
 79 80  2  0  0  0  0
 80 81  1  0  0  0  0
 81 82  1  0  0  0  0
 80 83  1  0  0  0  0
 83 84  2  0  0  0  0
 67 85  1  0  0  0  0
 85 86  1  0  0  0  0
 86 87  1  0  0  0  0
 87 88  2  0  0  0  0
 88 89  1  0  0  0  0
 89 90  1  0  0  0  0
 90 91  2  0  0  0  0
 91 92  1  0  0  0  0
 92 93  2  0  0  0  0
 93 94  1  0  0  0  0
 94 95  1  0  0  0  0
 93 96  1  0  0  0  0
 96 97  2  0  0  0  0
 89 98  1  0  0  0  0
 98 99  2  0  0  0  0
 99100  1  0  0  0  0
100101  2  0  0  0  0
101102  1  0  0  0  0
102103  1  0  0  0  0
101104  1  0  0  0  0
104105  2  0  0  0  0
 88106  1  0  0  0  0
106107  1  0  0  0  0
 87108  1  0  0  0  0
108109  2  0  0  0  0
109110  1  0  0  0  0
110111  1  0  0  0  0
111112  2  0  0  0  0
112113  1  0  0  0  0
113114  2  0  0  0  0
114115  1  0  0  0  0
115116  1  0  0  0  0
114117  1  0  0  0  0
117118  2  0  0  0  0
110119  1  0  0  0  0
119120  2  0  0  0  0
120121  1  0  0  0  0
121122  2  0  0  0  0
122123  1  0  0  0  0
123124  1  0  0  0  0
122125  1  0  0  0  0
125126  2  0  0  0  0
109127  1  0  0  0  0
127128  1  0  0  0  0
128129  1  0  0  0  0
129130  2  0  0  0  0
130131  1  0  0  0  0
131132  1  0  0  0  0
132133  2  0  0  0  0
133134  1  0  0  0  0
134135  2  0  0  0  0
135136  1  0  0  0  0
136137  1  0  0  0  0
135138  1  0  0  0  0
138139  2  0  0  0  0
131140  1  0  0  0  0
140141  2  0  0  0  0
141142  1  0  0  0  0
142143  2  0  0  0  0
143144  1  0  0  0  0
144145  1  0  0  0  0
143146  1  0  0  0  0
146147  2  0  0  0  0
130148  1  0  0  0  0
148149  1  0  0  0  0
129150  1  0  0  0  0
150151  2  0  0  0  0
151152  1  0  0  0  0
152153  2  0  0  0  0
152154  1  0  0  0  0
154155  2  0  0  0  0
155156  1  0  0  0  0
155157  1  0  0  0  0
157158  1  0  0  0  0
157159  2  0  0  0  0
159160  1  0  0  0  0
159161  1  0  0  0  0
161162  1  0  0  0  0
161163  2  0  0  0  0
163164  1  0  0  0  0
164165  2  0  0  0  0
165166  1  0  0  0  0
166167  3  0  0  0  0
165168  1  0  0  0  0
168169  3  0  0  0  0
 11  2  1  0  0  0  0
 23 17  1  0  0  0  0
 65 24  1  0  0  0  0
107 66  1  0  0  0  0
149108  1  0  0  0  0
164151  1  0  0  0  0
 10  5  1  0  0  0  0
 22 18  1  0  0  0  0
 34 27  1  0  0  0  0
 42 35  1  0  0  0  0
 64 43  2  0  0  0  0
 76 69  1  0  0  0  0
 84 77  1  0  0  0  0
106 85  2  0  0  0  0
118111  1  0  0  0  0
126119  1  0  0  0  0
148127  2  0  0  0  0
163154  1  0  0  0  0
 23  7  1  0  0  0  0
 55 48  1  0  0  0  0
 63 56  1  0  0  0  0
 97 90  1  0  0  0  0
105 98  1  0  0  0  0
139132  1  0  0  0  0
147140  1  0  0  0  0
  1170  1  0  0  0  0
  6171  1  0  0  0  0
  9172  1  0  0  0  0
 17173  1  0  0  0  0
 18174  1  0  0  0  0
 19175  1  0  0  0  0
 20176  1  0  0  0  0
 21177  1  0  0  0  0
 22178  1  0  0  0  0
 22179  1  0  0  0  0
 23180  1  0  0  0  0
 28181  1  0  0  0  0
 29182  1  0  0  0  0
 32183  1  0  0  0  0
 32184  1  0  0  0  0
 32185  1  0  0  0  0
 33186  1  0  0  0  0
 34187  1  0  0  0  0
 36188  1  0  0  0  0
 37189  1  0  0  0  0
 40190  1  0  0  0  0
 40191  1  0  0  0  0
 40192  1  0  0  0  0
 41193  1  0  0  0  0
 42194  1  0  0  0  0
 49195  1  0  0  0  0
 50196  1  0  0  0  0
 53197  1  0  0  0  0
 53198  1  0  0  0  0
 53199  1  0  0  0  0
 54200  1  0  0  0  0
 55201  1  0  0  0  0
 57202  1  0  0  0  0
 58203  1  0  0  0  0
 61204  1  0  0  0  0
 61205  1  0  0  0  0
 61206  1  0  0  0  0
 62207  1  0  0  0  0
 63208  1  0  0  0  0
 70209  1  0  0  0  0
 71210  1  0  0  0  0
 74211  1  0  0  0  0
 74212  1  0  0  0  0
 74213  1  0  0  0  0
 75214  1  0  0  0  0
 76215  1  0  0  0  0
 78216  1  0  0  0  0
 79217  1  0  0  0  0
 82218  1  0  0  0  0
 82219  1  0  0  0  0
 82220  1  0  0  0  0
 83221  1  0  0  0  0
 84222  1  0  0  0  0
 91223  1  0  0  0  0
 92224  1  0  0  0  0
 95225  1  0  0  0  0
 95226  1  0  0  0  0
 95227  1  0  0  0  0
 96228  1  0  0  0  0
 97229  1  0  0  0  0
 99230  1  0  0  0  0
100231  1  0  0  0  0
103232  1  0  0  0  0
103233  1  0  0  0  0
103234  1  0  0  0  0
104235  1  0  0  0  0
105236  1  0  0  0  0
112237  1  0  0  0  0
113238  1  0  0  0  0
116239  1  0  0  0  0
116240  1  0  0  0  0
116241  1  0  0  0  0
117242  1  0  0  0  0
118243  1  0  0  0  0
120244  1  0  0  0  0
121245  1  0  0  0  0
124246  1  0  0  0  0
124247  1  0  0  0  0
124248  1  0  0  0  0
125249  1  0  0  0  0
126250  1  0  0  0  0
133251  1  0  0  0  0
134252  1  0  0  0  0
137253  1  0  0  0  0
137254  1  0  0  0  0
137255  1  0  0  0  0
138256  1  0  0  0  0
139257  1  0  0  0  0
141258  1  0  0  0  0
142259  1  0  0  0  0
145260  1  0  0  0  0
145261  1  0  0  0  0
145262  1  0  0  0  0
146263  1  0  0  0  0
147264  1  0  0  0  0
150265  1  0  0  0  0
M  END
