
  xtb     02052215503D
 energy: -384.009296325901 gnorm: 0.000543674685 xtb: 6.4.1 (unknown)
236260  0     0  0            999 V2000
   -7.4499   -3.9921   -4.5380 C   0  0  0  0  0  0  0  0  0  0  0  0
   -8.4644   -4.4695   -3.7791 C   0  0  0  0  0  0  0  0  0  0  0  0
   -9.2291   -5.6809   -4.1859 C   0  0  0  0  0  0  0  0  0  0  0  0
   -9.2413   -6.1991   -5.2791 O   0  0  0  0  0  0  0  0  0  0  0  0
   -9.9123   -6.1330   -2.9569 C   0  0  0  0  0  0  0  0  0  0  0  0
  -10.6365   -7.3102   -2.7767 C   0  0  0  0  0  0  0  0  0  0  0  0
  -11.1313   -7.4746   -1.5050 C   0  0  0  0  0  0  0  0  0  0  0  0
  -10.9268   -6.5393   -0.4808 C   0  0  0  0  0  0  0  0  0  0  0  0
  -10.2264   -5.3684   -0.6444 C   0  0  0  0  0  0  0  0  0  0  0  0
   -9.7135   -5.1840   -1.9310 C   0  0  0  0  0  0  0  0  0  0  0  0
   -8.9491   -4.0700   -2.4745 C   0  0  0  0  0  0  0  0  0  0  0  0
   -8.8857   -2.7972   -1.9723 C   0  0  0  0  0  0  0  0  0  0  0  0
   -9.4285   -2.4031   -0.7337 C   0  0  0  0  0  0  0  0  0  0  0  0
   -9.8508   -2.0459    0.2720 N   0  0  0  0  0  0  0  0  0  0  0  0
   -8.3750   -1.7297   -2.7345 C   0  0  0  0  0  0  0  0  0  0  0  0
   -8.0501   -0.8326   -3.3739 N   0  0  0  0  0  0  0  0  0  0  0  0
  -11.6856   -7.3610    0.5310 C   0  0  0  0  0  0  0  0  0  0  0  0
  -10.8389   -8.1521    1.5506 C   0  0  0  0  0  0  0  0  0  0  0  0
  -11.7910   -9.2033    2.0734 C   0  0  0  0  0  0  0  0  0  0  0  0
  -11.9867  -10.0882    1.1041 C   0  0  0  0  0  0  0  0  0  0  0  0
  -11.1696   -9.6500   -0.0899 C   0  0  0  0  0  0  0  0  0  0  0  0
   -9.9705   -9.0178    0.6285 C   0  0  0  0  0  0  0  0  0  0  0  0
  -11.9156   -8.4028   -0.6104 C   0  0  0  0  0  0  0  0  0  0  0  0
   -6.3533   -3.1497   -4.1394 C   0  0  0  0  0  0  0  0  0  0  0  0
   -5.8183   -2.2052   -5.0373 C   0  0  0  0  0  0  0  0  0  0  0  0
   -6.3237   -1.8400   -6.3159 C   0  0  0  0  0  0  0  0  0  0  0  0
   -5.5900   -0.8899   -6.9398 C   0  0  0  0  0  0  0  0  0  0  0  0
   -5.8123   -0.2834   -8.2809 C   0  0  0  0  0  0  0  0  0  0  0  0
   -4.7095   -0.6826   -9.2628 C   0  0  0  0  0  0  0  0  0  0  0  0
   -4.2199   -0.3856   -5.9850 S   0  0  0  0  0  0  0  0  0  0  0  0
   -4.6639   -1.4700   -4.7013 C   0  0  0  0  0  0  0  0  0  0  0  0
   -3.9532   -1.6700   -3.5194 C   0  0  0  0  0  0  0  0  0  0  0  0
   -4.4945   -2.5958   -2.6087 C   0  0  0  0  0  0  0  0  0  0  0  0
   -5.6860   -3.2874   -2.9182 C   0  0  0  0  0  0  0  0  0  0  0  0
   -6.0975   -4.4034   -1.6452 S   0  0  0  0  0  0  0  0  0  0  0  0
   -4.7079   -3.9189   -0.7031 C   0  0  0  0  0  0  0  0  0  0  0  0
   -4.4342   -4.5790    0.6013 C   0  0  0  0  0  0  0  0  0  0  0  0
   -3.9164   -6.0029    0.3920 C   0  0  0  0  0  0  0  0  0  0  0  0
   -3.9838   -2.9684   -1.3296 C   0  0  0  0  0  0  0  0  0  0  0  0
   -2.6972   -1.0011   -3.2644 C   0  0  0  0  0  0  0  0  0  0  0  0
   -2.4014    0.3408   -3.4136 C   0  0  0  0  0  0  0  0  0  0  0  0
   -3.3325    1.3243   -3.7202 N   0  0  0  0  0  0  0  0  0  0  0  0
   -2.9161    2.4217   -4.4759 C   0  0  0  0  0  0  0  0  0  0  0  0
   -3.4605    3.6929   -4.2908 C   0  0  0  0  0  0  0  0  0  0  0  0
   -2.9945    4.7591   -5.0262 C   0  0  0  0  0  0  0  0  0  0  0  0
   -1.9599    4.5961   -5.9432 C   0  0  0  0  0  0  0  0  0  0  0  0
   -1.4023    6.0494   -6.7819 S   0  0  0  0  0  0  0  0  0  0  0  0
    0.1897    5.5415   -7.4932 C   0  0  0  0  0  0  0  0  0  0  0  0
   -1.4361    3.3297   -6.1555 C   0  0  0  0  0  0  0  0  0  0  0  0
   -1.9191    2.2547   -5.4365 C   0  0  0  0  0  0  0  0  0  0  0  0
   -4.5575    1.3134   -3.0316 C   0  0  0  0  0  0  0  0  0  0  0  0
   -4.6198    0.8470   -1.7189 C   0  0  0  0  0  0  0  0  0  0  0  0
   -5.8152    0.8414   -1.0373 C   0  0  0  0  0  0  0  0  0  0  0  0
   -6.9725    1.3272   -1.6392 C   0  0  0  0  0  0  0  0  0  0  0  0
   -8.4284    1.3261   -0.6431 S   0  0  0  0  0  0  0  0  0  0  0  0
   -9.7588    1.6694   -1.8262 C   0  0  0  0  0  0  0  0  0  0  0  0
   -6.9166    1.7924   -2.9456 C   0  0  0  0  0  0  0  0  0  0  0  0
   -5.7231    1.7675   -3.6388 C   0  0  0  0  0  0  0  0  0  0  0  0
   -1.0675    0.6161   -3.0294 C   0  0  0  0  0  0  0  0  0  0  0  0
   -0.1480    2.0654   -2.8509 S   0  0  0  0  0  0  0  0  0  0  0  0
    1.1170    1.1878   -1.9980 C   0  0  0  0  0  0  0  0  0  0  0  0
    0.8848   -0.1864   -2.0084 C   0  0  0  0  0  0  0  0  0  0  0  0
    1.7353   -1.1641   -1.4862 N   0  0  0  0  0  0  0  0  0  0  0  0
    2.9746   -1.4047   -2.0873 C   0  0  0  0  0  0  0  0  0  0  0  0
    3.9784   -2.0736   -1.3828 C   0  0  0  0  0  0  0  0  0  0  0  0
    5.2109   -2.2794   -1.9553 C   0  0  0  0  0  0  0  0  0  0  0  0
    5.4832   -1.8174   -3.2424 C   0  0  0  0  0  0  0  0  0  0  0  0
    7.1048   -2.1393   -3.8636 S   0  0  0  0  0  0  0  0  0  0  0  0
    7.0656   -1.4859   -5.5566 C   0  0  0  0  0  0  0  0  0  0  0  0
    4.4939   -1.1439   -3.9434 C   0  0  0  0  0  0  0  0  0  0  0  0
    3.2518   -0.9433   -3.3708 C   0  0  0  0  0  0  0  0  0  0  0  0
    1.1347   -2.0886   -0.6213 C   0  0  0  0  0  0  0  0  0  0  0  0
    0.2383   -1.6206    0.3412 C   0  0  0  0  0  0  0  0  0  0  0  0
   -0.4046   -2.5007    1.1817 C   0  0  0  0  0  0  0  0  0  0  0  0
   -0.1584   -3.8687    1.0899 C   0  0  0  0  0  0  0  0  0  0  0  0
   -1.0166   -4.9096    2.2330 S   0  0  0  0  0  0  0  0  0  0  0  0
   -0.1381   -6.4912    2.1033 C   0  0  0  0  0  0  0  0  0  0  0  0
    0.7255   -4.3398    0.1303 C   0  0  0  0  0  0  0  0  0  0  0  0
    1.3619   -3.4575   -0.7198 C   0  0  0  0  0  0  0  0  0  0  0  0
   -0.3728   -0.4890   -2.5680 C   0  0  0  0  0  0  0  0  0  0  0  0
   -1.3274   -1.9258   -2.6589 S   0  0  0  0  0  0  0  0  0  0  0  0
    2.1519    1.8514   -1.2919 C   0  0  0  0  0  0  0  0  0  0  0  0
    2.4040    3.2124   -1.1216 C   0  0  0  0  0  0  0  0  0  0  0  0
    1.6836    4.2801   -1.6589 N   0  0  0  0  0  0  0  0  0  0  0  0
    2.4473    5.3035   -2.2422 C   0  0  0  0  0  0  0  0  0  0  0  0
    2.1986    6.6476   -1.9832 C   0  0  0  0  0  0  0  0  0  0  0  0
    2.9743    7.6312   -2.5646 C   0  0  0  0  0  0  0  0  0  0  0  0
    4.0256    7.2866   -3.4037 C   0  0  0  0  0  0  0  0  0  0  0  0
    5.0757    8.4535   -4.2095 S   0  0  0  0  0  0  0  0  0  0  0  0
    4.6297   10.0397   -3.4485 C   0  0  0  0  0  0  0  0  0  0  0  0
    4.2864    5.9410   -3.6550 C   0  0  0  0  0  0  0  0  0  0  0  0
    3.5060    4.9615   -3.0849 C   0  0  0  0  0  0  0  0  0  0  0  0
    0.3298    4.4473   -1.3677 C   0  0  0  0  0  0  0  0  0  0  0  0
   -0.4829    5.2268   -2.1963 C   0  0  0  0  0  0  0  0  0  0  0  0
   -1.8325    5.3211   -1.9555 C   0  0  0  0  0  0  0  0  0  0  0  0
   -2.4230    4.6159   -0.9075 C   0  0  0  0  0  0  0  0  0  0  0  0
   -4.1809    4.7363   -0.7761 S   0  0  0  0  0  0  0  0  0  0  0  0
   -4.5949    3.7028    0.6543 C   0  0  0  0  0  0  0  0  0  0  0  0
   -1.6195    3.8660   -0.0618 C   0  0  0  0  0  0  0  0  0  0  0  0
   -0.2566    3.7983   -0.2817 C   0  0  0  0  0  0  0  0  0  0  0  0
    3.5161    3.4209   -0.2766 C   0  0  0  0  0  0  0  0  0  0  0  0
    4.3598    4.8280    0.2518 S   0  0  0  0  0  0  0  0  0  0  0  0
    5.4031    3.8431    1.2939 C   0  0  0  0  0  0  0  0  0  0  0  0
    5.1428    2.4656    1.1437 C   0  0  0  0  0  0  0  0  0  0  0  0
    5.8610    1.4229    1.6679 N   0  0  0  0  0  0  0  0  0  0  0  0
    7.2173    1.5402    1.9897 C   0  0  0  0  0  0  0  0  0  0  0  0
    8.0874    2.2760    1.1816 C   0  0  0  0  0  0  0  0  0  0  0  0
    9.3972    2.4571    1.5573 C   0  0  0  0  0  0  0  0  0  0  0  0
    9.8766    1.9101    2.7497 C   0  0  0  0  0  0  0  0  0  0  0  0
   11.5402    2.2934    3.1768 S   0  0  0  0  0  0  0  0  0  0  0  0
   11.6883    1.7173    4.8918 C   0  0  0  0  0  0  0  0  0  0  0  0
    9.0357    1.1167    3.5184 C   0  0  0  0  0  0  0  0  0  0  0  0
    7.7192    0.9349    3.1403 C   0  0  0  0  0  0  0  0  0  0  0  0
    5.2085    0.1985    1.9090 C   0  0  0  0  0  0  0  0  0  0  0  0
    5.8292   -1.0051    1.5806 C   0  0  0  0  0  0  0  0  0  0  0  0
    5.1886   -2.2006    1.8258 C   0  0  0  0  0  0  0  0  0  0  0  0
    3.9139   -2.2168    2.3884 C   0  0  0  0  0  0  0  0  0  0  0  0
    3.1592   -3.7948    2.6360 S   0  0  0  0  0  0  0  0  0  0  0  0
    1.8981   -3.4546    3.8980 C   0  0  0  0  0  0  0  0  0  0  0  0
    3.2925   -1.0187    2.7134 C   0  0  0  0  0  0  0  0  0  0  0  0
    3.9416    0.1779    2.4856 C   0  0  0  0  0  0  0  0  0  0  0  0
    4.0602    2.2639    0.2603 C   0  0  0  0  0  0  0  0  0  0  0  0
    3.2445    0.8590   -0.3291 S   0  0  0  0  0  0  0  0  0  0  0  0
    6.3375    4.5327    2.0725 C   0  0  0  0  0  0  0  0  0  0  0  0
    6.9112    4.0814    3.2412 C   0  0  0  0  0  0  0  0  0  0  0  0
    6.2810    3.1058    4.1423 C   0  0  0  0  0  0  0  0  0  0  0  0
    5.2129    2.5391    3.9920 O   0  0  0  0  0  0  0  0  0  0  0  0
    7.1383    3.0598    5.3469 C   0  0  0  0  0  0  0  0  0  0  0  0
    6.9520    2.2749    6.4811 C   0  0  0  0  0  0  0  0  0  0  0  0
    7.9247    2.4343    7.4400 C   0  0  0  0  0  0  0  0  0  0  0  0
    8.9976    3.3204    7.2880 C   0  0  0  0  0  0  0  0  0  0  0  0
    9.1895    4.1068    6.1755 C   0  0  0  0  0  0  0  0  0  0  0  0
    8.2163    3.9505    5.1852 C   0  0  0  0  0  0  0  0  0  0  0  0
    8.1051    4.5775    3.8691 C   0  0  0  0  0  0  0  0  0  0  0  0
    9.0545    5.3715    3.2737 C   0  0  0  0  0  0  0  0  0  0  0  0
    8.9748    5.8256    1.9424 C   0  0  0  0  0  0  0  0  0  0  0  0
    8.9872    6.2043    0.8578 N   0  0  0  0  0  0  0  0  0  0  0  0
   10.2496    5.7834    3.8926 C   0  0  0  0  0  0  0  0  0  0  0  0
   11.2331    6.1566    4.3541 N   0  0  0  0  0  0  0  0  0  0  0  0
    9.5781    2.9784    8.6387 C   0  0  0  0  0  0  0  0  0  0  0  0
    9.3402    3.9997    9.7703 C   0  0  0  0  0  0  0  0  0  0  0  0
    9.5791    3.2033   11.0328 C   0  0  0  0  0  0  0  0  0  0  0  0
    8.5631    2.3622   11.1774 C   0  0  0  0  0  0  0  0  0  0  0  0
    7.6203    2.5763   10.0152 C   0  0  0  0  0  0  0  0  0  0  0  0
    7.8085    4.0831    9.7969 C   0  0  0  0  0  0  0  0  0  0  0  0
    8.3811    1.9882    8.8083 C   0  0  0  0  0  0  0  0  0  0  0  0
   -7.4093   -4.3675   -5.5558 H   0  0  0  0  0  0  0  0  0  0  0  0
  -10.7762   -8.0061   -3.5890 H   0  0  0  0  0  0  0  0  0  0  0  0
  -10.0689   -4.6523    0.1456 H   0  0  0  0  0  0  0  0  0  0  0  0
  -12.5518   -6.8790    0.9799 H   0  0  0  0  0  0  0  0  0  0  0  0
  -10.3299   -7.5409    2.2908 H   0  0  0  0  0  0  0  0  0  0  0  0
  -12.2528   -9.1659    3.0425 H   0  0  0  0  0  0  0  0  0  0  0  0
  -12.6446  -10.9373    1.1020 H   0  0  0  0  0  0  0  0  0  0  0  0
  -10.9616  -10.4044   -0.8439 H   0  0  0  0  0  0  0  0  0  0  0  0
   -9.3113   -8.4481   -0.0241 H   0  0  0  0  0  0  0  0  0  0  0  0
   -9.3886   -9.7530    1.1821 H   0  0  0  0  0  0  0  0  0  0  0  0
  -12.9361   -8.6162   -0.9227 H   0  0  0  0  0  0  0  0  0  0  0  0
   -7.2167   -2.2637   -6.7389 H   0  0  0  0  0  0  0  0  0  0  0  0
   -6.7828   -0.6105   -8.6589 H   0  0  0  0  0  0  0  0  0  0  0  0
   -5.8286    0.8057   -8.1879 H   0  0  0  0  0  0  0  0  0  0  0  0
   -4.6803   -1.7635   -9.3808 H   0  0  0  0  0  0  0  0  0  0  0  0
   -3.7418   -0.3473   -8.8967 H   0  0  0  0  0  0  0  0  0  0  0  0
   -4.8902   -0.2313  -10.2349 H   0  0  0  0  0  0  0  0  0  0  0  0
   -3.6849   -3.9983    1.1426 H   0  0  0  0  0  0  0  0  0  0  0  0
   -5.3483   -4.6118    1.1988 H   0  0  0  0  0  0  0  0  0  0  0  0
   -3.0073   -5.9840   -0.2051 H   0  0  0  0  0  0  0  0  0  0  0  0
   -3.6953   -6.4627    1.3514 H   0  0  0  0  0  0  0  0  0  0  0  0
   -4.6595   -6.6061   -0.1253 H   0  0  0  0  0  0  0  0  0  0  0  0
   -3.1035   -2.5373   -0.8891 H   0  0  0  0  0  0  0  0  0  0  0  0
   -4.2310    3.8502   -3.5528 H   0  0  0  0  0  0  0  0  0  0  0  0
   -3.4190    5.7415   -4.8861 H   0  0  0  0  0  0  0  0  0  0  0  0
    0.0324    4.8536   -8.3192 H   0  0  0  0  0  0  0  0  0  0  0  0
    0.8081    5.0958   -6.7195 H   0  0  0  0  0  0  0  0  0  0  0  0
    0.6531    6.4524   -7.8594 H   0  0  0  0  0  0  0  0  0  0  0  0
   -0.6584    3.1622   -6.8834 H   0  0  0  0  0  0  0  0  0  0  0  0
   -1.5219    1.2688   -5.6274 H   0  0  0  0  0  0  0  0  0  0  0  0
   -3.7234    0.4915   -1.2309 H   0  0  0  0  0  0  0  0  0  0  0  0
   -5.8666    0.4719   -0.0238 H   0  0  0  0  0  0  0  0  0  0  0  0
   -9.6717    0.9865   -2.6661 H   0  0  0  0  0  0  0  0  0  0  0  0
   -9.7152    2.7057   -2.1492 H   0  0  0  0  0  0  0  0  0  0  0  0
  -10.6840    1.4871   -1.2883 H   0  0  0  0  0  0  0  0  0  0  0  0
   -7.7980    2.1642   -3.4404 H   0  0  0  0  0  0  0  0  0  0  0  0
   -5.6902    2.1113   -4.6617 H   0  0  0  0  0  0  0  0  0  0  0  0
    3.7865   -2.4147   -0.3784 H   0  0  0  0  0  0  0  0  0  0  0  0
    5.9848   -2.7946   -1.4076 H   0  0  0  0  0  0  0  0  0  0  0  0
    6.2957   -1.9924   -6.1313 H   0  0  0  0  0  0  0  0  0  0  0  0
    6.9055   -0.4118   -5.5389 H   0  0  0  0  0  0  0  0  0  0  0  0
    8.0426   -1.7049   -5.9760 H   0  0  0  0  0  0  0  0  0  0  0  0
    4.6701   -0.7715   -4.9397 H   0  0  0  0  0  0  0  0  0  0  0  0
    2.4893   -0.4233   -3.9320 H   0  0  0  0  0  0  0  0  0  0  0  0
    0.0554   -0.5591    0.4234 H   0  0  0  0  0  0  0  0  0  0  0  0
   -1.1013   -2.1390    1.9243 H   0  0  0  0  0  0  0  0  0  0  0  0
   -0.4998   -7.0990    2.9270 H   0  0  0  0  0  0  0  0  0  0  0  0
    0.9301   -6.3217    2.2038 H   0  0  0  0  0  0  0  0  0  0  0  0
   -0.3737   -6.9758    1.1601 H   0  0  0  0  0  0  0  0  0  0  0  0
    0.9207   -5.3941    0.0238 H   0  0  0  0  0  0  0  0  0  0  0  0
    2.0306   -3.8378   -1.4766 H   0  0  0  0  0  0  0  0  0  0  0  0
    1.3972    6.9246   -1.3150 H   0  0  0  0  0  0  0  0  0  0  0  0
    2.7521    8.6629   -2.3454 H   0  0  0  0  0  0  0  0  0  0  0  0
    5.3317   10.7636   -3.8505 H   0  0  0  0  0  0  0  0  0  0  0  0
    4.7439    9.9732   -2.3706 H   0  0  0  0  0  0  0  0  0  0  0  0
    3.6166   10.3183   -3.7244 H   0  0  0  0  0  0  0  0  0  0  0  0
    5.1069    5.6782   -4.3050 H   0  0  0  0  0  0  0  0  0  0  0  0
    3.7098    3.9195   -3.2854 H   0  0  0  0  0  0  0  0  0  0  0  0
   -0.0528    5.7381   -3.0433 H   0  0  0  0  0  0  0  0  0  0  0  0
   -2.4539    5.9284   -2.5928 H   0  0  0  0  0  0  0  0  0  0  0  0
   -4.2640    2.6839    0.4791 H   0  0  0  0  0  0  0  0  0  0  0  0
   -5.6779    3.7237    0.7272 H   0  0  0  0  0  0  0  0  0  0  0  0
   -4.1533    4.1200    1.5549 H   0  0  0  0  0  0  0  0  0  0  0  0
   -2.0377    3.3297    0.7752 H   0  0  0  0  0  0  0  0  0  0  0  0
    0.3583    3.2157    0.3890 H   0  0  0  0  0  0  0  0  0  0  0  0
    7.7278    2.7171    0.2646 H   0  0  0  0  0  0  0  0  0  0  0  0
   10.0640    3.0401    0.9409 H   0  0  0  0  0  0  0  0  0  0  0  0
   12.6501    2.0838    5.2367 H   0  0  0  0  0  0  0  0  0  0  0  0
   11.6726    0.6318    4.9283 H   0  0  0  0  0  0  0  0  0  0  0  0
   10.8909    2.1475    5.4914 H   0  0  0  0  0  0  0  0  0  0  0  0
    9.3852    0.6506    4.4254 H   0  0  0  0  0  0  0  0  0  0  0  0
    7.0645    0.3336    3.7531 H   0  0  0  0  0  0  0  0  0  0  0  0
    6.8129   -0.9970    1.1355 H   0  0  0  0  0  0  0  0  0  0  0  0
    5.6663   -3.1363    1.5781 H   0  0  0  0  0  0  0  0  0  0  0  0
    1.0653   -2.9117    3.4615 H   0  0  0  0  0  0  0  0  0  0  0  0
    2.3493   -2.9008    4.7154 H   0  0  0  0  0  0  0  0  0  0  0  0
    1.5570   -4.4230    4.2504 H   0  0  0  0  0  0  0  0  0  0  0  0
    2.3057   -1.0063    3.1470 H   0  0  0  0  0  0  0  0  0  0  0  0
    3.4825    1.1085    2.7792 H   0  0  0  0  0  0  0  0  0  0  0  0
    6.5871    5.5289    1.7270 H   0  0  0  0  0  0  0  0  0  0  0  0
    6.1100    1.6048    6.5601 H   0  0  0  0  0  0  0  0  0  0  0  0
   10.0161    4.7905    6.0730 H   0  0  0  0  0  0  0  0  0  0  0  0
   10.5902    2.5763    8.6352 H   0  0  0  0  0  0  0  0  0  0  0  0
    9.8914    4.9303    9.6667 H   0  0  0  0  0  0  0  0  0  0  0  0
   10.4605    3.2919   11.6404 H   0  0  0  0  0  0  0  0  0  0  0  0
    8.4263    1.6077   11.9300 H   0  0  0  0  0  0  0  0  0  0  0  0
    6.6040    2.2106   10.1357 H   0  0  0  0  0  0  0  0  0  0  0  0
    7.4428    4.6699   10.6379 H   0  0  0  0  0  0  0  0  0  0  0  0
    7.3683    4.4559    8.8740 H   0  0  0  0  0  0  0  0  0  0  0  0
    8.5962    0.9263    8.9174 H   0  0  0  0  0  0  0  0  0  0  0  0
  1  2  2  0  0  0  0
  2  3  1  0  0  0  0
  3  4  2  0  0  0  0
  3  5  1  0  0  0  0
  5  6  2  0  0  0  0
  6  7  1  0  0  0  0
  7  8  2  0  0  0  0
  8  9  1  0  0  0  0
  9 10  2  0  0  0  0
 10 11  1  0  0  0  0
 11 12  2  0  0  0  0
 12 13  1  0  0  0  0
 13 14  3  0  0  0  0
 12 15  1  0  0  0  0
 15 16  3  0  0  0  0
  8 17  1  0  0  0  0
 17 18  1  0  0  0  0
 18 19  1  0  0  0  0
 19 20  2  0  0  0  0
 20 21  1  0  0  0  0
 21 22  1  0  0  0  0
 21 23  1  0  0  0  0
  1 24  1  0  0  0  0
 24 25  2  0  0  0  0
 25 26  1  0  0  0  0
 26 27  2  0  0  0  0
 27 28  1  0  0  0  0
 28 29  1  0  0  0  0
 27 30  1  0  0  0  0
 30 31  1  0  0  0  0
 31 32  2  0  0  0  0
 32 33  1  0  0  0  0
 33 34  2  0  0  0  0
 34 35  1  0  0  0  0
 35 36  1  0  0  0  0
 36 37  1  0  0  0  0
 37 38  1  0  0  0  0
 36 39  2  0  0  0  0
 32 40  1  0  0  0  0
 40 41  2  0  0  0  0
 41 42  1  0  0  0  0
 42 43  1  0  0  0  0
 43 44  2  0  0  0  0
 44 45  1  0  0  0  0
 45 46  2  0  0  0  0
 46 47  1  0  0  0  0
 47 48  1  0  0  0  0
 46 49  1  0  0  0  0
 49 50  2  0  0  0  0
 42 51  1  0  0  0  0
 51 52  2  0  0  0  0
 52 53  1  0  0  0  0
 53 54  2  0  0  0  0
 54 55  1  0  0  0  0
 55 56  1  0  0  0  0
 54 57  1  0  0  0  0
 57 58  2  0  0  0  0
 41 59  1  0  0  0  0
 59 60  1  0  0  0  0
 60 61  1  0  0  0  0
 61 62  2  0  0  0  0
 62 63  1  0  0  0  0
 63 64  1  0  0  0  0
 64 65  2  0  0  0  0
 65 66  1  0  0  0  0
 66 67  2  0  0  0  0
 67 68  1  0  0  0  0
 68 69  1  0  0  0  0
 67 70  1  0  0  0  0
 70 71  2  0  0  0  0
 63 72  1  0  0  0  0
 72 73  2  0  0  0  0
 73 74  1  0  0  0  0
 74 75  2  0  0  0  0
 75 76  1  0  0  0  0
 76 77  1  0  0  0  0
 75 78  1  0  0  0  0
 78 79  2  0  0  0  0
 62 80  1  0  0  0  0
 80 81  1  0  0  0  0
 61 82  1  0  0  0  0
 82 83  2  0  0  0  0
 83 84  1  0  0  0  0
 84 85  1  0  0  0  0
 85 86  2  0  0  0  0
 86 87  1  0  0  0  0
 87 88  2  0  0  0  0
 88 89  1  0  0  0  0
 89 90  1  0  0  0  0
 88 91  1  0  0  0  0
 91 92  2  0  0  0  0
 84 93  1  0  0  0  0
 93 94  2  0  0  0  0
 94 95  1  0  0  0  0
 95 96  2  0  0  0  0
 96 97  1  0  0  0  0
 97 98  1  0  0  0  0
 96 99  1  0  0  0  0
 99100  2  0  0  0  0
 83101  1  0  0  0  0
101102  1  0  0  0  0
102103  1  0  0  0  0
103104  2  0  0  0  0
104105  1  0  0  0  0
105106  1  0  0  0  0
106107  2  0  0  0  0
107108  1  0  0  0  0
108109  2  0  0  0  0
109110  1  0  0  0  0
110111  1  0  0  0  0
109112  1  0  0  0  0
112113  2  0  0  0  0
105114  1  0  0  0  0
114115  2  0  0  0  0
115116  1  0  0  0  0
116117  2  0  0  0  0
117118  1  0  0  0  0
118119  1  0  0  0  0
117120  1  0  0  0  0
120121  2  0  0  0  0
104122  1  0  0  0  0
122123  1  0  0  0  0
103124  1  0  0  0  0
124125  2  0  0  0  0
125126  1  0  0  0  0
126127  2  0  0  0  0
126128  1  0  0  0  0
128129  2  0  0  0  0
129130  1  0  0  0  0
130131  2  0  0  0  0
131132  1  0  0  0  0
132133  2  0  0  0  0
133134  1  0  0  0  0
134135  2  0  0  0  0
135136  1  0  0  0  0
136137  3  0  0  0  0
135138  1  0  0  0  0
138139  3  0  0  0  0
131140  1  0  0  0  0
140141  1  0  0  0  0
141142  1  0  0  0  0
142143  2  0  0  0  0
143144  1  0  0  0  0
144145  1  0  0  0  0
144146  1  0  0  0  0
 11  2  1  0  0  0  0
 23 17  1  0  0  0  0
 34 24  1  0  0  0  0
 81 40  1  0  0  0  0
123 82  1  0  0  0  0
134125  1  0  0  0  0
146140  1  0  0  0  0
 10  5  1  0  0  0  0
 22 18  1  0  0  0  0
 31 25  1  0  0  0  0
 39 33  1  0  0  0  0
 50 43  1  0  0  0  0
 58 51  1  0  0  0  0
 80 59  2  0  0  0  0
 92 85  1  0  0  0  0
100 93  1  0  0  0  0
122101  2  0  0  0  0
133128  1  0  0  0  0
145141  1  0  0  0  0
 23  7  1  0  0  0  0
 71 64  1  0  0  0  0
 79 72  1  0  0  0  0
113106  1  0  0  0  0
121114  1  0  0  0  0
146130  1  0  0  0  0
  1147  1  0  0  0  0
  6148  1  0  0  0  0
  9149  1  0  0  0  0
 17150  1  0  0  0  0
 18151  1  0  0  0  0
 19152  1  0  0  0  0
 20153  1  0  0  0  0
 21154  1  0  0  0  0
 22155  1  0  0  0  0
 22156  1  0  0  0  0
 23157  1  0  0  0  0
 26158  1  0  0  0  0
 28159  1  0  0  0  0
 28160  1  0  0  0  0
 29161  1  0  0  0  0
 29162  1  0  0  0  0
 29163  1  0  0  0  0
 37164  1  0  0  0  0
 37165  1  0  0  0  0
 38166  1  0  0  0  0
 38167  1  0  0  0  0
 38168  1  0  0  0  0
 39169  1  0  0  0  0
 44170  1  0  0  0  0
 45171  1  0  0  0  0
 48172  1  0  0  0  0
 48173  1  0  0  0  0
 48174  1  0  0  0  0
 49175  1  0  0  0  0
 50176  1  0  0  0  0
 52177  1  0  0  0  0
 53178  1  0  0  0  0
 56179  1  0  0  0  0
 56180  1  0  0  0  0
 56181  1  0  0  0  0
 57182  1  0  0  0  0
 58183  1  0  0  0  0
 65184  1  0  0  0  0
 66185  1  0  0  0  0
 69186  1  0  0  0  0
 69187  1  0  0  0  0
 69188  1  0  0  0  0
 70189  1  0  0  0  0
 71190  1  0  0  0  0
 73191  1  0  0  0  0
 74192  1  0  0  0  0
 77193  1  0  0  0  0
 77194  1  0  0  0  0
 77195  1  0  0  0  0
 78196  1  0  0  0  0
 79197  1  0  0  0  0
 86198  1  0  0  0  0
 87199  1  0  0  0  0
 90200  1  0  0  0  0
 90201  1  0  0  0  0
 90202  1  0  0  0  0
 91203  1  0  0  0  0
 92204  1  0  0  0  0
 94205  1  0  0  0  0
 95206  1  0  0  0  0
 98207  1  0  0  0  0
 98208  1  0  0  0  0
 98209  1  0  0  0  0
 99210  1  0  0  0  0
100211  1  0  0  0  0
107212  1  0  0  0  0
108213  1  0  0  0  0
111214  1  0  0  0  0
111215  1  0  0  0  0
111216  1  0  0  0  0
112217  1  0  0  0  0
113218  1  0  0  0  0
115219  1  0  0  0  0
116220  1  0  0  0  0
119221  1  0  0  0  0
119222  1  0  0  0  0
119223  1  0  0  0  0
120224  1  0  0  0  0
121225  1  0  0  0  0
124226  1  0  0  0  0
129227  1  0  0  0  0
132228  1  0  0  0  0
140229  1  0  0  0  0
141230  1  0  0  0  0
142231  1  0  0  0  0
143232  1  0  0  0  0
144233  1  0  0  0  0
145234  1  0  0  0  0
145235  1  0  0  0  0
146236  1  0  0  0  0
M  END
