
  xtb     02152203323D
 energy: -349.638722451661 gnorm: 0.000905953664 xtb: 6.4.1 (unknown)
208230  0     0  0            999 V2000
    7.0010   -5.3067    4.2754 C   0  0  0  0  0  0  0  0  0  0  0  0
    7.0021   -6.2003    5.3079 C   0  0  0  0  0  0  0  0  0  0  0  0
    6.1838   -6.2061    6.5450 C   0  0  0  0  0  0  0  0  0  0  0  0
    5.5082   -5.3139    7.0171 O   0  0  0  0  0  0  0  0  0  0  0  0
    6.3628   -7.5421    7.1397 C   0  0  0  0  0  0  0  0  0  0  0  0
    5.7068   -8.0433    8.2619 C   0  0  0  0  0  0  0  0  0  0  0  0
    6.0423   -9.3385    8.5723 C   0  0  0  0  0  0  0  0  0  0  0  0
    6.9672  -10.0801    7.8239 C   0  0  0  0  0  0  0  0  0  0  0  0
    7.6314   -9.5923    6.7241 C   0  0  0  0  0  0  0  0  0  0  0  0
    7.3024   -8.2751    6.3894 C   0  0  0  0  0  0  0  0  0  0  0  0
    7.7840   -7.4300    5.3009 C   0  0  0  0  0  0  0  0  0  0  0  0
    8.8309   -7.7358    4.4715 C   0  0  0  0  0  0  0  0  0  0  0  0
    9.3739   -6.9027    3.4693 C   0  0  0  0  0  0  0  0  0  0  0  0
    9.9015   -6.2926    2.6512 N   0  0  0  0  0  0  0  0  0  0  0  0
    9.5684   -8.9376    4.5324 C   0  0  0  0  0  0  0  0  0  0  0  0
   10.2105   -9.8893    4.5149 N   0  0  0  0  0  0  0  0  0  0  0  0
    6.7963  -11.3082    8.6821 C   0  0  0  0  0  0  0  0  0  0  0  0
    5.9308  -12.4632    8.1196 C   0  0  0  0  0  0  0  0  0  0  0  0
    4.9517  -11.8377    7.1573 C   0  0  0  0  0  0  0  0  0  0  0  0
    4.0784  -11.1356    7.8670 C   0  0  0  0  0  0  0  0  0  0  0  0
    4.4515  -11.2738    9.3224 C   0  0  0  0  0  0  0  0  0  0  0  0
    5.0077  -12.7066    9.3243 C   0  0  0  0  0  0  0  0  0  0  0  0
    5.7682  -10.4814    9.5170 C   0  0  0  0  0  0  0  0  0  0  0  0
    6.2667   -4.1177    4.0672 C   0  0  0  0  0  0  0  0  0  0  0  0
    5.3604   -3.4374    4.8436 C   0  0  0  0  0  0  0  0  0  0  0  0
    4.8280   -2.2877    4.2317 C   0  0  0  0  0  0  0  0  0  0  0  0
    3.8464   -1.4062    4.7524 C   0  0  0  0  0  0  0  0  0  0  0  0
    3.3841   -1.5130    6.1114 C   0  0  0  0  0  0  0  0  0  0  0  0
    4.1071   -1.8863    7.2160 C   0  0  0  0  0  0  0  0  0  0  0  0
    3.4115   -1.9069    8.4353 C   0  0  0  0  0  0  0  0  0  0  0  0
    2.0911   -1.5586    8.3557 C   0  0  0  0  0  0  0  0  0  0  0  0
    1.0004   -1.5945    9.7186 S   0  0  0  0  0  0  0  0  0  0  0  0
   -0.4281   -0.6539    9.0747 C   0  0  0  0  0  0  0  0  0  0  0  0
   -0.1500    0.8334    8.9967 C   0  0  0  0  0  0  0  0  0  0  0  0
    1.6024   -1.1315    6.5888 Se  0  0  0  0  0  2  0  0  0  0  0  0
    3.3766   -0.4347    3.8732 C   0  0  0  0  0  0  0  0  0  0  0  0
    3.8845   -0.2562    2.5646 C   0  0  0  0  0  0  0  0  0  0  0  0
    4.8786   -1.1160    2.0516 C   0  0  0  0  0  0  0  0  0  0  0  0
    5.3606   -0.9805    0.6959 C   0  0  0  0  0  0  0  0  0  0  0  0
    4.6266   -0.6983   -0.4243 C   0  0  0  0  0  0  0  0  0  0  0  0
    5.3505   -0.5969   -1.6272 C   0  0  0  0  0  0  0  0  0  0  0  0
    6.6994   -0.7831   -1.5075 C   0  0  0  0  0  0  0  0  0  0  0  0
    7.8201   -0.6018   -2.8355 S   0  0  0  0  0  0  0  0  0  0  0  0
    9.2926   -1.4720   -2.1916 C   0  0  0  0  0  0  0  0  0  0  0  0
    9.1012   -2.9740   -2.1519 C   0  0  0  0  0  0  0  0  0  0  0  0
    7.1908   -1.1394    0.2784 Se  0  0  0  0  0  2  0  0  0  0  0  0
    5.3291   -2.1067    2.9146 C   0  0  0  0  0  0  0  0  0  0  0  0
    6.4943   -3.3264    2.5072 S   0  0  0  0  0  0  0  0  0  0  0  0
    3.2850    0.8396    1.9115 C   0  0  0  0  0  0  0  0  0  0  0  0
    2.3065    1.4516    2.6420 C   0  0  0  0  0  0  0  0  0  0  0  0
    2.1293    0.7268    4.2225 S   0  0  0  0  0  0  0  0  0  0  0  0
    1.3958    2.4249    2.1100 C   0  0  0  0  0  0  0  0  0  0  0  0
    0.1015    2.5844    2.5746 C   0  0  0  0  0  0  0  0  0  0  0  0
   -0.2807    2.0378    3.7440 F   0  0  0  0  0  0  0  0  0  0  0  0
   -0.8983    3.1584    1.7814 C   0  0  0  0  0  0  0  0  0  0  0  0
   -2.1601    3.1299    2.2501 F   0  0  0  0  0  0  0  0  0  0  0  0
   -0.6466    3.5809    0.4915 C   0  0  0  0  0  0  0  0  0  0  0  0
    0.7152    3.7114    0.1152 C   0  0  0  0  0  0  0  0  0  0  0  0
    1.0303    4.3771   -1.0084 N   0  0  0  0  0  0  0  0  0  0  0  0
    2.2908    4.5566   -1.3170 C   0  0  0  0  0  0  0  0  0  0  0  0
    2.5953    5.3578   -2.5439 C   0  0  0  0  0  0  0  0  0  0  0  0
    1.3383    5.8408   -3.2531 C   0  0  0  0  0  0  0  0  0  0  0  0
    3.3199    4.0474   -0.4703 C   0  0  0  0  0  0  0  0  0  0  0  0
    3.0180    3.3529    0.5998 N   0  0  0  0  0  0  0  0  0  0  0  0
    1.7324    3.1595    0.9303 C   0  0  0  0  0  0  0  0  0  0  0  0
    4.7830    4.2895   -0.6896 C   0  0  0  0  0  0  0  0  0  0  0  0
    5.4102    3.2653   -1.6380 C   0  0  0  0  0  0  0  0  0  0  0  0
   -1.7025    3.6361   -0.5075 C   0  0  0  0  0  0  0  0  0  0  0  0
   -1.7871    2.7223   -1.5414 C   0  0  0  0  0  0  0  0  0  0  0  0
   -0.8119    1.7222   -1.7643 N   0  0  0  0  0  0  0  0  0  0  0  0
   -0.6273    0.7330   -0.8001 C   0  0  0  0  0  0  0  0  0  0  0  0
    0.3421   -0.2679   -0.9444 C   0  0  0  0  0  0  0  0  0  0  0  0
    0.6139   -1.1422    0.0830 C   0  0  0  0  0  0  0  0  0  0  0  0
   -0.0955   -1.0832    1.2795 C   0  0  0  0  0  0  0  0  0  0  0  0
    0.4369   -2.1585    2.5782 S   0  0  0  0  0  0  0  0  0  0  0  0
   -0.7226   -1.8010    3.9269 C   0  0  0  0  0  0  0  0  0  0  0  0
   -1.1731   -0.2166    1.3636 C   0  0  0  0  0  0  0  0  0  0  0  0
   -1.4431    0.6617    0.3308 C   0  0  0  0  0  0  0  0  0  0  0  0
    0.1396    1.9682   -2.7750 C   0  0  0  0  0  0  0  0  0  0  0  0
    1.5104    1.8423   -2.5383 C   0  0  0  0  0  0  0  0  0  0  0  0
    2.4193    2.0756   -3.5442 C   0  0  0  0  0  0  0  0  0  0  0  0
    1.9969    2.4957   -4.8028 C   0  0  0  0  0  0  0  0  0  0  0  0
    3.2704    2.8352   -5.9798 S   0  0  0  0  0  0  0  0  0  0  0  0
    2.3647    3.3535   -7.4629 C   0  0  0  0  0  0  0  0  0  0  0  0
    0.6400    2.6491   -5.0400 C   0  0  0  0  0  0  0  0  0  0  0  0
   -0.2740    2.3772   -4.0384 C   0  0  0  0  0  0  0  0  0  0  0  0
   -3.0115    2.8565   -2.2360 C   0  0  0  0  0  0  0  0  0  0  0  0
   -3.7166    2.0819   -3.6116 S   0  0  0  0  0  0  0  0  0  0  0  0
   -5.1872    3.0362   -3.4166 C   0  0  0  0  0  0  0  0  0  0  0  0
   -5.0754    3.9736   -2.3618 C   0  0  0  0  0  0  0  0  0  0  0  0
   -6.0258    4.8912   -1.9939 N   0  0  0  0  0  0  0  0  0  0  0  0
   -6.1084    5.2482   -0.6347 C   0  0  0  0  0  0  0  0  0  0  0  0
   -6.2554    6.5805   -0.2528 C   0  0  0  0  0  0  0  0  0  0  0  0
   -6.2748    6.9148    1.0826 C   0  0  0  0  0  0  0  0  0  0  0  0
   -6.1443    5.9308    2.0620 C   0  0  0  0  0  0  0  0  0  0  0  0
   -6.1260    6.4709    3.7388 S   0  0  0  0  0  0  0  0  0  0  0  0
   -5.5049    5.0210    4.6393 C   0  0  0  0  0  0  0  0  0  0  0  0
   -6.0444    4.5981    1.6838 C   0  0  0  0  0  0  0  0  0  0  0  0
   -6.0307    4.2627    0.3456 C   0  0  0  0  0  0  0  0  0  0  0  0
   -6.8862    5.5059   -2.9184 C   0  0  0  0  0  0  0  0  0  0  0  0
   -6.4334    5.8440   -4.1957 C   0  0  0  0  0  0  0  0  0  0  0  0
   -7.3131    6.3405   -5.1293 C   0  0  0  0  0  0  0  0  0  0  0  0
   -8.6552    6.5352   -4.8019 C   0  0  0  0  0  0  0  0  0  0  0  0
   -9.7277    7.0791   -6.0930 S   0  0  0  0  0  0  0  0  0  0  0  0
  -11.3688    6.5851   -5.4935 C   0  0  0  0  0  0  0  0  0  0  0  0
   -9.0833    6.2942   -3.5041 C   0  0  0  0  0  0  0  0  0  0  0  0
   -8.2074    5.7729   -2.5718 C   0  0  0  0  0  0  0  0  0  0  0  0
   -3.8356    3.8446   -1.7073 C   0  0  0  0  0  0  0  0  0  0  0  0
   -3.1038    4.6473   -0.3552 S   0  0  0  0  0  0  0  0  0  0  0  0
   -6.3600    2.8353   -4.1484 C   0  0  0  0  0  0  0  0  0  0  0  0
   -6.5852    2.1083   -5.2920 C   0  0  0  0  0  0  0  0  0  0  0  0
   -5.5733    1.4092   -6.0893 C   0  0  0  0  0  0  0  0  0  0  0  0
   -4.4084    1.2010   -5.7950 O   0  0  0  0  0  0  0  0  0  0  0  0
   -6.2374    1.0166   -7.3446 C   0  0  0  0  0  0  0  0  0  0  0  0
   -5.6666    0.3488   -8.4245 C   0  0  0  0  0  0  0  0  0  0  0  0
   -6.5373    0.1193   -9.4630 C   0  0  0  0  0  0  0  0  0  0  0  0
   -7.8770    0.5271   -9.4314 C   0  0  0  0  0  0  0  0  0  0  0  0
   -8.4526    1.1874   -8.3712 C   0  0  0  0  0  0  0  0  0  0  0  0
   -7.5850    1.4281   -7.3034 C   0  0  0  0  0  0  0  0  0  0  0  0
   -7.8351    2.0708   -6.0146 C   0  0  0  0  0  0  0  0  0  0  0  0
   -9.0525    2.5373   -5.5817 C   0  0  0  0  0  0  0  0  0  0  0  0
   -9.3338    3.0035   -4.2842 C   0  0  0  0  0  0  0  0  0  0  0  0
   -9.6717    3.3701   -3.2474 N   0  0  0  0  0  0  0  0  0  0  0  0
  -10.2213    2.5914   -6.3664 C   0  0  0  0  0  0  0  0  0  0  0  0
  -11.2126    2.7021   -6.9366 N   0  0  0  0  0  0  0  0  0  0  0  0
   -8.1647   -0.0387  -10.7994 C   0  0  0  0  0  0  0  0  0  0  0  0
   -8.9352   -1.3799  -10.8773 C   0  0  0  0  0  0  0  0  0  0  0  0
   -8.6488   -2.1144   -9.5912 C   0  0  0  0  0  0  0  0  0  0  0  0
   -7.3807   -2.5021   -9.6200 C   0  0  0  0  0  0  0  0  0  0  0  0
   -6.7867   -2.0365  -10.9263 C   0  0  0  0  0  0  0  0  0  0  0  0
   -8.0177   -2.1511  -11.8396 C   0  0  0  0  0  0  0  0  0  0  0  0
   -6.6719   -0.4947  -10.8340 C   0  0  0  0  0  0  0  0  0  0  0  0
    7.6408   -5.5511    3.4352 H   0  0  0  0  0  0  0  0  0  0  0  0
    4.9995   -7.4370    8.8060 H   0  0  0  0  0  0  0  0  0  0  0  0
    8.3375  -10.1776    6.1594 H   0  0  0  0  0  0  0  0  0  0  0  0
    7.6915  -11.6679    9.1851 H   0  0  0  0  0  0  0  0  0  0  0  0
    6.4984  -13.3102    7.7437 H   0  0  0  0  0  0  0  0  0  0  0  0
    5.0262  -11.9205    6.0887 H   0  0  0  0  0  0  0  0  0  0  0  0
    3.2780  -10.5143    7.5099 H   0  0  0  0  0  0  0  0  0  0  0  0
    3.6719  -11.0380   10.0422 H   0  0  0  0  0  0  0  0  0  0  0  0
    5.5438  -12.9629   10.2371 H   0  0  0  0  0  0  0  0  0  0  0  0
    4.2427  -13.4553    9.1241 H   0  0  0  0  0  0  0  0  0  0  0  0
    5.9923  -10.2994   10.5663 H   0  0  0  0  0  0  0  0  0  0  0  0
    5.0654   -3.7928    5.8125 H   0  0  0  0  0  0  0  0  0  0  0  0
    5.1624   -2.0923    7.1697 H   0  0  0  0  0  0  0  0  0  0  0  0
    3.8793   -2.1717    9.3674 H   0  0  0  0  0  0  0  0  0  0  0  0
   -0.6742   -1.0725    8.0931 H   0  0  0  0  0  0  0  0  0  0  0  0
   -1.2377   -0.8707    9.7708 H   0  0  0  0  0  0  0  0  0  0  0  0
   -1.0361    1.3554    8.6422 H   0  0  0  0  0  0  0  0  0  0  0  0
    0.6668    1.0365    8.3038 H   0  0  0  0  0  0  0  0  0  0  0  0
    0.1197    1.2213    9.9762 H   0  0  0  0  0  0  0  0  0  0  0  0
    3.5520   -0.6251   -0.4008 H   0  0  0  0  0  0  0  0  0  0  0  0
    4.8819   -0.4030   -2.5770 H   0  0  0  0  0  0  0  0  0  0  0  0
    9.4995   -1.0622   -1.1978 H   0  0  0  0  0  0  0  0  0  0  0  0
   10.0975   -1.1906   -2.8697 H   0  0  0  0  0  0  0  0  0  0  0  0
    8.8793   -3.3554   -3.1459 H   0  0  0  0  0  0  0  0  0  0  0  0
   10.0073   -3.4510   -1.7852 H   0  0  0  0  0  0  0  0  0  0  0  0
    8.2809   -3.2407   -1.4854 H   0  0  0  0  0  0  0  0  0  0  0  0
    3.5592    1.1719    0.9300 H   0  0  0  0  0  0  0  0  0  0  0  0
    3.2115    6.2148   -2.2555 H   0  0  0  0  0  0  0  0  0  0  0  0
    3.1919    4.7448   -3.2236 H   0  0  0  0  0  0  0  0  0  0  0  0
    1.6067    6.4140   -4.1371 H   0  0  0  0  0  0  0  0  0  0  0  0
    0.7478    6.4671   -2.5905 H   0  0  0  0  0  0  0  0  0  0  0  0
    0.7280    4.9929   -3.5501 H   0  0  0  0  0  0  0  0  0  0  0  0
    5.2716    4.2081    0.2828 H   0  0  0  0  0  0  0  0  0  0  0  0
    4.9415    5.2944   -1.0830 H   0  0  0  0  0  0  0  0  0  0  0  0
    5.2118    2.2538   -1.2908 H   0  0  0  0  0  0  0  0  0  0  0  0
    6.4872    3.4079   -1.6719 H   0  0  0  0  0  0  0  0  0  0  0  0
    5.0234    3.3748   -2.6474 H   0  0  0  0  0  0  0  0  0  0  0  0
    0.8784   -0.3734   -1.8740 H   0  0  0  0  0  0  0  0  0  0  0  0
    1.3845   -1.8902   -0.0312 H   0  0  0  0  0  0  0  0  0  0  0  0
   -0.6257   -0.7622    4.2358 H   0  0  0  0  0  0  0  0  0  0  0  0
   -1.7372   -2.0322    3.6154 H   0  0  0  0  0  0  0  0  0  0  0  0
   -0.4303   -2.4576    4.7425 H   0  0  0  0  0  0  0  0  0  0  0  0
   -1.8136   -0.2009    2.2306 H   0  0  0  0  0  0  0  0  0  0  0  0
   -2.3116    1.2962    0.4136 H   0  0  0  0  0  0  0  0  0  0  0  0
    1.8705    1.5721   -1.5571 H   0  0  0  0  0  0  0  0  0  0  0  0
    3.4744    1.9449   -3.3609 H   0  0  0  0  0  0  0  0  0  0  0  0
    1.7864    4.2480   -7.2504 H   0  0  0  0  0  0  0  0  0  0  0  0
    1.7289    2.5443   -7.8098 H   0  0  0  0  0  0  0  0  0  0  0  0
    3.1236    3.5724   -8.2077 H   0  0  0  0  0  0  0  0  0  0  0  0
    0.2716    2.9699   -6.0008 H   0  0  0  0  0  0  0  0  0  0  0  0
   -1.3240    2.4784   -4.2563 H   0  0  0  0  0  0  0  0  0  0  0  0
   -6.3344    7.3474   -1.0085 H   0  0  0  0  0  0  0  0  0  0  0  0
   -6.3719    7.9459    1.3853 H   0  0  0  0  0  0  0  0  0  0  0  0
   -6.2661    4.2471    4.6797 H   0  0  0  0  0  0  0  0  0  0  0  0
   -5.2862    5.3708    5.6434 H   0  0  0  0  0  0  0  0  0  0  0  0
   -4.5974    4.6596    4.1649 H   0  0  0  0  0  0  0  0  0  0  0  0
   -5.9784    3.8126    2.4182 H   0  0  0  0  0  0  0  0  0  0  0  0
   -5.9576    3.2252    0.0542 H   0  0  0  0  0  0  0  0  0  0  0  0
   -5.3983    5.6823   -4.4577 H   0  0  0  0  0  0  0  0  0  0  0  0
   -6.9765    6.5762   -6.1271 H   0  0  0  0  0  0  0  0  0  0  0  0
  -11.7113    7.2670   -4.7205 H   0  0  0  0  0  0  0  0  0  0  0  0
  -11.3275    5.5630   -5.1290 H   0  0  0  0  0  0  0  0  0  0  0  0
  -12.0271    6.6440   -6.3545 H   0  0  0  0  0  0  0  0  0  0  0  0
  -10.1045    6.4750   -3.2131 H   0  0  0  0  0  0  0  0  0  0  0  0
   -8.5581    5.5423   -1.5782 H   0  0  0  0  0  0  0  0  0  0  0  0
   -7.2155    3.3709   -3.7584 H   0  0  0  0  0  0  0  0  0  0  0  0
   -4.6294    0.0520   -8.4078 H   0  0  0  0  0  0  0  0  0  0  0  0
   -9.4848    1.4962   -8.3621 H   0  0  0  0  0  0  0  0  0  0  0  0
   -8.4974    0.6752  -11.5504 H   0  0  0  0  0  0  0  0  0  0  0  0
   -9.9822   -1.2835  -11.1521 H   0  0  0  0  0  0  0  0  0  0  0  0
   -9.3593   -2.2229   -8.7927 H   0  0  0  0  0  0  0  0  0  0  0  0
   -6.8198   -2.9989   -8.8501 H   0  0  0  0  0  0  0  0  0  0  0  0
   -5.8774   -2.5388  -11.2463 H   0  0  0  0  0  0  0  0  0  0  0  0
   -8.3360   -3.1815  -11.9903 H   0  0  0  0  0  0  0  0  0  0  0  0
   -7.8898   -1.6607  -12.8038 H   0  0  0  0  0  0  0  0  0  0  0  0
   -6.0300   -0.0795  -11.6088 H   0  0  0  0  0  0  0  0  0  0  0  0
  1  2  2  0  0  0  0
  2  3  1  0  0  0  0
  3  4  2  0  0  0  0
  3  5  1  0  0  0  0
  5  6  2  0  0  0  0
  6  7  1  0  0  0  0
  7  8  2  0  0  0  0
  8  9  1  0  0  0  0
  9 10  2  0  0  0  0
 10 11  1  0  0  0  0
 11 12  2  0  0  0  0
 12 13  1  0  0  0  0
 13 14  3  0  0  0  0
 12 15  1  0  0  0  0
 15 16  3  0  0  0  0
  8 17  1  0  0  0  0
 17 18  1  0  0  0  0
 18 19  1  0  0  0  0
 19 20  2  0  0  0  0
 20 21  1  0  0  0  0
 21 22  1  0  0  0  0
 21 23  1  0  0  0  0
  1 24  1  0  0  0  0
 24 25  2  0  0  0  0
 25 26  1  0  0  0  0
 26 27  2  0  0  0  0
 27 28  1  0  0  0  0
 28 29  2  0  0  0  0
 29 30  1  0  0  0  0
 30 31  2  0  0  0  0
 31 32  1  0  0  0  0
 32 33  1  0  0  0  0
 33 34  1  0  0  0  0
 31 35  1  0  0  0  0
 27 36  1  0  0  0  0
 36 37  2  0  0  0  0
 37 38  1  0  0  0  0
 38 39  1  0  0  0  0
 39 40  2  0  0  0  0
 40 41  1  0  0  0  0
 41 42  2  0  0  0  0
 42 43  1  0  0  0  0
 43 44  1  0  0  0  0
 44 45  1  0  0  0  0
 42 46  1  0  0  0  0
 38 47  2  0  0  0  0
 47 48  1  0  0  0  0
 37 49  1  0  0  0  0
 49 50  2  0  0  0  0
 50 51  1  0  0  0  0
 50 52  1  0  0  0  0
 52 53  2  0  0  0  0
 53 54  1  0  0  0  0
 53 55  1  0  0  0  0
 55 56  1  0  0  0  0
 55 57  2  0  0  0  0
 57 58  1  0  0  0  0
 58 59  2  0  0  0  0
 59 60  1  0  0  0  0
 60 61  1  0  0  0  0
 61 62  1  0  0  0  0
 60 63  2  0  0  0  0
 63 64  1  0  0  0  0
 64 65  2  0  0  0  0
 63 66  1  0  0  0  0
 66 67  1  0  0  0  0
 57 68  1  0  0  0  0
 68 69  2  0  0  0  0
 69 70  1  0  0  0  0
 70 71  1  0  0  0  0
 71 72  2  0  0  0  0
 72 73  1  0  0  0  0
 73 74  2  0  0  0  0
 74 75  1  0  0  0  0
 75 76  1  0  0  0  0
 74 77  1  0  0  0  0
 77 78  2  0  0  0  0
 70 79  1  0  0  0  0
 79 80  2  0  0  0  0
 80 81  1  0  0  0  0
 81 82  2  0  0  0  0
 82 83  1  0  0  0  0
 83 84  1  0  0  0  0
 82 85  1  0  0  0  0
 85 86  2  0  0  0  0
 69 87  1  0  0  0  0
 87 88  1  0  0  0  0
 88 89  1  0  0  0  0
 89 90  2  0  0  0  0
 90 91  1  0  0  0  0
 91 92  1  0  0  0  0
 92 93  2  0  0  0  0
 93 94  1  0  0  0  0
 94 95  2  0  0  0  0
 95 96  1  0  0  0  0
 96 97  1  0  0  0  0
 95 98  1  0  0  0  0
 98 99  2  0  0  0  0
 91100  1  0  0  0  0
100101  2  0  0  0  0
101102  1  0  0  0  0
102103  2  0  0  0  0
103104  1  0  0  0  0
104105  1  0  0  0  0
103106  1  0  0  0  0
106107  2  0  0  0  0
 90108  1  0  0  0  0
108109  1  0  0  0  0
 89110  1  0  0  0  0
110111  2  0  0  0  0
111112  1  0  0  0  0
112113  2  0  0  0  0
112114  1  0  0  0  0
114115  2  0  0  0  0
115116  1  0  0  0  0
116117  2  0  0  0  0
117118  1  0  0  0  0
118119  2  0  0  0  0
119120  1  0  0  0  0
120121  2  0  0  0  0
121122  1  0  0  0  0
122123  3  0  0  0  0
121124  1  0  0  0  0
124125  3  0  0  0  0
117126  1  0  0  0  0
126127  1  0  0  0  0
127128  1  0  0  0  0
128129  2  0  0  0  0
129130  1  0  0  0  0
130131  1  0  0  0  0
130132  1  0  0  0  0
 11  2  1  0  0  0  0
 23 17  1  0  0  0  0
 48 24  1  0  0  0  0
 65 52  1  0  0  0  0
109 68  1  0  0  0  0
120111  1  0  0  0  0
132126  1  0  0  0  0
 10  5  1  0  0  0  0
 22 18  1  0  0  0  0
 47 26  1  0  0  0  0
 65 58  1  0  0  0  0
 78 71  1  0  0  0  0
 86 79  1  0  0  0  0
108 87  2  0  0  0  0
119114  1  0  0  0  0
131127  1  0  0  0  0
 23  7  1  0  0  0  0
 35 28  1  0  0  0  0
 51 36  1  0  0  0  0
 99 92  1  0  0  0  0
107100  1  0  0  0  0
132116  1  0  0  0  0
 46 39  1  0  0  0  0
  1133  1  0  0  0  0
  6134  1  0  0  0  0
  9135  1  0  0  0  0
 17136  1  0  0  0  0
 18137  1  0  0  0  0
 19138  1  0  0  0  0
 20139  1  0  0  0  0
 21140  1  0  0  0  0
 22141  1  0  0  0  0
 22142  1  0  0  0  0
 23143  1  0  0  0  0
 25144  1  0  0  0  0
 29145  1  0  0  0  0
 30146  1  0  0  0  0
 33147  1  0  0  0  0
 33148  1  0  0  0  0
 34149  1  0  0  0  0
 34150  1  0  0  0  0
 34151  1  0  0  0  0
 40152  1  0  0  0  0
 41153  1  0  0  0  0
 44154  1  0  0  0  0
 44155  1  0  0  0  0
 45156  1  0  0  0  0
 45157  1  0  0  0  0
 45158  1  0  0  0  0
 49159  1  0  0  0  0
 61160  1  0  0  0  0
 61161  1  0  0  0  0
 62162  1  0  0  0  0
 62163  1  0  0  0  0
 62164  1  0  0  0  0
 66165  1  0  0  0  0
 66166  1  0  0  0  0
 67167  1  0  0  0  0
 67168  1  0  0  0  0
 67169  1  0  0  0  0
 72170  1  0  0  0  0
 73171  1  0  0  0  0
 76172  1  0  0  0  0
 76173  1  0  0  0  0
 76174  1  0  0  0  0
 77175  1  0  0  0  0
 78176  1  0  0  0  0
 80177  1  0  0  0  0
 81178  1  0  0  0  0
 84179  1  0  0  0  0
 84180  1  0  0  0  0
 84181  1  0  0  0  0
 85182  1  0  0  0  0
 86183  1  0  0  0  0
 93184  1  0  0  0  0
 94185  1  0  0  0  0
 97186  1  0  0  0  0
 97187  1  0  0  0  0
 97188  1  0  0  0  0
 98189  1  0  0  0  0
 99190  1  0  0  0  0
101191  1  0  0  0  0
102192  1  0  0  0  0
105193  1  0  0  0  0
105194  1  0  0  0  0
105195  1  0  0  0  0
106196  1  0  0  0  0
107197  1  0  0  0  0
110198  1  0  0  0  0
115199  1  0  0  0  0
118200  1  0  0  0  0
126201  1  0  0  0  0
127202  1  0  0  0  0
128203  1  0  0  0  0
129204  1  0  0  0  0
130205  1  0  0  0  0
131206  1  0  0  0  0
131207  1  0  0  0  0
132208  1  0  0  0  0
M  END
