
  xtb     02132208113D
 energy: -374.555980245848 gnorm: 0.000959504357 xtb: 6.4.1 (unknown)
230253  0     0  0            999 V2000
   -6.7525    2.8993   -4.6482 C   0  0  0  0  0  0  0  0  0  0  0  0
   -8.0167    2.3976   -4.8750 C   0  0  0  0  0  0  0  0  0  0  0  0
   -8.8967    1.8393   -3.8377 C   0  0  0  0  0  0  0  0  0  0  0  0
   -8.6651    1.7597   -2.6450 O   0  0  0  0  0  0  0  0  0  0  0  0
  -10.1660    1.5199   -4.5267 C   0  0  0  0  0  0  0  0  0  0  0  0
  -11.2955    0.9241   -3.9762 C   0  0  0  0  0  0  0  0  0  0  0  0
  -12.3019    0.6847   -4.8823 C   0  0  0  0  0  0  0  0  0  0  0  0
  -12.2004    1.0271   -6.2358 C   0  0  0  0  0  0  0  0  0  0  0  0
  -11.0985    1.6348   -6.7890 C   0  0  0  0  0  0  0  0  0  0  0  0
  -10.0613    1.8759   -5.8864 C   0  0  0  0  0  0  0  0  0  0  0  0
   -8.7315    2.4342   -6.1166 C   0  0  0  0  0  0  0  0  0  0  0  0
   -8.1817    2.7537   -7.3381 C   0  0  0  0  0  0  0  0  0  0  0  0
   -8.8653    2.6846   -8.5643 C   0  0  0  0  0  0  0  0  0  0  0  0
   -9.3517    2.6195   -9.6043 N   0  0  0  0  0  0  0  0  0  0  0  0
   -6.8301    3.0964   -7.5310 C   0  0  0  0  0  0  0  0  0  0  0  0
   -5.7323    3.3347   -7.7796 N   0  0  0  0  0  0  0  0  0  0  0  0
  -13.5710    0.4878   -6.5594 C   0  0  0  0  0  0  0  0  0  0  0  0
  -14.7246    1.5032   -6.7469 C   0  0  0  0  0  0  0  0  0  0  0  0
  -14.3572    2.7225   -5.9382 C   0  0  0  0  0  0  0  0  0  0  0  0
  -14.4531    2.4012   -4.6550 C   0  0  0  0  0  0  0  0  0  0  0  0
  -14.8884    0.9591   -4.5728 C   0  0  0  0  0  0  0  0  0  0  0  0
  -15.7789    0.8732   -5.8227 C   0  0  0  0  0  0  0  0  0  0  0  0
  -13.6857    0.1076   -5.0494 C   0  0  0  0  0  0  0  0  0  0  0  0
   -5.8432    2.4804   -3.6789 C   0  0  0  0  0  0  0  0  0  0  0  0
   -5.7240    1.2952   -2.9234 C   0  0  0  0  0  0  0  0  0  0  0  0
   -6.5043    0.1711   -2.9737 N   0  0  0  0  0  0  0  0  0  0  0  0
   -6.5750   -0.6002   -1.7892 C   0  0  0  0  0  0  0  0  0  0  0  0
   -6.9207    0.0150   -0.5874 C   0  0  0  0  0  0  0  0  0  0  0  0
   -6.9454   -0.7187    0.5763 C   0  0  0  0  0  0  0  0  0  0  0  0
   -6.6239   -2.0759    0.5622 C   0  0  0  0  0  0  0  0  0  0  0  0
   -6.6738   -2.9105    2.1116 S   0  0  0  0  0  0  0  0  0  0  0  0
   -5.8372   -4.4876    1.7794 C   0  0  0  0  0  0  0  0  0  0  0  0
   -6.3090   -2.6945   -0.6416 C   0  0  0  0  0  0  0  0  0  0  0  0
   -6.2848   -1.9589   -1.8107 C   0  0  0  0  0  0  0  0  0  0  0  0
   -7.1781   -0.2814   -4.1049 C   0  0  0  0  0  0  0  0  0  0  0  0
   -8.3613   -1.0150   -3.9573 C   0  0  0  0  0  0  0  0  0  0  0  0
   -9.0689   -1.4281   -5.0599 C   0  0  0  0  0  0  0  0  0  0  0  0
   -8.6237   -1.1235   -6.3473 C   0  0  0  0  0  0  0  0  0  0  0  0
   -9.6637   -1.6345   -7.6716 S   0  0  0  0  0  0  0  0  0  0  0  0
   -8.8182   -1.0487   -9.1662 C   0  0  0  0  0  0  0  0  0  0  0  0
   -7.4216   -0.4462   -6.5030 C   0  0  0  0  0  0  0  0  0  0  0  0
   -6.7093   -0.0301   -5.3937 C   0  0  0  0  0  0  0  0  0  0  0  0
   -4.5561    1.3423   -2.1212 C   0  0  0  0  0  0  0  0  0  0  0  0
   -3.8317    0.2481   -0.9994 S   0  0  0  0  0  0  0  0  0  0  0  0
   -2.4189    1.2853   -0.8397 C   0  0  0  0  0  0  0  0  0  0  0  0
   -2.5386    2.4532   -1.5839 C   0  0  0  0  0  0  0  0  0  0  0  0
   -1.6581    3.5177   -1.6744 N   0  0  0  0  0  0  0  0  0  0  0  0
   -0.8684    3.9603   -0.6196 C   0  0  0  0  0  0  0  0  0  0  0  0
    0.3110    4.6601   -0.8737 C   0  0  0  0  0  0  0  0  0  0  0  0
    1.1125    5.1038    0.1576 C   0  0  0  0  0  0  0  0  0  0  0  0
    0.7569    4.8522    1.4745 C   0  0  0  0  0  0  0  0  0  0  0  0
    1.7283    5.3608    2.8608 S   0  0  0  0  0  0  0  0  0  0  0  0
    2.9202    6.5318    2.1504 C   0  0  0  0  0  0  0  0  0  0  0  0
   -0.4232    4.1622    1.7388 C   0  0  0  0  0  0  0  0  0  0  0  0
   -1.2295    3.7314    0.7095 C   0  0  0  0  0  0  0  0  0  0  0  0
   -1.5902    4.1451   -2.9341 C   0  0  0  0  0  0  0  0  0  0  0  0
   -1.5191    3.3639   -4.0860 C   0  0  0  0  0  0  0  0  0  0  0  0
   -1.5798    3.9443   -5.3371 C   0  0  0  0  0  0  0  0  0  0  0  0
   -1.7036    5.3225   -5.4550 C   0  0  0  0  0  0  0  0  0  0  0  0
   -1.8532    6.1470   -7.0076 S   0  0  0  0  0  0  0  0  0  0  0  0
   -2.5530    4.8650   -8.0885 C   0  0  0  0  0  0  0  0  0  0  0  0
   -1.7083    6.1116   -4.3062 C   0  0  0  0  0  0  0  0  0  0  0  0
   -1.6580    5.5319   -3.0575 C   0  0  0  0  0  0  0  0  0  0  0  0
   -3.7620    2.4631   -2.3016 C   0  0  0  0  0  0  0  0  0  0  0  0
   -4.4670    3.5642   -3.4257 S   0  0  0  0  0  0  0  0  0  0  0  0
   -1.3265    0.8162   -0.0244 C   0  0  0  0  0  0  0  0  0  0  0  0
   -1.5336    0.0055    1.0840 C   0  0  0  0  0  0  0  0  0  0  0  0
   -2.7846   -0.3448    1.4410 F   0  0  0  0  0  0  0  0  0  0  0  0
   -0.5003   -0.5059    1.8683 C   0  0  0  0  0  0  0  0  0  0  0  0
   -0.8478   -1.4113    2.8013 F   0  0  0  0  0  0  0  0  0  0  0  0
    0.8318   -0.1765    1.6521 C   0  0  0  0  0  0  0  0  0  0  0  0
    1.0797    0.6125    0.4891 C   0  0  0  0  0  0  0  0  0  0  0  0
    2.3504    0.8952    0.1858 N   0  0  0  0  0  0  0  0  0  0  0  0
    2.6392    1.5254   -0.9265 C   0  0  0  0  0  0  0  0  0  0  0  0
    4.0758    1.8957   -1.1169 C   0  0  0  0  0  0  0  0  0  0  0  0
    4.3207    3.2911   -0.5381 C   0  0  0  0  0  0  0  0  0  0  0  0
    1.6035    1.8505   -1.8418 C   0  0  0  0  0  0  0  0  0  0  0  0
    0.3476    1.6296   -1.5361 N   0  0  0  0  0  0  0  0  0  0  0  0
    0.0373    1.0584   -0.3612 C   0  0  0  0  0  0  0  0  0  0  0  0
    1.8712    2.3994   -3.2108 C   0  0  0  0  0  0  0  0  0  0  0  0
    2.1823    1.2602   -4.1847 C   0  0  0  0  0  0  0  0  0  0  0  0
    1.9305   -0.6869    2.4100 C   0  0  0  0  0  0  0  0  0  0  0  0
    1.9327   -1.2036    3.7063 C   0  0  0  0  0  0  0  0  0  0  0  0
    0.9420   -1.0359    4.6473 N   0  0  0  0  0  0  0  0  0  0  0  0
    0.6986   -2.0738    5.5600 C   0  0  0  0  0  0  0  0  0  0  0  0
    0.4784   -1.8076    6.9076 C   0  0  0  0  0  0  0  0  0  0  0  0
    0.2599   -2.8469    7.7906 C   0  0  0  0  0  0  0  0  0  0  0  0
    0.2625   -4.1679    7.3617 C   0  0  0  0  0  0  0  0  0  0  0  0
    0.0477   -5.2994    8.3189 C   0  0  0  0  0  0  0  0  0  0  0  0
    0.4779   -4.4237    6.0117 C   0  0  0  0  0  0  0  0  0  0  0  0
    0.6891   -3.3951    5.1176 C   0  0  0  0  0  0  0  0  0  0  0  0
    0.3024    0.2042    4.8037 C   0  0  0  0  0  0  0  0  0  0  0  0
    0.9970    1.3919    4.5973 C   0  0  0  0  0  0  0  0  0  0  0  0
    0.3750    2.6059    4.8133 C   0  0  0  0  0  0  0  0  0  0  0  0
   -0.9506    2.6711    5.2223 C   0  0  0  0  0  0  0  0  0  0  0  0
   -1.6236    3.9878    5.4673 C   0  0  0  0  0  0  0  0  0  0  0  0
   -1.6433    1.4789    5.4079 C   0  0  0  0  0  0  0  0  0  0  0  0
   -1.0304    0.2596    5.2070 C   0  0  0  0  0  0  0  0  0  0  0  0
    3.1563   -1.8602    3.9793 C   0  0  0  0  0  0  0  0  0  0  0  0
    3.7173   -2.7933    5.3144 S   0  0  0  0  0  0  0  0  0  0  0  0
    5.2665   -3.0575    4.5043 C   0  0  0  0  0  0  0  0  0  0  0  0
    5.2915   -2.4860    3.2148 C   0  0  0  0  0  0  0  0  0  0  0  0
    6.2499   -2.6958    2.2602 N   0  0  0  0  0  0  0  0  0  0  0  0
    7.0059   -3.8761    2.2201 C   0  0  0  0  0  0  0  0  0  0  0  0
    6.4204   -5.1118    2.4956 C   0  0  0  0  0  0  0  0  0  0  0  0
    7.1841   -6.2593    2.4948 C   0  0  0  0  0  0  0  0  0  0  0  0
    8.5493   -6.2179    2.2190 C   0  0  0  0  0  0  0  0  0  0  0  0
    9.3729   -7.4660    2.2744 C   0  0  0  0  0  0  0  0  0  0  0  0
    9.1169   -4.9911    1.9046 C   0  0  0  0  0  0  0  0  0  0  0  0
    8.3619   -3.8328    1.9013 C   0  0  0  0  0  0  0  0  0  0  0  0
    6.5103   -1.7070    1.2935 C   0  0  0  0  0  0  0  0  0  0  0  0
    6.5724   -0.3644    1.6500 C   0  0  0  0  0  0  0  0  0  0  0  0
    6.9078    0.5842    0.7035 C   0  0  0  0  0  0  0  0  0  0  0  0
    7.1832    0.2238   -0.6101 C   0  0  0  0  0  0  0  0  0  0  0  0
    7.5993    1.2412   -1.6288 C   0  0  0  0  0  0  0  0  0  0  0  0
    7.0906   -1.1188   -0.9612 C   0  0  0  0  0  0  0  0  0  0  0  0
    6.7570   -2.0769   -0.0261 C   0  0  0  0  0  0  0  0  0  0  0  0
    4.0904   -1.7823    2.9559 C   0  0  0  0  0  0  0  0  0  0  0  0
    3.4956   -0.8329    1.6243 S   0  0  0  0  0  0  0  0  0  0  0  0
    6.2000   -3.8352    5.1968 C   0  0  0  0  0  0  0  0  0  0  0  0
    7.5622   -3.8558    4.9958 C   0  0  0  0  0  0  0  0  0  0  0  0
    8.3350   -2.7272    4.4534 C   0  0  0  0  0  0  0  0  0  0  0  0
    7.9069   -1.6520    4.0769 O   0  0  0  0  0  0  0  0  0  0  0  0
    9.7561   -3.1158    4.5849 C   0  0  0  0  0  0  0  0  0  0  0  0
   10.8685   -2.3686    4.2124 C   0  0  0  0  0  0  0  0  0  0  0  0
   12.0693   -2.9988    4.4410 C   0  0  0  0  0  0  0  0  0  0  0  0
   12.1577   -4.2752    5.0086 C   0  0  0  0  0  0  0  0  0  0  0  0
   11.0659   -5.0214    5.3864 C   0  0  0  0  0  0  0  0  0  0  0  0
    9.8372   -4.4007    5.1551 C   0  0  0  0  0  0  0  0  0  0  0  0
    8.4794   -4.8858    5.3939 C   0  0  0  0  0  0  0  0  0  0  0  0
    8.1321   -6.1623    5.7664 C   0  0  0  0  0  0  0  0  0  0  0  0
    6.8054   -6.6295    5.8406 C   0  0  0  0  0  0  0  0  0  0  0  0
    5.7549   -7.0923    5.8921 N   0  0  0  0  0  0  0  0  0  0  0  0
    9.0515   -7.1906    6.0401 C   0  0  0  0  0  0  0  0  0  0  0  0
    9.7498   -8.0782    6.2553 N   0  0  0  0  0  0  0  0  0  0  0  0
   13.6655   -4.2815    4.9589 C   0  0  0  0  0  0  0  0  0  0  0  0
   14.4344   -4.0159    6.2765 C   0  0  0  0  0  0  0  0  0  0  0  0
   13.5235   -3.1849    7.1454 C   0  0  0  0  0  0  0  0  0  0  0  0
   13.4403   -1.9764    6.6054 C   0  0  0  0  0  0  0  0  0  0  0  0
   14.2939   -1.9686    5.3614 C   0  0  0  0  0  0  0  0  0  0  0  0
   15.4112   -2.9317    5.7936 C   0  0  0  0  0  0  0  0  0  0  0  0
   13.5673   -2.8588    4.3233 C   0  0  0  0  0  0  0  0  0  0  0  0
   -6.3988    3.7000   -5.2872 H   0  0  0  0  0  0  0  0  0  0  0  0
  -11.3330    0.6680   -2.9287 H   0  0  0  0  0  0  0  0  0  0  0  0
  -11.0357    1.9007   -7.8314 H   0  0  0  0  0  0  0  0  0  0  0  0
  -13.6004   -0.3181   -7.2900 H   0  0  0  0  0  0  0  0  0  0  0  0
  -15.0071    1.6804   -7.7813 H   0  0  0  0  0  0  0  0  0  0  0  0
  -14.0188    3.6470   -6.3684 H   0  0  0  0  0  0  0  0  0  0  0  0
  -14.2104    3.0034   -3.7990 H   0  0  0  0  0  0  0  0  0  0  0  0
  -15.3208    0.6414   -3.6274 H   0  0  0  0  0  0  0  0  0  0  0  0
  -16.6815    1.4769   -5.7394 H   0  0  0  0  0  0  0  0  0  0  0  0
  -16.0425   -0.1471   -6.0982 H   0  0  0  0  0  0  0  0  0  0  0  0
  -13.7971   -0.9454   -4.7975 H   0  0  0  0  0  0  0  0  0  0  0  0
   -7.1818    1.0616   -0.5912 H   0  0  0  0  0  0  0  0  0  0  0  0
   -7.2094   -0.2527    1.5127 H   0  0  0  0  0  0  0  0  0  0  0  0
   -4.8663   -4.2946    1.3333 H   0  0  0  0  0  0  0  0  0  0  0  0
   -5.7113   -4.9617    2.7479 H   0  0  0  0  0  0  0  0  0  0  0  0
   -6.4513   -5.1165    1.1410 H   0  0  0  0  0  0  0  0  0  0  0  0
   -6.0750   -3.7459   -0.6826 H   0  0  0  0  0  0  0  0  0  0  0  0
   -6.0310   -2.4375   -2.7454 H   0  0  0  0  0  0  0  0  0  0  0  0
   -8.7322   -1.2256   -2.9663 H   0  0  0  0  0  0  0  0  0  0  0  0
   -9.9938   -1.9712   -4.9428 H   0  0  0  0  0  0  0  0  0  0  0  0
   -9.4369   -1.3770   -9.9954 H   0  0  0  0  0  0  0  0  0  0  0  0
   -7.8346   -1.5030   -9.2398 H   0  0  0  0  0  0  0  0  0  0  0  0
   -8.7585    0.0355   -9.1652 H   0  0  0  0  0  0  0  0  0  0  0  0
   -7.0306   -0.2210   -7.4827 H   0  0  0  0  0  0  0  0  0  0  0  0
   -5.7746    0.4918   -5.5357 H   0  0  0  0  0  0  0  0  0  0  0  0
    0.6107    4.8508   -1.8926 H   0  0  0  0  0  0  0  0  0  0  0  0
    2.0159    5.6414   -0.0820 H   0  0  0  0  0  0  0  0  0  0  0  0
    3.6361    6.0088    1.5224 H   0  0  0  0  0  0  0  0  0  0  0  0
    3.4329    6.9764    2.9978 H   0  0  0  0  0  0  0  0  0  0  0  0
    2.3916    7.2995    1.5930 H   0  0  0  0  0  0  0  0  0  0  0  0
   -0.7075    3.9704    2.7601 H   0  0  0  0  0  0  0  0  0  0  0  0
   -2.1544    3.2259    0.9392 H   0  0  0  0  0  0  0  0  0  0  0  0
   -1.4385    2.2911   -3.9887 H   0  0  0  0  0  0  0  0  0  0  0  0
   -1.5399    3.3163   -6.2125 H   0  0  0  0  0  0  0  0  0  0  0  0
   -3.4016    4.3946   -7.6013 H   0  0  0  0  0  0  0  0  0  0  0  0
   -2.8853    5.3861   -8.9810 H   0  0  0  0  0  0  0  0  0  0  0  0
   -1.7928    4.1366   -8.3553 H   0  0  0  0  0  0  0  0  0  0  0  0
   -1.7855    7.1831   -4.4073 H   0  0  0  0  0  0  0  0  0  0  0  0
   -1.7036    6.1455   -2.1703 H   0  0  0  0  0  0  0  0  0  0  0  0
    4.6832    1.1708   -0.5746 H   0  0  0  0  0  0  0  0  0  0  0  0
    4.3505    1.8764   -2.1706 H   0  0  0  0  0  0  0  0  0  0  0  0
    5.3675    3.5644   -0.6431 H   0  0  0  0  0  0  0  0  0  0  0  0
    3.7134    4.0328   -1.0534 H   0  0  0  0  0  0  0  0  0  0  0  0
    4.0589    3.3005    0.5173 H   0  0  0  0  0  0  0  0  0  0  0  0
    0.9776    2.9225   -3.5528 H   0  0  0  0  0  0  0  0  0  0  0  0
    2.7038    3.1027   -3.1838 H   0  0  0  0  0  0  0  0  0  0  0  0
    3.0556    0.6971   -3.8620 H   0  0  0  0  0  0  0  0  0  0  0  0
    2.3716    1.6594   -5.1781 H   0  0  0  0  0  0  0  0  0  0  0  0
    1.3376    0.5779   -4.2391 H   0  0  0  0  0  0  0  0  0  0  0  0
    0.4885   -0.7866    7.2595 H   0  0  0  0  0  0  0  0  0  0  0  0
    0.0954   -2.6251    8.8352 H   0  0  0  0  0  0  0  0  0  0  0  0
    0.9425   -5.9186    8.3742 H   0  0  0  0  0  0  0  0  0  0  0  0
   -0.1798   -4.9301    9.3155 H   0  0  0  0  0  0  0  0  0  0  0  0
   -0.7732   -5.9322    7.9845 H   0  0  0  0  0  0  0  0  0  0  0  0
    0.4767   -5.4444    5.6582 H   0  0  0  0  0  0  0  0  0  0  0  0
    0.8381   -3.6038    4.0685 H   0  0  0  0  0  0  0  0  0  0  0  0
    2.0315    1.3658    4.2886 H   0  0  0  0  0  0  0  0  0  0  0  0
    0.9381    3.5164    4.6707 H   0  0  0  0  0  0  0  0  0  0  0  0
   -2.5155    4.0834    4.8486 H   0  0  0  0  0  0  0  0  0  0  0  0
   -1.9355    4.0644    6.5084 H   0  0  0  0  0  0  0  0  0  0  0  0
   -0.9520    4.8139    5.2460 H   0  0  0  0  0  0  0  0  0  0  0  0
   -2.6786    1.5075    5.7155 H   0  0  0  0  0  0  0  0  0  0  0  0
   -1.5777   -0.6590    5.3538 H   0  0  0  0  0  0  0  0  0  0  0  0
    5.3648   -5.1689    2.7153 H   0  0  0  0  0  0  0  0  0  0  0  0
    6.7155   -7.2063    2.7191 H   0  0  0  0  0  0  0  0  0  0  0  0
    9.5324   -7.7664    3.3107 H   0  0  0  0  0  0  0  0  0  0  0  0
   10.3447   -7.3122    1.8124 H   0  0  0  0  0  0  0  0  0  0  0  0
    8.8650   -8.2852    1.7694 H   0  0  0  0  0  0  0  0  0  0  0  0
   10.1711   -4.9329    1.6746 H   0  0  0  0  0  0  0  0  0  0  0  0
    8.8217   -2.8861    1.6609 H   0  0  0  0  0  0  0  0  0  0  0  0
    6.4081   -0.0828    2.6774 H   0  0  0  0  0  0  0  0  0  0  0  0
    6.9752    1.6215    0.9979 H   0  0  0  0  0  0  0  0  0  0  0  0
    7.4511    2.2513   -1.2565 H   0  0  0  0  0  0  0  0  0  0  0  0
    8.6554    1.1178   -1.8689 H   0  0  0  0  0  0  0  0  0  0  0  0
    7.0344    1.1177   -2.5510 H   0  0  0  0  0  0  0  0  0  0  0  0
    7.2895   -1.4169   -1.9806 H   0  0  0  0  0  0  0  0  0  0  0  0
    6.6969   -3.1176   -0.3093 H   0  0  0  0  0  0  0  0  0  0  0  0
    5.7895   -4.4519    5.9879 H   0  0  0  0  0  0  0  0  0  0  0  0
   10.7581   -1.3869    3.7782 H   0  0  0  0  0  0  0  0  0  0  0  0
   11.1476   -6.0000    5.8299 H   0  0  0  0  0  0  0  0  0  0  0  0
   14.1204   -5.0739    4.3673 H   0  0  0  0  0  0  0  0  0  0  0  0
   14.8594   -4.9035    6.7377 H   0  0  0  0  0  0  0  0  0  0  0  0
   13.0028   -3.5665    8.0041 H   0  0  0  0  0  0  0  0  0  0  0  0
   12.8358   -1.1469    6.9225 H   0  0  0  0  0  0  0  0  0  0  0  0
   14.5918   -0.9915    4.9895 H   0  0  0  0  0  0  0  0  0  0  0  0
   16.0469   -3.2561    4.9707 H   0  0  0  0  0  0  0  0  0  0  0  0
   16.0265   -2.5300    6.5974 H   0  0  0  0  0  0  0  0  0  0  0  0
   13.9580   -2.7238    3.3161 H   0  0  0  0  0  0  0  0  0  0  0  0
  1  2  2  0  0  0  0
  2  3  1  0  0  0  0
  3  4  2  0  0  0  0
  3  5  1  0  0  0  0
  5  6  2  0  0  0  0
  6  7  1  0  0  0  0
  7  8  2  0  0  0  0
  8  9  1  0  0  0  0
  9 10  2  0  0  0  0
 10 11  1  0  0  0  0
 11 12  2  0  0  0  0
 12 13  1  0  0  0  0
 13 14  3  0  0  0  0
 12 15  1  0  0  0  0
 15 16  3  0  0  0  0
  8 17  1  0  0  0  0
 17 18  1  0  0  0  0
 18 19  1  0  0  0  0
 19 20  2  0  0  0  0
 20 21  1  0  0  0  0
 21 22  1  0  0  0  0
 21 23  1  0  0  0  0
  1 24  1  0  0  0  0
 24 25  2  0  0  0  0
 25 26  1  0  0  0  0
 26 27  1  0  0  0  0
 27 28  2  0  0  0  0
 28 29  1  0  0  0  0
 29 30  2  0  0  0  0
 30 31  1  0  0  0  0
 31 32  1  0  0  0  0
 30 33  1  0  0  0  0
 33 34  2  0  0  0  0
 26 35  1  0  0  0  0
 35 36  2  0  0  0  0
 36 37  1  0  0  0  0
 37 38  2  0  0  0  0
 38 39  1  0  0  0  0
 39 40  1  0  0  0  0
 38 41  1  0  0  0  0
 41 42  2  0  0  0  0
 25 43  1  0  0  0  0
 43 44  1  0  0  0  0
 44 45  1  0  0  0  0
 45 46  2  0  0  0  0
 46 47  1  0  0  0  0
 47 48  1  0  0  0  0
 48 49  2  0  0  0  0
 49 50  1  0  0  0  0
 50 51  2  0  0  0  0
 51 52  1  0  0  0  0
 52 53  1  0  0  0  0
 51 54  1  0  0  0  0
 54 55  2  0  0  0  0
 47 56  1  0  0  0  0
 56 57  2  0  0  0  0
 57 58  1  0  0  0  0
 58 59  2  0  0  0  0
 59 60  1  0  0  0  0
 60 61  1  0  0  0  0
 59 62  1  0  0  0  0
 62 63  2  0  0  0  0
 46 64  1  0  0  0  0
 64 65  1  0  0  0  0
 45 66  1  0  0  0  0
 66 67  2  0  0  0  0
 67 68  1  0  0  0  0
 67 69  1  0  0  0  0
 69 70  1  0  0  0  0
 69 71  2  0  0  0  0
 71 72  1  0  0  0  0
 72 73  2  0  0  0  0
 73 74  1  0  0  0  0
 74 75  1  0  0  0  0
 75 76  1  0  0  0  0
 74 77  2  0  0  0  0
 77 78  1  0  0  0  0
 78 79  2  0  0  0  0
 77 80  1  0  0  0  0
 80 81  1  0  0  0  0
 71 82  1  0  0  0  0
 82 83  2  0  0  0  0
 83 84  1  0  0  0  0
 84 85  1  0  0  0  0
 85 86  2  0  0  0  0
 86 87  1  0  0  0  0
 87 88  2  0  0  0  0
 88 89  1  0  0  0  0
 88 90  1  0  0  0  0
 90 91  2  0  0  0  0
 84 92  1  0  0  0  0
 92 93  2  0  0  0  0
 93 94  1  0  0  0  0
 94 95  2  0  0  0  0
 95 96  1  0  0  0  0
 95 97  1  0  0  0  0
 97 98  2  0  0  0  0
 83 99  1  0  0  0  0
 99100  1  0  0  0  0
100101  1  0  0  0  0
101102  2  0  0  0  0
102103  1  0  0  0  0
103104  1  0  0  0  0
104105  2  0  0  0  0
105106  1  0  0  0  0
106107  2  0  0  0  0
107108  1  0  0  0  0
107109  1  0  0  0  0
109110  2  0  0  0  0
103111  1  0  0  0  0
111112  2  0  0  0  0
112113  1  0  0  0  0
113114  2  0  0  0  0
114115  1  0  0  0  0
114116  1  0  0  0  0
116117  2  0  0  0  0
102118  1  0  0  0  0
118119  1  0  0  0  0
101120  1  0  0  0  0
120121  2  0  0  0  0
121122  1  0  0  0  0
122123  2  0  0  0  0
122124  1  0  0  0  0
124125  2  0  0  0  0
125126  1  0  0  0  0
126127  2  0  0  0  0
127128  1  0  0  0  0
128129  2  0  0  0  0
129130  1  0  0  0  0
130131  2  0  0  0  0
131132  1  0  0  0  0
132133  3  0  0  0  0
131134  1  0  0  0  0
134135  3  0  0  0  0
127136  1  0  0  0  0
136137  1  0  0  0  0
137138  1  0  0  0  0
138139  2  0  0  0  0
139140  1  0  0  0  0
140141  1  0  0  0  0
140142  1  0  0  0  0
 11  2  1  0  0  0  0
 23 17  1  0  0  0  0
 65 24  1  0  0  0  0
 79 66  1  0  0  0  0
119 82  1  0  0  0  0
130121  1  0  0  0  0
142136  1  0  0  0  0
 10  5  1  0  0  0  0
 22 18  1  0  0  0  0
 34 27  1  0  0  0  0
 42 35  1  0  0  0  0
 64 43  2  0  0  0  0
 79 72  1  0  0  0  0
 91 85  1  0  0  0  0
 98 92  1  0  0  0  0
118 99  2  0  0  0  0
129124  1  0  0  0  0
141137  1  0  0  0  0
 23  7  1  0  0  0  0
 55 48  1  0  0  0  0
 63 56  1  0  0  0  0
110104  1  0  0  0  0
117111  1  0  0  0  0
142126  1  0  0  0  0
  1143  1  0  0  0  0
  6144  1  0  0  0  0
  9145  1  0  0  0  0
 17146  1  0  0  0  0
 18147  1  0  0  0  0
 19148  1  0  0  0  0
 20149  1  0  0  0  0
 21150  1  0  0  0  0
 22151  1  0  0  0  0
 22152  1  0  0  0  0
 23153  1  0  0  0  0
 28154  1  0  0  0  0
 29155  1  0  0  0  0
 32156  1  0  0  0  0
 32157  1  0  0  0  0
 32158  1  0  0  0  0
 33159  1  0  0  0  0
 34160  1  0  0  0  0
 36161  1  0  0  0  0
 37162  1  0  0  0  0
 40163  1  0  0  0  0
 40164  1  0  0  0  0
 40165  1  0  0  0  0
 41166  1  0  0  0  0
 42167  1  0  0  0  0
 49168  1  0  0  0  0
 50169  1  0  0  0  0
 53170  1  0  0  0  0
 53171  1  0  0  0  0
 53172  1  0  0  0  0
 54173  1  0  0  0  0
 55174  1  0  0  0  0
 57175  1  0  0  0  0
 58176  1  0  0  0  0
 61177  1  0  0  0  0
 61178  1  0  0  0  0
 61179  1  0  0  0  0
 62180  1  0  0  0  0
 63181  1  0  0  0  0
 75182  1  0  0  0  0
 75183  1  0  0  0  0
 76184  1  0  0  0  0
 76185  1  0  0  0  0
 76186  1  0  0  0  0
 80187  1  0  0  0  0
 80188  1  0  0  0  0
 81189  1  0  0  0  0
 81190  1  0  0  0  0
 81191  1  0  0  0  0
 86192  1  0  0  0  0
 87193  1  0  0  0  0
 89194  1  0  0  0  0
 89195  1  0  0  0  0
 89196  1  0  0  0  0
 90197  1  0  0  0  0
 91198  1  0  0  0  0
 93199  1  0  0  0  0
 94200  1  0  0  0  0
 96201  1  0  0  0  0
 96202  1  0  0  0  0
 96203  1  0  0  0  0
 97204  1  0  0  0  0
 98205  1  0  0  0  0
105206  1  0  0  0  0
106207  1  0  0  0  0
108208  1  0  0  0  0
108209  1  0  0  0  0
108210  1  0  0  0  0
109211  1  0  0  0  0
110212  1  0  0  0  0
112213  1  0  0  0  0
113214  1  0  0  0  0
115215  1  0  0  0  0
115216  1  0  0  0  0
115217  1  0  0  0  0
116218  1  0  0  0  0
117219  1  0  0  0  0
120220  1  0  0  0  0
125221  1  0  0  0  0
128222  1  0  0  0  0
136223  1  0  0  0  0
137224  1  0  0  0  0
138225  1  0  0  0  0
139226  1  0  0  0  0
140227  1  0  0  0  0
141228  1  0  0  0  0
141229  1  0  0  0  0
142230  1  0  0  0  0
M  END
