
  xtb     02132200133D
 energy: -254.613826194922 gnorm: 0.000719272564 xtb: 6.4.1 (unknown)
155171  0     0  0            999 V2000
   -4.5803   -0.0369   -1.3349 C   0  0  0  0  0  0  0  0  0  0  0  0
   -5.4897    0.8813   -1.7343 C   0  0  0  0  0  0  0  0  0  0  0  0
   -5.1813    2.1565   -2.4457 C   0  0  0  0  0  0  0  0  0  0  0  0
   -4.1329    2.7593   -2.4874 O   0  0  0  0  0  0  0  0  0  0  0  0
   -6.4261    2.5124   -3.1538 C   0  0  0  0  0  0  0  0  0  0  0  0
   -6.6012    3.5683   -4.0471 C   0  0  0  0  0  0  0  0  0  0  0  0
   -7.8692    3.6564   -4.5681 C   0  0  0  0  0  0  0  0  0  0  0  0
   -8.8942    2.7607   -4.2299 C   0  0  0  0  0  0  0  0  0  0  0  0
   -8.7396    1.7198   -3.3465 C   0  0  0  0  0  0  0  0  0  0  0  0
   -7.4547    1.6130   -2.8035 C   0  0  0  0  0  0  0  0  0  0  0  0
   -6.9251    0.6614   -1.8382 C   0  0  0  0  0  0  0  0  0  0  0  0
   -7.6449   -0.2050   -1.0625 C   0  0  0  0  0  0  0  0  0  0  0  0
   -7.0815   -0.9441   -0.0006 C   0  0  0  0  0  0  0  0  0  0  0  0
   -6.6951   -1.5154    0.9167 N   0  0  0  0  0  0  0  0  0  0  0  0
   -9.0392   -0.3914   -1.1601 C   0  0  0  0  0  0  0  0  0  0  0  0
  -10.1695   -0.5862   -1.2040 N   0  0  0  0  0  0  0  0  0  0  0  0
   -9.8917    3.4348   -5.1384 C   0  0  0  0  0  0  0  0  0  0  0  0
  -10.1866    2.7321   -6.4806 C   0  0  0  0  0  0  0  0  0  0  0  0
  -10.7916    3.8229   -7.3347 C   0  0  0  0  0  0  0  0  0  0  0  0
   -9.8217    4.6703   -7.6539 C   0  0  0  0  0  0  0  0  0  0  0  0
   -8.5448    4.1667   -7.0205 C   0  0  0  0  0  0  0  0  0  0  0  0
   -8.7873    2.6542   -7.1048 C   0  0  0  0  0  0  0  0  0  0  0  0
   -8.7503    4.4335   -5.5139 C   0  0  0  0  0  0  0  0  0  0  0  0
   -3.1529    0.1696   -1.2207 C   0  0  0  0  0  0  0  0  0  0  0  0
   -2.6028    1.3273   -0.6591 C   0  0  0  0  0  0  0  0  0  0  0  0
   -1.2372    1.4031   -0.5029 C   0  0  0  0  0  0  0  0  0  0  0  0
   -0.4284    0.3397   -0.9190 C   0  0  0  0  0  0  0  0  0  0  0  0
   -1.0835   -0.7413   -1.5383 C   0  0  0  0  0  0  0  0  0  0  0  0
   -2.3824   -0.8368   -1.6496 N   0  0  0  0  0  0  0  0  0  0  0  0
    0.9923    0.3608   -0.7015 C   0  0  0  0  0  0  0  0  0  0  0  0
    1.8632   -0.6956   -0.4561 C   0  0  0  0  0  0  0  0  0  0  0  0
    1.5020   -2.0165   -0.2591 N   0  0  0  0  0  0  0  0  0  0  0  0
    0.2889   -2.3418    0.3696 C   0  0  0  0  0  0  0  0  0  0  0  0
   -0.2549   -1.5225    1.3535 C   0  0  0  0  0  0  0  0  0  0  0  0
   -1.4893   -1.8037    1.9042 C   0  0  0  0  0  0  0  0  0  0  0  0
   -2.1990   -2.9216    1.4869 C   0  0  0  0  0  0  0  0  0  0  0  0
   -3.7922   -3.3677    2.1001 S   0  0  0  0  0  0  0  0  0  0  0  0
   -4.3500   -1.8787    2.9697 C   0  0  0  0  0  0  0  0  0  0  0  0
   -1.6339   -3.7738    0.5406 C   0  0  0  0  0  0  0  0  0  0  0  0
   -0.4097   -3.4866   -0.0161 C   0  0  0  0  0  0  0  0  0  0  0  0
    2.4287   -3.0270   -0.5503 C   0  0  0  0  0  0  0  0  0  0  0  0
    3.2399   -2.9356   -1.6832 C   0  0  0  0  0  0  0  0  0  0  0  0
    4.1751   -3.9100   -1.9491 C   0  0  0  0  0  0  0  0  0  0  0  0
    4.3176   -5.0080   -1.1023 C   0  0  0  0  0  0  0  0  0  0  0  0
    5.5576   -6.1803   -1.5438 S   0  0  0  0  0  0  0  0  0  0  0  0
    5.3966   -7.5019   -0.3123 C   0  0  0  0  0  0  0  0  0  0  0  0
    3.4897   -5.1195    0.0075 C   0  0  0  0  0  0  0  0  0  0  0  0
    2.5570   -4.1383    0.2785 C   0  0  0  0  0  0  0  0  0  0  0  0
    3.1896   -0.2221   -0.2937 C   0  0  0  0  0  0  0  0  0  0  0  0
    4.7098   -0.9838   -0.0055 S   0  0  0  0  0  0  0  0  0  0  0  0
    5.5065    0.5769    0.1603 C   0  0  0  0  0  0  0  0  0  0  0  0
    4.6276    1.6302   -0.1144 C   0  0  0  0  0  0  0  0  0  0  0  0
    4.9363    2.9785   -0.1101 N   0  0  0  0  0  0  0  0  0  0  0  0
    3.9988    3.8606    0.4513 C   0  0  0  0  0  0  0  0  0  0  0  0
    3.6860    5.0675   -0.1657 C   0  0  0  0  0  0  0  0  0  0  0  0
    2.7399    5.9129    0.3804 C   0  0  0  0  0  0  0  0  0  0  0  0
    2.0824    5.5586    1.5508 C   0  0  0  0  0  0  0  0  0  0  0  0
    0.8430    6.5425    2.3313 S   0  0  0  0  0  0  0  0  0  0  0  0
    0.6165    7.9447    1.2013 C   0  0  0  0  0  0  0  0  0  0  0  0
    2.4001    4.3540    2.1765 C   0  0  0  0  0  0  0  0  0  0  0  0
    3.3491    3.5159    1.6380 C   0  0  0  0  0  0  0  0  0  0  0  0
    6.0579    3.4716   -0.7830 C   0  0  0  0  0  0  0  0  0  0  0  0
    6.5207    2.8525   -1.9471 C   0  0  0  0  0  0  0  0  0  0  0  0
    7.6234    3.3470   -2.6046 C   0  0  0  0  0  0  0  0  0  0  0  0
    8.2882    4.4760   -2.1265 C   0  0  0  0  0  0  0  0  0  0  0  0
    9.6836    5.0157   -3.0614 S   0  0  0  0  0  0  0  0  0  0  0  0
   10.2815    6.4733   -2.1599 C   0  0  0  0  0  0  0  0  0  0  0  0
    7.8286    5.0980   -0.9729 C   0  0  0  0  0  0  0  0  0  0  0  0
    6.7269    4.5968   -0.3072 C   0  0  0  0  0  0  0  0  0  0  0  0
    3.3143    1.1558   -0.3390 C   0  0  0  0  0  0  0  0  0  0  0  0
    1.7967    1.9238   -0.6334 S   0  0  0  0  0  0  0  0  0  0  0  0
    6.8850    0.7051    0.4820 C   0  0  0  0  0  0  0  0  0  0  0  0
    7.7396   -0.2124    1.0128 C   0  0  0  0  0  0  0  0  0  0  0  0
    7.4333   -1.4758    1.5885 C   0  0  0  0  0  0  0  0  0  0  0  0
    6.2837   -1.7646    2.2610 C   0  0  0  0  0  0  0  0  0  0  0  0
    5.9386   -3.0749    2.6360 C   0  0  0  0  0  0  0  0  0  0  0  0
    4.6949   -3.4533    3.0716 C   0  0  0  0  0  0  0  0  0  0  0  0
    3.5294   -2.5542    3.2233 C   0  0  0  0  0  0  0  0  0  0  0  0
    3.4660   -1.3563    3.0172 O   0  0  0  0  0  0  0  0  0  0  0  0
    2.4067   -3.4157    3.6439 C   0  0  0  0  0  0  0  0  0  0  0  0
    1.1003   -3.0166    3.9165 C   0  0  0  0  0  0  0  0  0  0  0  0
    0.2488   -4.0489    4.2300 C   0  0  0  0  0  0  0  0  0  0  0  0
    0.6705   -5.3841    4.2827 C   0  0  0  0  0  0  0  0  0  0  0  0
    1.9595   -5.7910    4.0311 C   0  0  0  0  0  0  0  0  0  0  0  0
    2.8397   -4.7556    3.7012 C   0  0  0  0  0  0  0  0  0  0  0  0
    4.2601   -4.8008    3.3623 C   0  0  0  0  0  0  0  0  0  0  0  0
    5.0231   -5.9418    3.3137 C   0  0  0  0  0  0  0  0  0  0  0  0
    4.5301   -7.2463    3.5172 C   0  0  0  0  0  0  0  0  0  0  0  0
    4.2070   -8.3433    3.6297 N   0  0  0  0  0  0  0  0  0  0  0  0
    6.4000   -6.0060    3.0182 C   0  0  0  0  0  0  0  0  0  0  0  0
    7.5132   -6.1755    2.7867 N   0  0  0  0  0  0  0  0  0  0  0  0
   -0.6996   -5.8866    4.6645 C   0  0  0  0  0  0  0  0  0  0  0  0
   -0.9189   -6.2544    6.1470 C   0  0  0  0  0  0  0  0  0  0  0  0
   -2.4229   -6.2406    6.3004 C   0  0  0  0  0  0  0  0  0  0  0  0
   -2.8231   -4.9767    6.2475 C   0  0  0  0  0  0  0  0  0  0  0  0
   -1.5960   -4.1147    6.0588 C   0  0  0  0  0  0  0  0  0  0  0  0
   -0.5700   -4.9362    6.8500 C   0  0  0  0  0  0  0  0  0  0  0  0
   -1.1696   -4.3986    4.6040 C   0  0  0  0  0  0  0  0  0  0  0  0
   -4.9026   -1.0532   -1.1394 H   0  0  0  0  0  0  0  0  0  0  0  0
   -5.7873    4.2371   -4.2797 H   0  0  0  0  0  0  0  0  0  0  0  0
   -9.5322    1.0349   -3.0939 H   0  0  0  0  0  0  0  0  0  0  0  0
  -10.7863    3.8224   -4.6550 H   0  0  0  0  0  0  0  0  0  0  0  0
  -10.7507    1.8074   -6.3958 H   0  0  0  0  0  0  0  0  0  0  0  0
  -11.8382    3.8930   -7.5655 H   0  0  0  0  0  0  0  0  0  0  0  0
   -9.8961    5.5896   -8.2044 H   0  0  0  0  0  0  0  0  0  0  0  0
   -7.6124    4.5484   -7.4276 H   0  0  0  0  0  0  0  0  0  0  0  0
   -8.0782    2.0579   -6.5336 H   0  0  0  0  0  0  0  0  0  0  0  0
   -8.8153    2.2992   -8.1336 H   0  0  0  0  0  0  0  0  0  0  0  0
   -8.8836    5.4885   -5.2826 H   0  0  0  0  0  0  0  0  0  0  0  0
   -3.2412    2.1226   -0.3132 H   0  0  0  0  0  0  0  0  0  0  0  0
   -0.7843    2.2684   -0.0395 H   0  0  0  0  0  0  0  0  0  0  0  0
   -0.5189   -1.5511   -1.9787 H   0  0  0  0  0  0  0  0  0  0  0  0
    0.2919   -0.6533    1.6877 H   0  0  0  0  0  0  0  0  0  0  0  0
   -1.8853   -1.1450    2.6606 H   0  0  0  0  0  0  0  0  0  0  0  0
   -3.8041   -1.7554    3.9013 H   0  0  0  0  0  0  0  0  0  0  0  0
   -4.2333   -1.0171    2.3196 H   0  0  0  0  0  0  0  0  0  0  0  0
   -5.4043   -2.0401    3.1686 H   0  0  0  0  0  0  0  0  0  0  0  0
   -2.1818   -4.6501    0.2314 H   0  0  0  0  0  0  0  0  0  0  0  0
    0.0059   -4.1364   -0.7717 H   0  0  0  0  0  0  0  0  0  0  0  0
    3.1252   -2.1002   -2.3581 H   0  0  0  0  0  0  0  0  0  0  0  0
    4.8050   -3.8373   -2.8220 H   0  0  0  0  0  0  0  0  0  0  0  0
    6.0856   -8.2784   -0.6295 H   0  0  0  0  0  0  0  0  0  0  0  0
    5.6888   -7.1402    0.6683 H   0  0  0  0  0  0  0  0  0  0  0  0
    4.3823   -7.8893   -0.3079 H   0  0  0  0  0  0  0  0  0  0  0  0
    3.5601   -5.9666    0.6712 H   0  0  0  0  0  0  0  0  0  0  0  0
    1.9189   -4.2327    1.1443 H   0  0  0  0  0  0  0  0  0  0  0  0
    4.1790    5.3408   -1.0868 H   0  0  0  0  0  0  0  0  0  0  0  0
    2.5181    6.8381   -0.1261 H   0  0  0  0  0  0  0  0  0  0  0  0
    1.5300    8.5294    1.1425 H   0  0  0  0  0  0  0  0  0  0  0  0
   -0.1759    8.5450    1.6376 H   0  0  0  0  0  0  0  0  0  0  0  0
    0.3112    7.5855    0.2229 H   0  0  0  0  0  0  0  0  0  0  0  0
    1.8937    4.0882    3.0916 H   0  0  0  0  0  0  0  0  0  0  0  0
    3.5922    2.5858    2.1299 H   0  0  0  0  0  0  0  0  0  0  0  0
    6.0075    1.9830   -2.3290 H   0  0  0  0  0  0  0  0  0  0  0  0
    7.9805    2.8703   -3.5043 H   0  0  0  0  0  0  0  0  0  0  0  0
   10.5844    6.1919   -1.1556 H   0  0  0  0  0  0  0  0  0  0  0  0
    9.5139    7.2415   -2.1424 H   0  0  0  0  0  0  0  0  0  0  0  0
   11.1428    6.8268   -2.7182 H   0  0  0  0  0  0  0  0  0  0  0  0
    8.3220    5.9697   -0.5748 H   0  0  0  0  0  0  0  0  0  0  0  0
    6.3810    5.0792    0.5949 H   0  0  0  0  0  0  0  0  0  0  0  0
    7.3147    1.6630    0.2142 H   0  0  0  0  0  0  0  0  0  0  0  0
    8.7929    0.0397    0.9782 H   0  0  0  0  0  0  0  0  0  0  0  0
    8.1950   -2.2434    1.5084 H   0  0  0  0  0  0  0  0  0  0  0  0
    5.5741   -0.9793    2.4691 H   0  0  0  0  0  0  0  0  0  0  0  0
    6.6941   -3.8363    2.4901 H   0  0  0  0  0  0  0  0  0  0  0  0
    0.8196   -1.9768    3.8719 H   0  0  0  0  0  0  0  0  0  0  0  0
    2.2664   -6.8224    4.0797 H   0  0  0  0  0  0  0  0  0  0  0  0
   -1.1503   -6.5997    3.9773 H   0  0  0  0  0  0  0  0  0  0  0  0
   -0.4008   -7.1508    6.4769 H   0  0  0  0  0  0  0  0  0  0  0  0
   -3.0267   -7.1260    6.3708 H   0  0  0  0  0  0  0  0  0  0  0  0
   -3.8278   -4.5969    6.2617 H   0  0  0  0  0  0  0  0  0  0  0  0
   -1.6932   -3.0614    6.3101 H   0  0  0  0  0  0  0  0  0  0  0  0
    0.4604   -4.6159    6.7056 H   0  0  0  0  0  0  0  0  0  0  0  0
   -0.7967   -4.9648    7.9147 H   0  0  0  0  0  0  0  0  0  0  0  0
   -1.9320   -4.1340    3.8758 H   0  0  0  0  0  0  0  0  0  0  0  0
  1  2  2  0  0  0  0
  2  3  1  0  0  0  0
  3  4  2  0  0  0  0
  3  5  1  0  0  0  0
  5  6  2  0  0  0  0
  6  7  1  0  0  0  0
  7  8  2  0  0  0  0
  8  9  1  0  0  0  0
  9 10  2  0  0  0  0
 10 11  1  0  0  0  0
 11 12  2  0  0  0  0
 12 13  1  0  0  0  0
 13 14  3  0  0  0  0
 12 15  1  0  0  0  0
 15 16  3  0  0  0  0
  8 17  1  0  0  0  0
 17 18  1  0  0  0  0
 18 19  1  0  0  0  0
 19 20  2  0  0  0  0
 20 21  1  0  0  0  0
 21 22  1  0  0  0  0
 21 23  1  0  0  0  0
  1 24  1  0  0  0  0
 24 25  2  0  0  0  0
 25 26  1  0  0  0  0
 26 27  2  0  0  0  0
 27 28  1  0  0  0  0
 28 29  2  0  0  0  0
 27 30  1  0  0  0  0
 30 31  2  0  0  0  0
 31 32  1  0  0  0  0
 32 33  1  0  0  0  0
 33 34  2  0  0  0  0
 34 35  1  0  0  0  0
 35 36  2  0  0  0  0
 36 37  1  0  0  0  0
 37 38  1  0  0  0  0
 36 39  1  0  0  0  0
 39 40  2  0  0  0  0
 32 41  1  0  0  0  0
 41 42  2  0  0  0  0
 42 43  1  0  0  0  0
 43 44  2  0  0  0  0
 44 45  1  0  0  0  0
 45 46  1  0  0  0  0
 44 47  1  0  0  0  0
 47 48  2  0  0  0  0
 31 49  1  0  0  0  0
 49 50  1  0  0  0  0
 50 51  1  0  0  0  0
 51 52  2  0  0  0  0
 52 53  1  0  0  0  0
 53 54  1  0  0  0  0
 54 55  2  0  0  0  0
 55 56  1  0  0  0  0
 56 57  2  0  0  0  0
 57 58  1  0  0  0  0
 58 59  1  0  0  0  0
 57 60  1  0  0  0  0
 60 61  2  0  0  0  0
 53 62  1  0  0  0  0
 62 63  2  0  0  0  0
 63 64  1  0  0  0  0
 64 65  2  0  0  0  0
 65 66  1  0  0  0  0
 66 67  1  0  0  0  0
 65 68  1  0  0  0  0
 68 69  2  0  0  0  0
 52 70  1  0  0  0  0
 70 71  1  0  0  0  0
 51 72  1  0  0  0  0
 72 73  2  0  0  0  0
 73 74  1  0  0  0  0
 74 75  2  0  0  0  0
 75 76  1  0  0  0  0
 76 77  2  0  0  0  0
 77 78  1  0  0  0  0
 78 79  2  0  0  0  0
 78 80  1  0  0  0  0
 80 81  2  0  0  0  0
 81 82  1  0  0  0  0
 82 83  2  0  0  0  0
 83 84  1  0  0  0  0
 84 85  2  0  0  0  0
 85 86  1  0  0  0  0
 86 87  2  0  0  0  0
 87 88  1  0  0  0  0
 88 89  3  0  0  0  0
 87 90  1  0  0  0  0
 90 91  3  0  0  0  0
 83 92  1  0  0  0  0
 92 93  1  0  0  0  0
 93 94  1  0  0  0  0
 94 95  2  0  0  0  0
 95 96  1  0  0  0  0
 96 97  1  0  0  0  0
 96 98  1  0  0  0  0
 11  2  1  0  0  0  0
 23 17  1  0  0  0  0
 29 24  1  0  0  0  0
 71 30  1  0  0  0  0
 86 77  1  0  0  0  0
 98 92  1  0  0  0  0
 10  5  1  0  0  0  0
 22 18  1  0  0  0  0
 40 33  1  0  0  0  0
 48 41  1  0  0  0  0
 70 49  2  0  0  0  0
 85 80  1  0  0  0  0
 97 93  1  0  0  0  0
 23  7  1  0  0  0  0
 61 54  1  0  0  0  0
 69 62  1  0  0  0  0
 98 82  1  0  0  0  0
  1 99  1  0  0  0  0
  6100  1  0  0  0  0
  9101  1  0  0  0  0
 17102  1  0  0  0  0
 18103  1  0  0  0  0
 19104  1  0  0  0  0
 20105  1  0  0  0  0
 21106  1  0  0  0  0
 22107  1  0  0  0  0
 22108  1  0  0  0  0
 23109  1  0  0  0  0
 25110  1  0  0  0  0
 26111  1  0  0  0  0
 28112  1  0  0  0  0
 34113  1  0  0  0  0
 35114  1  0  0  0  0
 38115  1  0  0  0  0
 38116  1  0  0  0  0
 38117  1  0  0  0  0
 39118  1  0  0  0  0
 40119  1  0  0  0  0
 42120  1  0  0  0  0
 43121  1  0  0  0  0
 46122  1  0  0  0  0
 46123  1  0  0  0  0
 46124  1  0  0  0  0
 47125  1  0  0  0  0
 48126  1  0  0  0  0
 55127  1  0  0  0  0
 56128  1  0  0  0  0
 59129  1  0  0  0  0
 59130  1  0  0  0  0
 59131  1  0  0  0  0
 60132  1  0  0  0  0
 61133  1  0  0  0  0
 63134  1  0  0  0  0
 64135  1  0  0  0  0
 67136  1  0  0  0  0
 67137  1  0  0  0  0
 67138  1  0  0  0  0
 68139  1  0  0  0  0
 69140  1  0  0  0  0
 72141  1  0  0  0  0
 73142  1  0  0  0  0
 74143  1  0  0  0  0
 75144  1  0  0  0  0
 76145  1  0  0  0  0
 81146  1  0  0  0  0
 84147  1  0  0  0  0
 92148  1  0  0  0  0
 93149  1  0  0  0  0
 94150  1  0  0  0  0
 95151  1  0  0  0  0
 96152  1  0  0  0  0
 97153  1  0  0  0  0
 97154  1  0  0  0  0
 98155  1  0  0  0  0
M  END
