188

C         -6.58450        3.64560       -1.32500
C         -7.17260        4.83860       -1.55000
C         -6.50260        6.08720       -2.01420
O         -5.40060        6.18620       -2.50130
C         -7.51420        7.15010       -1.86320
C         -7.32490        8.51790       -2.05050
C         -8.44660        9.27600       -1.81630
C         -9.67180        8.71690       -1.42430
C         -9.87670        7.37090       -1.24500
C         -8.74750        6.57840       -1.48320
C         -8.59100        5.13220       -1.39510
C         -9.59740        4.21880       -1.23410
C         -9.44500        2.81650       -1.22800
N         -9.43540        1.66710       -1.23060
C        -10.96280        4.55480       -1.10680
N        -12.08820        4.75280       -0.99790
C        -10.35430       10.06020       -1.35620
C        -11.28920       10.41930       -2.53050
C        -11.42000       11.92270       -2.44140
C        -10.26170       12.45140       -2.81490
C         -9.32830       11.31430       -3.16300
C        -10.33830       10.30790       -3.72930
C         -8.99020       10.68270       -1.79550
C         -5.17940        3.33840       -1.28570
C         -4.19830        4.14060       -0.73120
F         -4.50790        5.32370       -0.18910
C         -2.88550        3.68230       -0.55800
F         -2.02150        4.49340        0.07560
C         -2.49770        2.39560       -0.88450
C         -3.46300        1.57420       -1.53800
N         -3.11860        0.34800       -1.96560
C         -4.02760       -0.41510       -2.52320
C         -3.56610       -1.76420       -2.98540
C         -3.11030       -1.70270       -4.44530
C         -5.36070        0.05170       -2.70030
N         -5.70080        1.25330       -2.30370
C         -4.78460        2.03930       -1.71840
C         -6.46140       -0.76250       -3.30940
C         -7.34070       -1.36090       -2.20860
C         -1.22980        1.83640       -0.48180
C         -1.04930        0.61700        0.15560
N         -2.04940       -0.22120        0.61550
C         -3.29940        0.27480        1.00580
C         -3.41530        1.50360        1.65830
C         -4.65660        2.03130        1.93240
C         -5.81360        1.34070        1.57730
S         -7.34840        2.15520        1.89150
C         -8.57820        0.82640        1.75400
C         -5.70460        0.08660        0.99210
C         -4.45820       -0.44160        0.71690
C         -1.74970       -1.58120        0.76460
C         -1.00320       -2.24350       -0.20800
C         -0.54850       -3.52880        0.00890
C         -0.83270       -4.16640        1.20730
S         -0.13800       -5.74030        1.63060
C          1.45740       -5.69450        0.75830
C         -1.66890       -3.55170        2.13490
C         -2.12830       -2.27170        1.91580
C          0.32780        0.36260        0.36700
S          1.19610       -0.91810        1.14980
C          2.71010       -0.15470        0.71840
C          2.53880        1.13460        0.19690
N          3.53840        2.07110        0.09770
C          3.47200        3.07970       -0.86940
C          2.97250        2.80670       -2.13980
C          2.88990        3.80280       -3.09250
C          3.31330        5.09000       -2.79010
S          3.26160        6.43980       -3.92260
C          2.29630        5.79780       -5.31970
C          3.83460        5.36090       -1.52490
C          3.91220        4.37060       -0.57360
C          4.62920        2.01300        0.98690
C          5.92490        2.24590        0.53470
C          7.00840        2.01920        1.36050
C          6.81330        1.55160        2.65440
S          8.12340        1.08060        3.73250
C          9.51930        0.82980        2.59930
C          5.51250        1.42290        3.14250
C          4.43360        1.65800        2.32260
C          1.16530        1.38640       -0.05010
S          0.27110        2.71080       -0.71490
C          3.90730       -0.89620        0.91630
C          5.07570       -0.72470        0.17570
F          5.06880        0.05890       -0.92240
C          6.23850       -1.42230        0.47780
F          7.33790       -1.17330       -0.25870
C          6.29700       -2.41580        1.44840
C          5.09910       -2.67880        2.17180
N          5.08220       -3.58570        3.16050
C          3.95770       -3.84880        3.77530
O          4.03780       -4.70700        4.81940
C          3.34300       -5.94630        4.71220
C          4.04000       -6.89390        3.74500
C          2.74610       -3.16760        3.43330
N          2.78820       -2.22530        2.52690
C          3.92720       -1.94640        1.88130
C          1.43900       -3.39130        4.11480
C          7.51410       -3.13140        1.70240
C          7.58580       -4.46890        1.91830
C          6.52130       -5.44200        1.55950
O          5.43050       -5.21890        1.07380
C          7.10920       -6.77490        1.78710
C          6.49550       -8.00610        1.56330
C          7.28830       -9.09040        1.84850
C          8.60470       -8.96350        2.31300
C          9.22670       -7.75750        2.52850
C          8.43440       -6.63940        2.24800
C          8.75430       -5.21920        2.34280
C          9.93170       -4.69150        2.80310
C         10.21550       -3.31580        2.93030
N         10.53710       -2.22240        3.07270
C         11.04180       -5.45430        3.22370
N         11.98540       -6.00780        3.57220
C          8.81330      -10.45600        2.36820
C          9.63790      -11.11070        1.23220
C          9.48380      -10.22290        0.02220
C          8.23690      -10.34450       -0.41330
C          7.52500      -11.31660        0.49490
C          8.68790      -12.25690        0.84950
C          7.34550      -10.59740        1.85480
H         -7.20640        2.77890       -1.14810
H         -6.36220        8.90760       -2.34140
H        -10.82130        6.95550       -0.93540
H        -10.76410       10.33450       -0.38610
H        -12.21270        9.84830       -2.56770
H        -12.29400       12.42810       -2.07460
H         -9.97490       13.48660       -2.82220
H         -8.46610       11.55940       -3.77710
H        -10.79670       10.66020       -4.65180
H         -9.93230        9.30980       -3.88270
H         -8.49040       11.37410       -1.11970
H         -2.72500       -2.06690       -2.36090
H         -4.36460       -2.49830       -2.87330
H         -2.76730       -2.68130       -4.77190
H         -3.92300       -1.38460       -5.09490
H         -2.29270       -0.99370       -4.54820
H         -7.07540       -0.09700       -3.91760
H         -6.06180       -1.55260       -3.94340
H         -8.12490       -1.97160       -2.64840
H         -6.75060       -1.98220       -1.53700
H         -7.80420       -0.56010       -1.63910
H         -2.52550        2.04240        1.94700
H         -4.74630        2.98770        2.42460
H         -9.49530        1.23380        2.16840
H         -8.25500       -0.02900        2.33890
H         -8.73750        0.56830        0.71050
H         -6.58320       -0.47770        0.72560
H         -4.37710       -1.41010        0.24490
H         -0.75060       -1.72680       -1.12170
H          0.04580       -4.01460       -0.74850
H          1.32100       -5.92170       -0.29480
H          2.07480       -6.46020        1.21690
H          1.91360       -4.71790        0.89030
H         -1.92260       -4.07350        3.04490
H         -2.74140       -1.77970        2.65600
H          2.66840        1.80120       -2.38800
H          2.50440        3.55720       -4.06850
H          2.14810        6.64260       -5.98520
H          1.33700        5.43340       -4.96470
H          2.85160        5.01900       -5.83460
H          4.16730        6.36220       -1.29890
H          4.30370        4.58940        0.40850
H          6.08420        2.56010       -0.48570
H          8.00120        2.18580        0.97550
H         10.23490        0.21960        3.14100
H          9.17740        0.29340        1.71970
H          9.96450        1.78360        2.33060
H          5.36410        1.11740        4.16660
H          3.43150        1.53500        2.70520
H          3.35310       -6.35110        5.72680
H          2.30580       -5.79330        4.39860
H          4.10010       -6.43810        2.75900
H          3.48380       -7.82530        3.67870
H          5.05060       -7.10460        4.08600
H          0.82090       -2.50730        3.98020
H          0.91060       -4.23520        3.67000
H          1.58860       -3.58870        5.17410
H          8.42190       -2.54130        1.68750
H          5.48260       -8.06360        1.19680
H         10.24270       -7.67650        2.87700
H          9.05450      -10.86850        3.34580
H         10.65550      -11.37370        1.50760
H         10.25660       -9.57460       -0.34700
H          7.75980       -9.81760       -1.21880
H          6.61880      -11.76820        0.09950
H          8.46510      -12.93030        1.67610
H          9.04210      -12.82950       -0.00620
H          6.62670      -11.10020        2.49920
