239

C         -6.90920       -1.80010       -4.15540
C         -7.98220       -2.24200       -3.40870
C         -8.16360       -1.95570       -1.97700
O         -7.40800       -1.34240       -1.24450
C         -9.51060       -2.45980       -1.63510
C        -10.12650       -2.43420       -0.38830
C        -11.36330       -3.03530       -0.36180
C        -11.94980       -3.60890       -1.49580
C        -11.36110       -3.62260       -2.73850
C        -10.10160       -3.02390       -2.78240
C         -9.15930       -2.90320       -3.89190
C         -9.29600       -3.47970       -5.13280
C        -10.43200       -4.18180       -5.57300
N        -11.31440       -4.77880       -6.00480
C         -8.26630       -3.52560       -6.09210
N         -7.45870       -3.66310       -6.89850
C        -13.17340       -4.05540       -0.73700
C        -13.26770       -5.55050       -0.34480
C        -11.85190       -6.06000       -0.23090
C        -11.31250       -5.51170        0.84990
C        -12.34980       -4.61650        1.48060
C        -13.62550       -5.40420        1.14300
C        -12.52490       -3.40840        0.52720
C         -5.63240       -1.52750       -3.66180
C         -4.95700       -2.00310       -2.51770
N         -5.35460       -2.99540       -1.66230
C         -6.24030       -4.01400       -2.02790
C         -6.20710       -4.58600       -3.29810
C         -7.12970       -5.54450       -3.66650
C         -8.11130       -5.94840       -2.76820
S         -9.39690       -7.08830       -3.14910
C         -9.10080       -7.54500       -4.87860
C         -8.11030       -5.42390       -1.47610
C         -7.18580       -4.47360       -1.10730
C         -4.82100       -3.01050       -0.35630
C         -4.81560       -1.84950        0.41650
C         -4.25450       -1.86170        1.67300
C         -3.69280       -3.02980        2.18760
S         -2.99460       -2.91650        3.80210
C         -2.17440       -4.51480        4.04870
C         -3.73050       -4.19540        1.43290
C         -4.29110       -4.18310        0.16940
C         -3.69070       -1.39210       -2.40780
S         -2.39480       -1.55750       -1.27590
C         -1.40000       -0.45180       -2.20990
C         -2.04370       -0.01750       -3.36740
N         -1.48660        0.82780       -4.31870
C         -0.21870        0.57080       -4.84360
C          0.28000       -0.72750       -4.90210
C          1.55140       -0.97540       -5.38250
C          2.34710        0.07210       -5.82380
S          3.98920       -0.11950       -6.44560
C          4.21220       -1.91820       -6.54510
C          1.85030        1.37390       -5.77290
C          0.58810        1.62240       -5.28760
C         -2.28700        1.86630       -4.81450
C         -2.27760        2.20330       -6.16760
C         -3.07040        3.23000       -6.62920
C         -3.89840        3.93380       -5.75670
S         -4.85070        5.24600       -6.45690
C         -5.51200        6.11580       -5.00770
C         -3.92970        3.58450       -4.41430
C         -3.12420        2.56470       -3.94930
C         -3.34710       -0.54760       -3.45530
S         -4.60800       -0.44700       -4.62790
C         -0.19510        0.03190       -1.64920
C          0.47360       -0.46500       -0.53140
N          0.26830       -1.72230        0.01600
C          0.16980       -2.84230       -0.81510
C          0.82360       -2.88190       -2.04740
C          0.66320       -3.96400       -2.88260
C         -0.14570       -5.03670       -2.51190
S         -0.28950       -6.35140       -3.68170
C         -1.55230       -7.43910       -2.96440
C         -0.77610       -5.01500       -1.27520
C         -0.62050       -3.92780       -0.43980
C          0.31170       -1.86020        1.40870
C         -0.25020       -0.87920        2.22050
C         -0.20960       -0.99230        3.59520
C          0.38800       -2.09870        4.18060
S          0.43130       -2.38610        5.92020
C         -0.03060       -0.78760        6.63520
C          0.95890       -3.07990        3.37300
C          0.92760       -2.96180        2.00210
C          1.42570        0.46160       -0.05500
S          2.49310        0.51560        1.30090
C          3.11380        2.08040        0.77760
C          2.54500        2.50890       -0.41610
N          2.83140        3.65890       -1.13310
C          4.13850        4.08500       -1.37780
C          4.38580        5.44100       -1.59140
C          5.66740        5.89660       -1.82050
C          6.73020        5.00300       -1.84260
S          8.40130        5.50100       -2.11480
C          8.20560        7.06910       -3.01640
C          6.48990        3.64860       -1.62950
C          5.20950        3.19060       -1.40490
C          1.77330        4.24910       -1.85160
C          0.55950        4.50990       -1.21530
C         -0.48780        5.06230       -1.91790
C         -0.34590        5.37430       -3.26850
S         -1.74180        6.10580       -4.05880
C         -1.27950        6.17390       -5.81070
C          0.86250        5.12160       -3.90410
C          1.91020        4.56010       -3.20080
C          1.55070        1.59560       -0.84200
S          0.45690        1.57700       -2.17920
C          4.03580        2.67610        1.68600
C          4.89050        3.74670        1.63880
C          5.55070        3.79960        2.89340
C          6.56070        4.63200        3.40010
C          7.19720        5.70200        2.62810
C          6.46520        6.54550        1.79650
C          7.09640        7.54220        1.07710
C          8.46860        7.73890        1.16650
C          9.14280        8.84420        0.40090
C         10.38760        8.37610       -0.35280
C          9.19520        6.90070        2.00420
C          8.57450        5.89880        2.71990
C          6.94160        4.31930        4.69990
C          6.35850        3.27980        5.48050
C          5.34860        2.44010        4.96510
C          4.72690        1.37720        5.75510
C          4.38390        0.15360        5.18010
C          3.85610       -0.86220        5.95330
C          3.64590       -0.68910        7.31640
C          3.17940       -1.82400        8.18020
C          4.38310       -2.58200        8.74400
C          3.93610        0.54940        7.87640
C          4.46420        1.56920        7.11190
C          5.01120        2.72380        3.65140
O          4.10050        2.05610        2.90240
C          7.03900        3.31650        6.71720
C          7.94890        4.35060        6.64540
O          7.88870        4.95770        5.41740
C          8.89400        4.87700        7.55430
C          9.16360        4.54560        8.84660
C          8.56020        3.55300        9.75220
O          7.66150        2.76580        9.53410
C          9.27650        3.70370       11.04470
C          9.09110        3.01160       12.22700
C          9.89350        3.34050       13.31180
C         10.85510        4.33680       13.21340
C         11.04370        5.03360       12.02670
C         10.24650        4.70750       10.94570
C         10.22450        5.27730        9.57840
O         10.92760        6.16190        9.14070
H         -7.05490       -1.61290       -5.21290
H         -9.63860       -1.98610        0.46370
H        -11.82740       -4.05950       -3.60600
H        -14.12560       -3.65760       -1.08280
H        -13.93770       -6.13810       -0.96650
H        -11.38680       -6.69990       -0.95860
H        -10.30680       -5.60580        1.21740
H        -12.18640       -4.35090        2.52200
H        -14.54180       -4.84110        1.31560
H        -13.67890       -6.36120        1.66020
H        -13.04910       -2.57940        0.99930
H         -5.46070       -4.27130       -4.01210
H         -7.07970       -5.95420       -4.66250
H         -9.17420       -6.66930       -5.51650
H         -8.13350       -8.02940       -4.97510
H         -9.89190       -8.24410       -5.13150
H         -8.86460       -5.75290       -0.77900
H         -7.20260       -4.05610       -0.11210
H         -5.27470       -0.95690        0.02230
H         -4.24620       -0.96800        2.27750
H         -2.91130       -5.31050        4.10850
H         -1.64590       -4.42730        4.99330
H         -1.46110       -4.68710        3.24800
H         -3.32600       -5.11890        1.81610
H         -4.31500       -5.08950       -0.41830
H         -0.33030       -1.55340       -4.56700
H          1.90460       -1.99350       -5.41110
H          4.20360       -2.35360       -5.54990
H          3.44010       -2.35130       -7.17410
H          5.18610       -2.06610       -7.00140
H          2.47560        2.18660       -6.10930
H          0.22140        2.63520       -5.22250
H         -1.64760        1.65470       -6.85160
H         -3.06370        3.49610       -7.67540
H         -6.24890        5.49680       -4.50410
H         -4.69580        6.38470       -4.34330
H         -5.98850        7.01090       -5.39550
H         -4.56420        4.10580       -3.71700
H         -3.13560        2.31080       -2.89960
H          1.45110       -2.05690       -2.35020
H          1.16440       -3.99590       -3.83780
H         -1.18790       -7.87920       -2.04060
H         -1.71790       -8.21880       -3.70150
H         -2.47110       -6.88220       -2.80360
H         -1.40360       -5.83050       -0.95390
H         -1.14240       -3.89980        0.50450
H         -0.73890       -0.03020        1.76630
H         -0.66580       -0.22310        4.19570
H         -1.07100       -0.56850        6.41240
H          0.63490       -0.01760        6.25530
H          0.10210       -0.89400        7.70720
H          1.43160       -3.93260        3.83690
H          1.38610       -3.71750        1.38170
H          3.56370        6.14090       -1.56380
H          5.82810        6.95210       -1.96760
H          7.47950        6.93770       -3.81270
H          7.90760        7.86180       -2.33710
H          9.18050        7.29540       -3.43660
H          7.31860        2.95820       -1.65060
H          5.03160        2.13740       -1.25260
H          0.44720        4.27200       -0.16780
H         -1.42790        5.26560       -1.42880
H         -2.15850        6.53950       -6.33290
H         -1.03730        5.17550       -6.16310
H         -0.45210        6.86310       -5.95290
H          1.00130        5.35180       -4.94840
H          2.84320        4.35210       -3.70300
H          5.05650        4.40400        0.81610
H          5.39210        6.44250        1.73650
H          6.50430        8.19100        0.44540
H          8.42930        9.27710       -0.30500
H          9.42670        9.63750        1.09970
H         10.16900        7.48100       -0.93000
H         10.73270        9.15550       -1.02890
H         11.19630        8.14520        0.33490
H         10.26170        7.03420        2.10350
H          9.16340        5.25290        3.35230
H          4.55500       -0.00950        4.12710
H          3.60970       -1.80880        5.49340
H          2.58060       -1.43950        9.00900
H          2.56410       -2.51160        7.59820
H          5.00830       -1.91590        9.33440
H          4.05240       -3.40270        9.37650
H          4.98560       -2.98760        7.93450
H          3.75290        0.71480        8.92860
H          4.65860        2.52890        7.56470
H          6.91270        2.66760        7.55860
H          9.49490        5.68750        7.15020
H          8.34060        2.23870       12.29430
H          9.76850        2.81420       14.24680
H         11.46490        4.57270       14.07310
H         11.78840        5.81000       11.94080
