
  xtb     02142204423D
 energy: -380.704477826407 gnorm: 0.000903897587 xtb: 6.4.1 (unknown)
228252  0     0  0            999 V2000
   -6.8163    6.2105    3.0549 C   0  0  0  0  0  0  0  0  0  0  0  0
   -6.5451    5.0486    3.6930 C   0  0  0  0  0  0  0  0  0  0  0  0
   -5.4362    4.0982    3.3647 C   0  0  0  0  0  0  0  0  0  0  0  0
   -4.5057    4.2630    2.6027 O   0  0  0  0  0  0  0  0  0  0  0  0
   -5.6352    2.9328    4.2328 C   0  0  0  0  0  0  0  0  0  0  0  0
   -4.9142    1.7396    4.1885 C   0  0  0  0  0  0  0  0  0  0  0  0
   -5.3225    0.8080    5.1092 C   0  0  0  0  0  0  0  0  0  0  0  0
   -6.3606    1.0496    6.0224 C   0  0  0  0  0  0  0  0  0  0  0  0
   -7.0820    2.2184    6.0726 C   0  0  0  0  0  0  0  0  0  0  0  0
   -6.6928    3.1809    5.1322 C   0  0  0  0  0  0  0  0  0  0  0  0
   -7.2352    4.5082    4.8647 C   0  0  0  0  0  0  0  0  0  0  0  0
   -8.2246    5.1206    5.5829 C   0  0  0  0  0  0  0  0  0  0  0  0
   -8.7636    6.4003    5.3248 C   0  0  0  0  0  0  0  0  0  0  0  0
   -9.2644    7.4239    5.1868 N   0  0  0  0  0  0  0  0  0  0  0  0
   -8.8517    4.5605    6.7180 C   0  0  0  0  0  0  0  0  0  0  0  0
   -9.4004    4.1757    7.6494 N   0  0  0  0  0  0  0  0  0  0  0  0
   -6.2190   -0.3104    6.6596 C   0  0  0  0  0  0  0  0  0  0  0  0
   -5.4769   -0.3642    8.0127 C   0  0  0  0  0  0  0  0  0  0  0  0
   -5.0775   -1.8165    8.1463 C   0  0  0  0  0  0  0  0  0  0  0  0
   -4.1078   -2.0505    7.2713 C   0  0  0  0  0  0  0  0  0  0  0  0
   -3.8335   -0.7614    6.5321 C   0  0  0  0  0  0  0  0  0  0  0  0
   -4.1178    0.2492    7.6509 C   0  0  0  0  0  0  0  0  0  0  0  0
   -5.0736   -0.5819    5.6318 C   0  0  0  0  0  0  0  0  0  0  0  0
   -6.1779    6.6343    1.8236 C   0  0  0  0  0  0  0  0  0  0  0  0
   -5.8496    7.9911    1.6252 C   0  0  0  0  0  0  0  0  0  0  0  0
   -5.1292    8.3852    0.5179 C   0  0  0  0  0  0  0  0  0  0  0  0
   -4.7667    9.8015    0.3277 C   0  0  0  0  0  0  0  0  0  0  0  0
   -5.1073   10.7022    1.0610 O   0  0  0  0  0  0  0  0  0  0  0  0
   -3.9851   10.0568   -0.7830 N   0  0  0  0  0  0  0  0  0  0  0  0
   -3.4674    9.1736   -1.7138 C   0  0  0  0  0  0  0  0  0  0  0  0
   -2.7853    9.5758   -2.6281 O   0  0  0  0  0  0  0  0  0  0  0  0
   -3.8227    7.7615   -1.4882 C   0  0  0  0  0  0  0  0  0  0  0  0
   -3.2666    6.7726   -2.2650 C   0  0  0  0  0  0  0  0  0  0  0  0
   -3.5561    5.4072   -2.0388 C   0  0  0  0  0  0  0  0  0  0  0  0
   -4.5264    5.0940   -1.1016 C   0  0  0  0  0  0  0  0  0  0  0  0
   -5.0676    6.0764   -0.2594 C   0  0  0  0  0  0  0  0  0  0  0  0
   -5.8656    5.7178    0.8379 C   0  0  0  0  0  0  0  0  0  0  0  0
   -4.6821    7.4293   -0.4183 C   0  0  0  0  0  0  0  0  0  0  0  0
   -2.7022    4.3875   -2.5983 C   0  0  0  0  0  0  0  0  0  0  0  0
   -2.7015    3.0299   -2.3124 C   0  0  0  0  0  0  0  0  0  0  0  0
   -3.7563    2.2713   -1.7981 N   0  0  0  0  0  0  0  0  0  0  0  0
   -3.4626    1.4610   -0.6881 C   0  0  0  0  0  0  0  0  0  0  0  0
   -3.7745    0.1052   -0.6521 C   0  0  0  0  0  0  0  0  0  0  0  0
   -3.4269   -0.6592    0.4450 C   0  0  0  0  0  0  0  0  0  0  0  0
   -2.7514   -0.0859    1.5149 C   0  0  0  0  0  0  0  0  0  0  0  0
   -2.2839   -0.9913    2.9629 S   0  0  0  0  0  0  0  0  0  0  0  0
   -2.0200   -2.6705    2.3266 C   0  0  0  0  0  0  0  0  0  0  0  0
   -2.4549    1.2747    1.4878 C   0  0  0  0  0  0  0  0  0  0  0  0
   -2.8146    2.0399    0.4011 C   0  0  0  0  0  0  0  0  0  0  0  0
   -4.9730    2.1874   -2.4728 C   0  0  0  0  0  0  0  0  0  0  0  0
   -5.0733    2.5302   -3.8225 C   0  0  0  0  0  0  0  0  0  0  0  0
   -6.2843    2.4563   -4.4714 C   0  0  0  0  0  0  0  0  0  0  0  0
   -7.4292    2.0354   -3.7977 C   0  0  0  0  0  0  0  0  0  0  0  0
   -8.9178    1.9684   -4.7463 S   0  0  0  0  0  0  0  0  0  0  0  0
  -10.1759    1.4296   -3.5540 C   0  0  0  0  0  0  0  0  0  0  0  0
   -7.3379    1.6987   -2.4546 C   0  0  0  0  0  0  0  0  0  0  0  0
   -6.1245    1.7818   -1.7998 C   0  0  0  0  0  0  0  0  0  0  0  0
   -1.4459    2.4515   -2.5986 C   0  0  0  0  0  0  0  0  0  0  0  0
   -0.7491    0.9248   -2.2219 S   0  0  0  0  0  0  0  0  0  0  0  0
    0.8276    1.4933   -2.7983 C   0  0  0  0  0  0  0  0  0  0  0  0
    0.7593    2.7473   -3.3876 C   0  0  0  0  0  0  0  0  0  0  0  0
    1.7580    3.4144   -4.0494 N   0  0  0  0  0  0  0  0  0  0  0  0
    1.3813    4.5731   -4.8032 C   0  0  0  0  0  0  0  0  0  0  0  0
    0.7615    4.3978   -6.0335 C   0  0  0  0  0  0  0  0  0  0  0  0
    0.3915    5.4865   -6.7992 C   0  0  0  0  0  0  0  0  0  0  0  0
    0.6467    6.7722   -6.3390 C   0  0  0  0  0  0  0  0  0  0  0  0
    0.2331    8.2388   -7.2190 S   0  0  0  0  0  0  0  0  0  0  0  0
   -0.6775    7.6393   -8.6710 C   0  0  0  0  0  0  0  0  0  0  0  0
    1.2788    6.9473   -5.1092 C   0  0  0  0  0  0  0  0  0  0  0  0
    1.6447    5.8584   -4.3474 C   0  0  0  0  0  0  0  0  0  0  0  0
    2.9431    2.7984   -4.5012 C   0  0  0  0  0  0  0  0  0  0  0  0
    2.9818    1.4806   -4.9429 C   0  0  0  0  0  0  0  0  0  0  0  0
    4.1657    0.9180   -5.3840 C   0  0  0  0  0  0  0  0  0  0  0  0
    5.3288    1.6741   -5.4124 C   0  0  0  0  0  0  0  0  0  0  0  0
    6.9028    1.0538   -5.9129 S   0  0  0  0  0  0  0  0  0  0  0  0
    6.6356   -0.7379   -6.0473 C   0  0  0  0  0  0  0  0  0  0  0  0
    5.2812    3.0130   -5.0265 C   0  0  0  0  0  0  0  0  0  0  0  0
    4.1050    3.5666   -4.5762 C   0  0  0  0  0  0  0  0  0  0  0  0
   -0.5358    3.3044   -3.1982 C   0  0  0  0  0  0  0  0  0  0  0  0
   -1.2180    4.8798   -3.4025 S   0  0  0  0  0  0  0  0  0  0  0  0
    1.9216    0.6553   -2.4184 C   0  0  0  0  0  0  0  0  0  0  0  0
    3.0674    0.9605   -1.6999 C   0  0  0  0  0  0  0  0  0  0  0  0
    3.4505    2.2392   -1.3234 N   0  0  0  0  0  0  0  0  0  0  0  0
    2.4671    3.1401   -0.8865 C   0  0  0  0  0  0  0  0  0  0  0  0
    2.5417    4.4905   -1.2234 C   0  0  0  0  0  0  0  0  0  0  0  0
    1.5424    5.3605   -0.8428 C   0  0  0  0  0  0  0  0  0  0  0  0
    0.4474    4.9041   -0.1152 C   0  0  0  0  0  0  0  0  0  0  0  0
   -0.8348    6.0763    0.2394 S   0  0  0  0  0  0  0  0  0  0  0  0
   -1.4823    5.5312    1.8516 C   0  0  0  0  0  0  0  0  0  0  0  0
    0.3894    3.5691    0.2596 C   0  0  0  0  0  0  0  0  0  0  0  0
    1.3910    2.6977   -0.1196 C   0  0  0  0  0  0  0  0  0  0  0  0
    4.8104    2.5528   -1.2515 C   0  0  0  0  0  0  0  0  0  0  0  0
    5.7202    1.9303   -2.1077 C   0  0  0  0  0  0  0  0  0  0  0  0
    7.0612    2.2318   -2.0449 C   0  0  0  0  0  0  0  0  0  0  0  0
    7.5330    3.1644   -1.1247 C   0  0  0  0  0  0  0  0  0  0  0  0
    9.2696    3.4817   -1.1453 S   0  0  0  0  0  0  0  0  0  0  0  0
    9.5291    4.5843    0.2739 C   0  0  0  0  0  0  0  0  0  0  0  0
    6.6350    3.7827   -0.2653 C   0  0  0  0  0  0  0  0  0  0  0  0
    5.2902    3.4743   -0.3245 C   0  0  0  0  0  0  0  0  0  0  0  0
    3.7283   -0.2194   -1.2815 C   0  0  0  0  0  0  0  0  0  0  0  0
    5.1301   -0.5162   -0.3296 S   0  0  0  0  0  0  0  0  0  0  0  0
    4.7431   -2.2407   -0.2473 C   0  0  0  0  0  0  0  0  0  0  0  0
    3.6289   -2.5670   -1.0444 C   0  0  0  0  0  0  0  0  0  0  0  0
    3.1409   -3.8295   -1.3004 N   0  0  0  0  0  0  0  0  0  0  0  0
    3.9568   -4.9675   -1.3417 C   0  0  0  0  0  0  0  0  0  0  0  0
    3.4133   -6.2167   -1.0291 C   0  0  0  0  0  0  0  0  0  0  0  0
    4.2117   -7.3373   -1.0024 C   0  0  0  0  0  0  0  0  0  0  0  0
    5.5764   -7.2385   -1.2648 C   0  0  0  0  0  0  0  0  0  0  0  0
    6.5450   -8.6959   -1.0788 S   0  0  0  0  0  0  0  0  0  0  0  0
    8.2357   -8.0439   -0.9442 C   0  0  0  0  0  0  0  0  0  0  0  0
    6.1059   -6.0138   -1.6532 C   0  0  0  0  0  0  0  0  0  0  0  0
    5.3008   -4.8948   -1.6993 C   0  0  0  0  0  0  0  0  0  0  0  0
    1.8099   -3.9638   -1.7632 C   0  0  0  0  0  0  0  0  0  0  0  0
    1.5459   -4.6921   -2.9225 C   0  0  0  0  0  0  0  0  0  0  0  0
    0.2609   -4.7807   -3.4070 C   0  0  0  0  0  0  0  0  0  0  0  0
   -0.7871   -4.1392   -2.7492 C   0  0  0  0  0  0  0  0  0  0  0  0
   -2.3825   -4.2534   -3.4880 S   0  0  0  0  0  0  0  0  0  0  0  0
   -3.2869   -2.8790   -2.7186 C   0  0  0  0  0  0  0  0  0  0  0  0
   -0.5352   -3.4522   -1.5701 C   0  0  0  0  0  0  0  0  0  0  0  0
    0.7541   -3.3669   -1.0814 C   0  0  0  0  0  0  0  0  0  0  0  0
    3.0737   -1.3990   -1.6110 C   0  0  0  0  0  0  0  0  0  0  0  0
    1.6657   -1.0774   -2.5630 S   0  0  0  0  0  0  0  0  0  0  0  0
    5.5729   -3.0187    0.5745 C   0  0  0  0  0  0  0  0  0  0  0  0
    5.3184   -4.2218    1.1838 C   0  0  0  0  0  0  0  0  0  0  0  0
    6.4300   -5.1361    1.5240 C   0  0  0  0  0  0  0  0  0  0  0  0
    7.6197   -4.9166    1.4193 O   0  0  0  0  0  0  0  0  0  0  0  0
    5.7902   -6.4105    1.9080 C   0  0  0  0  0  0  0  0  0  0  0  0
    6.4222   -7.6130    2.2146 C   0  0  0  0  0  0  0  0  0  0  0  0
    5.5590   -8.6494    2.4768 C   0  0  0  0  0  0  0  0  0  0  0  0
    4.1666   -8.4998    2.4583 C   0  0  0  0  0  0  0  0  0  0  0  0
    3.5293   -7.3145    2.1769 C   0  0  0  0  0  0  0  0  0  0  0  0
    4.3903   -6.2553    1.8824 C   0  0  0  0  0  0  0  0  0  0  0  0
    4.0836   -4.8759    1.5120 C   0  0  0  0  0  0  0  0  0  0  0  0
    2.8621   -4.2571    1.6638 C   0  0  0  0  0  0  0  0  0  0  0  0
    1.6513   -4.9110    1.9474 C   0  0  0  0  0  0  0  0  0  0  0  0
    0.6082   -5.3590    2.1325 N   0  0  0  0  0  0  0  0  0  0  0  0
    2.6816   -2.8635    1.6340 C   0  0  0  0  0  0  0  0  0  0  0  0
    2.4574   -1.7361    1.6732 N   0  0  0  0  0  0  0  0  0  0  0  0
    3.9266   -9.9493    2.8022 C   0  0  0  0  0  0  0  0  0  0  0  0
    3.5322  -10.2601    4.2613 C   0  0  0  0  0  0  0  0  0  0  0  0
    3.8331  -11.7340    4.4110 C   0  0  0  0  0  0  0  0  0  0  0  0
    5.1521  -11.8769    4.4260 C   0  0  0  0  0  0  0  0  0  0  0  0
    5.7650  -10.5022    4.2872 C   0  0  0  0  0  0  0  0  0  0  0  0
    4.7169   -9.6690    5.0362 C   0  0  0  0  0  0  0  0  0  0  0  0
    5.4801  -10.1158    2.8209 C   0  0  0  0  0  0  0  0  0  0  0  0
   -7.5382    6.8979    3.4756 H   0  0  0  0  0  0  0  0  0  0  0  0
   -4.1240    1.5920    3.4701 H   0  0  0  0  0  0  0  0  0  0  0  0
   -7.8857    2.3805    6.7711 H   0  0  0  0  0  0  0  0  0  0  0  0
   -7.1062   -0.9403    6.6374 H   0  0  0  0  0  0  0  0  0  0  0  0
   -6.0196    0.0733    8.8462 H   0  0  0  0  0  0  0  0  0  0  0  0
   -5.5636   -2.5130    8.8039 H   0  0  0  0  0  0  0  0  0  0  0  0
   -3.6209   -2.9823    7.0514 H   0  0  0  0  0  0  0  0  0  0  0  0
   -2.8854   -0.6859    6.0078 H   0  0  0  0  0  0  0  0  0  0  0  0
   -4.1714    1.2825    7.3129 H   0  0  0  0  0  0  0  0  0  0  0  0
   -3.4025    0.1707    8.4677 H   0  0  0  0  0  0  0  0  0  0  0  0
   -5.1940   -1.3866    4.9102 H   0  0  0  0  0  0  0  0  0  0  0  0
   -6.1305    8.7342    2.3569 H   0  0  0  0  0  0  0  0  0  0  0  0
   -3.7381   11.0322   -0.9252 H   0  0  0  0  0  0  0  0  0  0  0  0
   -2.5594    7.0572   -3.0307 H   0  0  0  0  0  0  0  0  0  0  0  0
   -4.8099    4.0750   -0.9100 H   0  0  0  0  0  0  0  0  0  0  0  0
   -6.2019    4.6954    0.9167 H   0  0  0  0  0  0  0  0  0  0  0  0
   -4.2895   -0.3477   -1.4865 H   0  0  0  0  0  0  0  0  0  0  0  0
   -3.6851   -1.7068    0.4614 H   0  0  0  0  0  0  0  0  0  0  0  0
   -1.4065   -2.6225    1.4327 H   0  0  0  0  0  0  0  0  0  0  0  0
   -1.4859   -3.2097    3.1025 H   0  0  0  0  0  0  0  0  0  0  0  0
   -2.9689   -3.1611    2.1293 H   0  0  0  0  0  0  0  0  0  0  0  0
   -1.9417    1.7188    2.3281 H   0  0  0  0  0  0  0  0  0  0  0  0
   -2.6097    3.0987    0.3748 H   0  0  0  0  0  0  0  0  0  0  0  0
   -4.1947    2.8483   -4.3623 H   0  0  0  0  0  0  0  0  0  0  0  0
   -6.3581    2.7174   -5.5158 H   0  0  0  0  0  0  0  0  0  0  0  0
  -10.2568    2.1519   -2.7469 H   0  0  0  0  0  0  0  0  0  0  0  0
   -9.9343    0.4397   -3.1777 H   0  0  0  0  0  0  0  0  0  0  0  0
  -11.1072    1.3940   -4.1104 H   0  0  0  0  0  0  0  0  0  0  0  0
   -8.2042    1.3768   -1.8994 H   0  0  0  0  0  0  0  0  0  0  0  0
   -6.0702    1.5287   -0.7505 H   0  0  0  0  0  0  0  0  0  0  0  0
    0.5640    3.3972   -6.3915 H   0  0  0  0  0  0  0  0  0  0  0  0
   -0.0904    5.3175   -7.7483 H   0  0  0  0  0  0  0  0  0  0  0  0
   -1.5489    7.0747   -8.3529 H   0  0  0  0  0  0  0  0  0  0  0  0
   -0.9916    8.5308   -9.2048 H   0  0  0  0  0  0  0  0  0  0  0  0
   -0.0260    7.0435   -9.3037 H   0  0  0  0  0  0  0  0  0  0  0  0
    1.4719    7.9491   -4.7586 H   0  0  0  0  0  0  0  0  0  0  0  0
    2.1201    6.0021   -3.3925 H   0  0  0  0  0  0  0  0  0  0  0  0
    2.0804    0.8885   -4.9726 H   0  0  0  0  0  0  0  0  0  0  0  0
    4.1572   -0.1084   -5.7149 H   0  0  0  0  0  0  0  0  0  0  0  0
    6.2355   -1.1210   -5.1130 H   0  0  0  0  0  0  0  0  0  0  0  0
    7.6158   -1.1659   -6.2326 H   0  0  0  0  0  0  0  0  0  0  0  0
    5.9752   -0.9605   -6.8805 H   0  0  0  0  0  0  0  0  0  0  0  0
    6.1823    3.6043   -5.0710 H   0  0  0  0  0  0  0  0  0  0  0  0
    4.0789    4.6037   -4.2813 H   0  0  0  0  0  0  0  0  0  0  0  0
    3.3942    4.8432   -1.7844 H   0  0  0  0  0  0  0  0  0  0  0  0
    1.5898    6.4062   -1.1058 H   0  0  0  0  0  0  0  0  0  0  0  0
   -1.8050    6.4335    2.3624 H   0  0  0  0  0  0  0  0  0  0  0  0
   -2.3346    4.8691    1.7312 H   0  0  0  0  0  0  0  0  0  0  0  0
   -0.6846    5.0546    2.4112 H   0  0  0  0  0  0  0  0  0  0  0  0
   -0.4306    3.1971    0.8504 H   0  0  0  0  0  0  0  0  0  0  0  0
    1.3370    1.6625    0.1837 H   0  0  0  0  0  0  0  0  0  0  0  0
    5.3653    1.2139   -2.8310 H   0  0  0  0  0  0  0  0  0  0  0  0
    7.7576    1.7540   -2.7164 H   0  0  0  0  0  0  0  0  0  0  0  0
   10.6015    4.7437    0.3271 H   0  0  0  0  0  0  0  0  0  0  0  0
    9.0248    5.5322    0.1098 H   0  0  0  0  0  0  0  0  0  0  0  0
    9.1816    4.1027    1.1832 H   0  0  0  0  0  0  0  0  0  0  0  0
    6.9672    4.5035    0.4643 H   0  0  0  0  0  0  0  0  0  0  0  0
    4.6068    3.9495    0.3633 H   0  0  0  0  0  0  0  0  0  0  0  0
    2.3645   -6.2971   -0.7840 H   0  0  0  0  0  0  0  0  0  0  0  0
    3.7945   -8.2972   -0.7410 H   0  0  0  0  0  0  0  0  0  0  0  0
    8.8360   -8.8586   -0.5513 H   0  0  0  0  0  0  0  0  0  0  0  0
    8.6081   -7.7560   -1.9232 H   0  0  0  0  0  0  0  0  0  0  0  0
    8.2464   -7.2040   -0.2559 H   0  0  0  0  0  0  0  0  0  0  0  0
    7.1448   -5.9167   -1.9218 H   0  0  0  0  0  0  0  0  0  0  0  0
    5.7257   -3.9528   -2.0108 H   0  0  0  0  0  0  0  0  0  0  0  0
    2.3585   -5.1692   -3.4501 H   0  0  0  0  0  0  0  0  0  0  0  0
    0.0564   -5.3278   -4.3142 H   0  0  0  0  0  0  0  0  0  0  0  0
   -4.1765   -2.7348   -3.3242 H   0  0  0  0  0  0  0  0  0  0  0  0
   -2.6698   -1.9854   -2.7380 H   0  0  0  0  0  0  0  0  0  0  0  0
   -3.5731   -3.1398   -1.7039 H   0  0  0  0  0  0  0  0  0  0  0  0
   -1.3313   -2.9679   -1.0288 H   0  0  0  0  0  0  0  0  0  0  0  0
    0.9427   -2.8156   -0.1732 H   0  0  0  0  0  0  0  0  0  0  0  0
    6.5801   -2.6372    0.7145 H   0  0  0  0  0  0  0  0  0  0  0  0
    7.4982   -7.6900    2.2300 H   0  0  0  0  0  0  0  0  0  0  0  0
    2.4566   -7.2091    2.1554 H   0  0  0  0  0  0  0  0  0  0  0  0
    3.3516  -10.5193    2.0747 H   0  0  0  0  0  0  0  0  0  0  0  0
    2.5351   -9.9327    4.5434 H   0  0  0  0  0  0  0  0  0  0  0  0
    3.0811  -12.5008    4.4331 H   0  0  0  0  0  0  0  0  0  0  0  0
    5.7218  -12.7870    4.4633 H   0  0  0  0  0  0  0  0  0  0  0  0
    6.8021  -10.3960    4.5940 H   0  0  0  0  0  0  0  0  0  0  0  0
    4.8346   -8.5939    4.9135 H   0  0  0  0  0  0  0  0  0  0  0  0
    4.6781   -9.9126    6.0967 H   0  0  0  0  0  0  0  0  0  0  0  0
    5.9379  -10.7919    2.1013 H   0  0  0  0  0  0  0  0  0  0  0  0
  1  2  2  0  0  0  0
  2  3  1  0  0  0  0
  3  4  2  0  0  0  0
  3  5  1  0  0  0  0
  5  6  2  0  0  0  0
  6  7  1  0  0  0  0
  7  8  2  0  0  0  0
  8  9  1  0  0  0  0
  9 10  2  0  0  0  0
 10 11  1  0  0  0  0
 11 12  2  0  0  0  0
 12 13  1  0  0  0  0
 13 14  3  0  0  0  0
 12 15  1  0  0  0  0
 15 16  3  0  0  0  0
  8 17  1  0  0  0  0
 17 18  1  0  0  0  0
 18 19  1  0  0  0  0
 19 20  2  0  0  0  0
 20 21  1  0  0  0  0
 21 22  1  0  0  0  0
 21 23  1  0  0  0  0
  1 24  1  0  0  0  0
 24 25  2  0  0  0  0
 25 26  1  0  0  0  0
 26 27  1  0  0  0  0
 27 28  2  0  0  0  0
 27 29  1  0  0  0  0
 29 30  1  0  0  0  0
 30 31  2  0  0  0  0
 30 32  1  0  0  0  0
 32 33  2  0  0  0  0
 33 34  1  0  0  0  0
 34 35  2  0  0  0  0
 35 36  1  0  0  0  0
 36 37  2  0  0  0  0
 36 38  1  0  0  0  0
 34 39  1  0  0  0  0
 39 40  2  0  0  0  0
 40 41  1  0  0  0  0
 41 42  1  0  0  0  0
 42 43  2  0  0  0  0
 43 44  1  0  0  0  0
 44 45  2  0  0  0  0
 45 46  1  0  0  0  0
 46 47  1  0  0  0  0
 45 48  1  0  0  0  0
 48 49  2  0  0  0  0
 41 50  1  0  0  0  0
 50 51  2  0  0  0  0
 51 52  1  0  0  0  0
 52 53  2  0  0  0  0
 53 54  1  0  0  0  0
 54 55  1  0  0  0  0
 53 56  1  0  0  0  0
 56 57  2  0  0  0  0
 40 58  1  0  0  0  0
 58 59  1  0  0  0  0
 59 60  1  0  0  0  0
 60 61  2  0  0  0  0
 61 62  1  0  0  0  0
 62 63  1  0  0  0  0
 63 64  2  0  0  0  0
 64 65  1  0  0  0  0
 65 66  2  0  0  0  0
 66 67  1  0  0  0  0
 67 68  1  0  0  0  0
 66 69  1  0  0  0  0
 69 70  2  0  0  0  0
 62 71  1  0  0  0  0
 71 72  2  0  0  0  0
 72 73  1  0  0  0  0
 73 74  2  0  0  0  0
 74 75  1  0  0  0  0
 75 76  1  0  0  0  0
 74 77  1  0  0  0  0
 77 78  2  0  0  0  0
 61 79  1  0  0  0  0
 79 80  1  0  0  0  0
 60 81  1  0  0  0  0
 81 82  2  0  0  0  0
 82 83  1  0  0  0  0
 83 84  1  0  0  0  0
 84 85  2  0  0  0  0
 85 86  1  0  0  0  0
 86 87  2  0  0  0  0
 87 88  1  0  0  0  0
 88 89  1  0  0  0  0
 87 90  1  0  0  0  0
 90 91  2  0  0  0  0
 83 92  1  0  0  0  0
 92 93  2  0  0  0  0
 93 94  1  0  0  0  0
 94 95  2  0  0  0  0
 95 96  1  0  0  0  0
 96 97  1  0  0  0  0
 95 98  1  0  0  0  0
 98 99  2  0  0  0  0
 82100  1  0  0  0  0
100101  1  0  0  0  0
101102  1  0  0  0  0
102103  2  0  0  0  0
103104  1  0  0  0  0
104105  1  0  0  0  0
105106  2  0  0  0  0
106107  1  0  0  0  0
107108  2  0  0  0  0
108109  1  0  0  0  0
109110  1  0  0  0  0
108111  1  0  0  0  0
111112  2  0  0  0  0
104113  1  0  0  0  0
113114  2  0  0  0  0
114115  1  0  0  0  0
115116  2  0  0  0  0
116117  1  0  0  0  0
117118  1  0  0  0  0
116119  1  0  0  0  0
119120  2  0  0  0  0
103121  1  0  0  0  0
121122  1  0  0  0  0
102123  1  0  0  0  0
123124  2  0  0  0  0
124125  1  0  0  0  0
125126  2  0  0  0  0
125127  1  0  0  0  0
127128  2  0  0  0  0
128129  1  0  0  0  0
129130  2  0  0  0  0
130131  1  0  0  0  0
131132  2  0  0  0  0
132133  1  0  0  0  0
133134  2  0  0  0  0
134135  1  0  0  0  0
135136  3  0  0  0  0
134137  1  0  0  0  0
137138  3  0  0  0  0
130139  1  0  0  0  0
139140  1  0  0  0  0
140141  1  0  0  0  0
141142  2  0  0  0  0
142143  1  0  0  0  0
143144  1  0  0  0  0
143145  1  0  0  0  0
 11  2  1  0  0  0  0
 23 17  1  0  0  0  0
 37 24  1  0  0  0  0
 80 39  1  0  0  0  0
122 81  1  0  0  0  0
133124  1  0  0  0  0
145139  1  0  0  0  0
 10  5  1  0  0  0  0
 22 18  1  0  0  0  0
 38 26  2  0  0  0  0
 49 42  1  0  0  0  0
 57 50  1  0  0  0  0
 79 58  2  0  0  0  0
 91 84  1  0  0  0  0
 99 92  1  0  0  0  0
121100  2  0  0  0  0
132127  1  0  0  0  0
144140  1  0  0  0  0
 23  7  1  0  0  0  0
 38 32  1  0  0  0  0
 70 63  1  0  0  0  0
 78 71  1  0  0  0  0
112105  1  0  0  0  0
120113  1  0  0  0  0
145129  1  0  0  0  0
  1146  1  0  0  0  0
  6147  1  0  0  0  0
  9148  1  0  0  0  0
 17149  1  0  0  0  0
 18150  1  0  0  0  0
 19151  1  0  0  0  0
 20152  1  0  0  0  0
 21153  1  0  0  0  0
 22154  1  0  0  0  0
 22155  1  0  0  0  0
 23156  1  0  0  0  0
 25157  1  0  0  0  0
 29158  1  0  0  0  0
 33159  1  0  0  0  0
 35160  1  0  0  0  0
 37161  1  0  0  0  0
 43162  1  0  0  0  0
 44163  1  0  0  0  0
 47164  1  0  0  0  0
 47165  1  0  0  0  0
 47166  1  0  0  0  0
 48167  1  0  0  0  0
 49168  1  0  0  0  0
 51169  1  0  0  0  0
 52170  1  0  0  0  0
 55171  1  0  0  0  0
 55172  1  0  0  0  0
 55173  1  0  0  0  0
 56174  1  0  0  0  0
 57175  1  0  0  0  0
 64176  1  0  0  0  0
 65177  1  0  0  0  0
 68178  1  0  0  0  0
 68179  1  0  0  0  0
 68180  1  0  0  0  0
 69181  1  0  0  0  0
 70182  1  0  0  0  0
 72183  1  0  0  0  0
 73184  1  0  0  0  0
 76185  1  0  0  0  0
 76186  1  0  0  0  0
 76187  1  0  0  0  0
 77188  1  0  0  0  0
 78189  1  0  0  0  0
 85190  1  0  0  0  0
 86191  1  0  0  0  0
 89192  1  0  0  0  0
 89193  1  0  0  0  0
 89194  1  0  0  0  0
 90195  1  0  0  0  0
 91196  1  0  0  0  0
 93197  1  0  0  0  0
 94198  1  0  0  0  0
 97199  1  0  0  0  0
 97200  1  0  0  0  0
 97201  1  0  0  0  0
 98202  1  0  0  0  0
 99203  1  0  0  0  0
106204  1  0  0  0  0
107205  1  0  0  0  0
110206  1  0  0  0  0
110207  1  0  0  0  0
110208  1  0  0  0  0
111209  1  0  0  0  0
112210  1  0  0  0  0
114211  1  0  0  0  0
115212  1  0  0  0  0
118213  1  0  0  0  0
118214  1  0  0  0  0
118215  1  0  0  0  0
119216  1  0  0  0  0
120217  1  0  0  0  0
123218  1  0  0  0  0
128219  1  0  0  0  0
131220  1  0  0  0  0
139221  1  0  0  0  0
140222  1  0  0  0  0
141223  1  0  0  0  0
142224  1  0  0  0  0
143225  1  0  0  0  0
144226  1  0  0  0  0
144227  1  0  0  0  0
145228  1  0  0  0  0
M  END
