
  xtb     02072223283D
 energy: -356.699471183086 gnorm: 0.000378453611 xtb: 6.4.1 (unknown)
208231  0     0  0            999 V2000
    8.0625   -1.0758    6.1773 C   0  0  0  0  0  0  0  0  0  0  0  0
    8.3941   -2.3720    6.4367 C   0  0  0  0  0  0  0  0  0  0  0  0
    7.6453   -3.5727    6.0271 C   0  0  0  0  0  0  0  0  0  0  0  0
    6.7518   -3.6392    5.2026 O   0  0  0  0  0  0  0  0  0  0  0  0
    8.1830   -4.6803    6.8325 C   0  0  0  0  0  0  0  0  0  0  0  0
    7.7294   -5.9978    6.8553 C   0  0  0  0  0  0  0  0  0  0  0  0
    8.4170   -6.8113    7.7229 C   0  0  0  0  0  0  0  0  0  0  0  0
    9.4741   -6.3479    8.5189 C   0  0  0  0  0  0  0  0  0  0  0  0
    9.9331   -5.0523    8.5060 C   0  0  0  0  0  0  0  0  0  0  0  0
    9.2547   -4.2095    7.6213 C   0  0  0  0  0  0  0  0  0  0  0  0
    9.4655   -2.7963    7.3232 C   0  0  0  0  0  0  0  0  0  0  0  0
   10.5276   -2.0344    7.7274 C   0  0  0  0  0  0  0  0  0  0  0  0
   10.7953   -0.7149    7.2959 C   0  0  0  0  0  0  0  0  0  0  0  0
   11.1243    0.3329    6.9620 N   0  0  0  0  0  0  0  0  0  0  0  0
   11.5535   -2.4959    8.5793 C   0  0  0  0  0  0  0  0  0  0  0  0
   12.4131   -2.8112    9.2718 N   0  0  0  0  0  0  0  0  0  0  0  0
    9.6971   -7.6992    9.1491 C   0  0  0  0  0  0  0  0  0  0  0  0
   10.9008   -8.5359    8.6497 C   0  0  0  0  0  0  0  0  0  0  0  0
   11.1692   -8.0969    7.2314 C   0  0  0  0  0  0  0  0  0  0  0  0
   10.1719   -8.5369    6.4758 C   0  0  0  0  0  0  0  0  0  0  0  0
    9.2106   -9.2809    7.3696 C   0  0  0  0  0  0  0  0  0  0  0  0
   10.1945   -9.8761    8.3895 C   0  0  0  0  0  0  0  0  0  0  0  0
    8.5224   -8.2165    8.2601 C   0  0  0  0  0  0  0  0  0  0  0  0
    7.0425   -0.5489    5.3576 C   0  0  0  0  0  0  0  0  0  0  0  0
    6.0438   -1.4696    4.2608 S   0  0  0  0  0  0  0  0  0  0  0  0
    5.2822   -0.0309    3.6834 C   0  0  0  0  0  0  0  0  0  0  0  0
    5.7885    1.1178    4.2848 C   0  0  0  0  0  0  0  0  0  0  0  0
    5.5286    2.4860    3.8128 C   0  0  0  0  0  0  0  0  0  0  0  0
    4.9780    2.7330    2.7530 O   0  0  0  0  0  0  0  0  0  0  0  0
    6.0811    3.5170    4.6890 C   0  0  0  0  0  0  0  0  0  0  0  0
    5.8407    4.8603    4.5499 C   0  0  0  0  0  0  0  0  0  0  0  0
    5.0616    5.5623    3.4979 C   0  0  0  0  0  0  0  0  0  0  0  0
    5.9325    5.8160    2.2637 C   0  0  0  0  0  0  0  0  0  0  0  0
    6.6403    5.7605    5.7943 S   0  0  0  0  0  0  0  0  0  0  0  0
    7.3111    4.3324    6.5028 C   0  0  0  0  0  0  0  0  0  0  0  0
    8.2144    4.4380    7.6765 C   0  0  0  0  0  0  0  0  0  0  0  0
    9.6817    4.3158    7.2517 C   0  0  0  0  0  0  0  0  0  0  0  0
    6.9250    3.2126    5.8059 C   0  0  0  0  0  0  0  0  0  0  0  0
    7.3115    1.8499    6.1648 C   0  0  0  0  0  0  0  0  0  0  0  0
    7.9880    1.5892    7.1472 O   0  0  0  0  0  0  0  0  0  0  0  0
    6.7522    0.8188    5.2710 C   0  0  0  0  0  0  0  0  0  0  0  0
    4.1650   -0.1238    2.7988 C   0  0  0  0  0  0  0  0  0  0  0  0
    3.8534   -1.0777    1.8626 C   0  0  0  0  0  0  0  0  0  0  0  0
    2.6064   -0.7024    1.3026 C   0  0  0  0  0  0  0  0  0  0  0  0
    1.7801   -1.2365    0.2934 C   0  0  0  0  0  0  0  0  0  0  0  0
    2.0898   -2.3872   -0.5102 C   0  0  0  0  0  0  0  0  0  0  0  0
    1.2397   -3.0767   -1.3368 C   0  0  0  0  0  0  0  0  0  0  0  0
    1.8948   -4.0703   -2.0862 C   0  0  0  0  0  0  0  0  0  0  0  0
    1.0687   -5.0421   -3.2451 Cl  0  0  0  0  0  0  0  0  0  0  0  0
    3.2350   -4.1754   -1.8400 C   0  0  0  0  0  0  0  0  0  0  0  0
    4.2308   -5.0598   -2.5043 C   0  0  0  0  0  0  0  0  0  0  0  0
    4.7689   -4.4041   -3.7795 C   0  0  0  0  0  0  0  0  0  0  0  0
    3.7076   -3.0149   -0.6506 S   0  0  0  0  0  0  0  0  0  0  0  0
    0.6246   -0.4885    0.0640 C   0  0  0  0  0  0  0  0  0  0  0  0
    0.2402    0.6781    0.7740 C   0  0  0  0  0  0  0  0  0  0  0  0
    1.0524    1.1928    1.8044 C   0  0  0  0  0  0  0  0  0  0  0  0
    0.7544    2.3616    2.5878 C   0  0  0  0  0  0  0  0  0  0  0  0
    2.0292    3.1743    3.4520 S   0  0  0  0  0  0  0  0  0  0  0  0
    0.9382    4.3641    4.0753 C   0  0  0  0  0  0  0  0  0  0  0  0
    1.4173    5.4694    4.9525 C   0  0  0  0  0  0  0  0  0  0  0  0
    2.2963    4.9565    6.0916 C   0  0  0  0  0  0  0  0  0  0  0  0
   -0.3311    4.1083    3.6395 C   0  0  0  0  0  0  0  0  0  0  0  0
   -0.4475    2.9838    2.8001 C   0  0  0  0  0  0  0  0  0  0  0  0
   -1.6937    5.0734    4.0690 Cl  0  0  0  0  0  0  0  0  0  0  0  0
    2.2347    0.4778    1.9959 C   0  0  0  0  0  0  0  0  0  0  0  0
    3.1833    0.8103    2.8893 O   0  0  0  0  0  0  0  0  0  0  0  0
   -0.9399    1.1345    0.1299 C   0  0  0  0  0  0  0  0  0  0  0  0
   -1.1783    0.2713   -0.9048 C   0  0  0  0  0  0  0  0  0  0  0  0
   -0.2594   -0.7316   -0.9271 O   0  0  0  0  0  0  0  0  0  0  0  0
   -2.1506    0.2885   -1.9522 C   0  0  0  0  0  0  0  0  0  0  0  0
   -1.9701   -0.1529   -3.2586 C   0  0  0  0  0  0  0  0  0  0  0  0
   -0.7726   -0.5330   -3.8326 N   0  0  0  0  0  0  0  0  0  0  0  0
   -0.7795   -1.5952   -4.7533 C   0  0  0  0  0  0  0  0  0  0  0  0
   -1.5913   -2.7040   -4.5397 C   0  0  0  0  0  0  0  0  0  0  0  0
   -1.5949   -3.7591   -5.4314 C   0  0  0  0  0  0  0  0  0  0  0  0
   -0.7737   -3.7233   -6.5492 C   0  0  0  0  0  0  0  0  0  0  0  0
   -0.6708   -5.0138   -7.7473 S   0  0  0  0  0  0  0  0  0  0  0  0
   -1.8366   -6.2672   -7.1437 C   0  0  0  0  0  0  0  0  0  0  0  0
    0.0397   -2.6116   -6.7676 C   0  0  0  0  0  0  0  0  0  0  0  0
    0.0351   -1.5567   -5.8844 C   0  0  0  0  0  0  0  0  0  0  0  0
    0.4400    0.0218   -3.4030 C   0  0  0  0  0  0  0  0  0  0  0  0
    1.6079   -0.7417   -3.3765 C   0  0  0  0  0  0  0  0  0  0  0  0
    2.7453   -0.2496   -2.7775 C   0  0  0  0  0  0  0  0  0  0  0  0
    2.7460    1.0077   -2.1787 C   0  0  0  0  0  0  0  0  0  0  0  0
    4.1740    1.4537   -1.2433 S   0  0  0  0  0  0  0  0  0  0  0  0
    3.5932    2.8364   -0.2221 C   0  0  0  0  0  0  0  0  0  0  0  0
    1.6306    1.8226   -2.3258 C   0  0  0  0  0  0  0  0  0  0  0  0
    0.4956    1.3370   -2.9429 C   0  0  0  0  0  0  0  0  0  0  0  0
   -3.1927   -0.0831   -3.9719 C   0  0  0  0  0  0  0  0  0  0  0  0
   -3.6450   -0.4590   -5.5915 S   0  0  0  0  0  0  0  0  0  0  0  0
   -5.3122    0.0462   -5.2698 C   0  0  0  0  0  0  0  0  0  0  0  0
   -5.4581    0.5826   -3.9740 C   0  0  0  0  0  0  0  0  0  0  0  0
   -6.5395    1.2535   -3.4790 N   0  0  0  0  0  0  0  0  0  0  0  0
   -7.4803    1.8953   -4.2929 C   0  0  0  0  0  0  0  0  0  0  0  0
   -8.8358    1.8394   -3.9600 C   0  0  0  0  0  0  0  0  0  0  0  0
   -9.7782    2.4058   -4.7881 C   0  0  0  0  0  0  0  0  0  0  0  0
   -9.3943    3.0515   -5.9630 C   0  0  0  0  0  0  0  0  0  0  0  0
  -10.6919    3.6541   -6.9868 S   0  0  0  0  0  0  0  0  0  0  0  0
   -9.8392    4.3807   -8.4133 C   0  0  0  0  0  0  0  0  0  0  0  0
   -8.0407    3.1705   -6.2610 C   0  0  0  0  0  0  0  0  0  0  0  0
   -7.0970    2.5953   -5.4350 C   0  0  0  0  0  0  0  0  0  0  0  0
   -6.7226    1.3245   -2.0812 C   0  0  0  0  0  0  0  0  0  0  0  0
   -6.9780    2.5509   -1.4792 C   0  0  0  0  0  0  0  0  0  0  0  0
   -7.1352    2.6388   -0.1095 C   0  0  0  0  0  0  0  0  0  0  0  0
   -7.0404    1.4957    0.6741 C   0  0  0  0  0  0  0  0  0  0  0  0
   -7.2002    1.4857    2.4294 S   0  0  0  0  0  0  0  0  0  0  0  0
   -7.2732    3.2440    2.8759 C   0  0  0  0  0  0  0  0  0  0  0  0
   -6.8168    0.2608    0.0656 C   0  0  0  0  0  0  0  0  0  0  0  0
   -6.6585    0.1727   -1.2988 C   0  0  0  0  0  0  0  0  0  0  0  0
   -4.2501    0.4490   -3.2476 C   0  0  0  0  0  0  0  0  0  0  0  0
   -3.7622    0.8952   -1.6445 S   0  0  0  0  0  0  0  0  0  0  0  0
   -6.2329   -0.1160   -6.3101 C   0  0  0  0  0  0  0  0  0  0  0  0
   -7.5983   -0.2275   -6.1648 C   0  0  0  0  0  0  0  0  0  0  0  0
   -8.2583   -0.7413   -4.9533 C   0  0  0  0  0  0  0  0  0  0  0  0
   -7.7261   -1.0964   -3.9172 O   0  0  0  0  0  0  0  0  0  0  0  0
   -9.6902   -0.8617   -5.2970 C   0  0  0  0  0  0  0  0  0  0  0  0
  -10.7197   -1.2903   -4.4659 C   0  0  0  0  0  0  0  0  0  0  0  0
  -11.9628   -1.2598   -5.0532 C   0  0  0  0  0  0  0  0  0  0  0  0
  -12.1671   -0.8422   -6.3737 C   0  0  0  0  0  0  0  0  0  0  0  0
  -11.1572   -0.4228   -7.2077 C   0  0  0  0  0  0  0  0  0  0  0  0
   -9.8880   -0.4436   -6.6275 C   0  0  0  0  0  0  0  0  0  0  0  0
   -8.5989   -0.0308   -7.1760 C   0  0  0  0  0  0  0  0  0  0  0  0
   -8.3992    0.5999   -8.3801 C   0  0  0  0  0  0  0  0  0  0  0  0
   -7.1730    1.1720   -8.7711 C   0  0  0  0  0  0  0  0  0  0  0  0
   -6.2289    1.7183   -9.1333 N   0  0  0  0  0  0  0  0  0  0  0  0
   -9.4016    0.8421   -9.3372 C   0  0  0  0  0  0  0  0  0  0  0  0
  -10.1610    1.0850  -10.1650 N   0  0  0  0  0  0  0  0  0  0  0  0
  -13.6562   -1.0714   -6.3009 C   0  0  0  0  0  0  0  0  0  0  0  0
  -14.2273   -2.3431   -6.9753 C   0  0  0  0  0  0  0  0  0  0  0  0
  -13.1159   -3.3629   -6.9792 C   0  0  0  0  0  0  0  0  0  0  0  0
  -12.9227   -3.7563   -5.7275 C   0  0  0  0  0  0  0  0  0  0  0  0
  -13.9003   -3.0093   -4.8543 C   0  0  0  0  0  0  0  0  0  0  0  0
  -15.0876   -2.8849   -5.8224 C   0  0  0  0  0  0  0  0  0  0  0  0
  -13.4289   -1.5345   -4.8273 C   0  0  0  0  0  0  0  0  0  0  0  0
    8.6238   -0.3085    6.6992 H   0  0  0  0  0  0  0  0  0  0  0  0
    6.9067   -6.3110    6.2316 H   0  0  0  0  0  0  0  0  0  0  0  0
   10.7417   -4.7088    9.1295 H   0  0  0  0  0  0  0  0  0  0  0  0
    9.5785   -7.7465   10.2297 H   0  0  0  0  0  0  0  0  0  0  0  0
   11.7557   -8.5411    9.3203 H   0  0  0  0  0  0  0  0  0  0  0  0
   12.0015   -7.4822    6.9428 H   0  0  0  0  0  0  0  0  0  0  0  0
   10.0042   -8.3633    5.4290 H   0  0  0  0  0  0  0  0  0  0  0  0
    8.5269   -9.9659    6.8751 H   0  0  0  0  0  0  0  0  0  0  0  0
   10.8555  -10.6220    7.9509 H   0  0  0  0  0  0  0  0  0  0  0  0
    9.7081  -10.2890    9.2723 H   0  0  0  0  0  0  0  0  0  0  0  0
    7.6364   -8.6035    8.7597 H   0  0  0  0  0  0  0  0  0  0  0  0
    4.2183    4.9338    3.2042 H   0  0  0  0  0  0  0  0  0  0  0  0
    4.6927    6.5126    3.8889 H   0  0  0  0  0  0  0  0  0  0  0  0
    6.2591    4.8688    1.8433 H   0  0  0  0  0  0  0  0  0  0  0  0
    5.3603    6.3512    1.5110 H   0  0  0  0  0  0  0  0  0  0  0  0
    6.8070    6.4077    2.5259 H   0  0  0  0  0  0  0  0  0  0  0  0
    8.0523    5.3965    8.1738 H   0  0  0  0  0  0  0  0  0  0  0  0
    7.9873    3.6273    8.3717 H   0  0  0  0  0  0  0  0  0  0  0  0
    9.9270    5.0624    6.4992 H   0  0  0  0  0  0  0  0  0  0  0  0
   10.3254    4.4633    8.1141 H   0  0  0  0  0  0  0  0  0  0  0  0
    9.8726    3.3257    6.8477 H   0  0  0  0  0  0  0  0  0  0  0  0
    4.4603   -1.9218    1.6099 H   0  0  0  0  0  0  0  0  0  0  0  0
    0.1876   -2.8845   -1.4142 H   0  0  0  0  0  0  0  0  0  0  0  0
    3.7512   -6.0077   -2.7584 H   0  0  0  0  0  0  0  0  0  0  0  0
    5.0568   -5.2576   -1.8193 H   0  0  0  0  0  0  0  0  0  0  0  0
    5.4964   -5.0549   -4.2571 H   0  0  0  0  0  0  0  0  0  0  0  0
    5.2495   -3.4573   -3.5437 H   0  0  0  0  0  0  0  0  0  0  0  0
    3.9574   -4.2173   -4.4789 H   0  0  0  0  0  0  0  0  0  0  0  0
    0.5490    5.9936    5.3568 H   0  0  0  0  0  0  0  0  0  0  0  0
    1.9898    6.1829    4.3515 H   0  0  0  0  0  0  0  0  0  0  0  0
    1.7345    4.2747    6.7256 H   0  0  0  0  0  0  0  0  0  0  0  0
    2.6474    5.7866    6.6994 H   0  0  0  0  0  0  0  0  0  0  0  0
    3.1587    4.4253    5.6947 H   0  0  0  0  0  0  0  0  0  0  0  0
   -1.3868    2.6382    2.4142 H   0  0  0  0  0  0  0  0  0  0  0  0
   -1.5115    2.0127    0.3431 H   0  0  0  0  0  0  0  0  0  0  0  0
   -2.2174   -2.7479   -3.6602 H   0  0  0  0  0  0  0  0  0  0  0  0
   -2.2326   -4.6047   -5.2317 H   0  0  0  0  0  0  0  0  0  0  0  0
   -1.5231   -6.6260   -6.1676 H   0  0  0  0  0  0  0  0  0  0  0  0
   -1.7932   -7.0773   -7.8650 H   0  0  0  0  0  0  0  0  0  0  0  0
   -2.8413   -5.8556   -7.1117 H   0  0  0  0  0  0  0  0  0  0  0  0
    0.6705   -2.5884   -7.6429 H   0  0  0  0  0  0  0  0  0  0  0  0
    0.6627   -0.6960   -6.0603 H   0  0  0  0  0  0  0  0  0  0  0  0
    1.6073   -1.7389   -3.7871 H   0  0  0  0  0  0  0  0  0  0  0  0
    3.6384   -0.8526   -2.7268 H   0  0  0  0  0  0  0  0  0  0  0  0
    2.5886    2.6232    0.1291 H   0  0  0  0  0  0  0  0  0  0  0  0
    4.2691    2.8928    0.6259 H   0  0  0  0  0  0  0  0  0  0  0  0
    3.6232    3.7617   -0.7909 H   0  0  0  0  0  0  0  0  0  0  0  0
    1.6308    2.8353   -1.9550 H   0  0  0  0  0  0  0  0  0  0  0  0
   -0.3682    1.9780   -3.0409 H   0  0  0  0  0  0  0  0  0  0  0  0
   -9.1408    1.3268   -3.0604 H   0  0  0  0  0  0  0  0  0  0  0  0
  -10.8280    2.3350   -4.5485 H   0  0  0  0  0  0  0  0  0  0  0  0
   -9.2514    3.6249   -8.9256 H   0  0  0  0  0  0  0  0  0  0  0  0
   -9.2230    5.2157   -8.0934 H   0  0  0  0  0  0  0  0  0  0  0  0
  -10.6279    4.7329   -9.0708 H   0  0  0  0  0  0  0  0  0  0  0  0
   -7.7064    3.6966   -7.1403 H   0  0  0  0  0  0  0  0  0  0  0  0
   -6.0512    2.6844   -5.6876 H   0  0  0  0  0  0  0  0  0  0  0  0
   -7.0465    3.4410   -2.0875 H   0  0  0  0  0  0  0  0  0  0  0  0
   -7.3259    3.6037    0.3314 H   0  0  0  0  0  0  0  0  0  0  0  0
   -7.2861    3.2684    3.9612 H   0  0  0  0  0  0  0  0  0  0  0  0
   -6.3890    3.7547    2.5063 H   0  0  0  0  0  0  0  0  0  0  0  0
   -8.1829    3.6934    2.4882 H   0  0  0  0  0  0  0  0  0  0  0  0
   -6.7707   -0.6250    0.6801 H   0  0  0  0  0  0  0  0  0  0  0  0
   -6.5095   -0.7807   -1.7801 H   0  0  0  0  0  0  0  0  0  0  0  0
   -5.8079   -0.1941   -7.3040 H   0  0  0  0  0  0  0  0  0  0  0  0
  -10.5228   -1.6000   -3.4511 H   0  0  0  0  0  0  0  0  0  0  0  0
  -11.3264   -0.1044   -8.2231 H   0  0  0  0  0  0  0  0  0  0  0  0
  -14.2805   -0.1962   -6.4699 H   0  0  0  0  0  0  0  0  0  0  0  0
  -14.7199   -2.1664   -7.9277 H   0  0  0  0  0  0  0  0  0  0  0  0
  -12.5621   -3.6415   -7.8566 H   0  0  0  0  0  0  0  0  0  0  0  0
  -12.1748   -4.4289   -5.3499 H   0  0  0  0  0  0  0  0  0  0  0  0
  -14.0957   -3.4396   -3.8753 H   0  0  0  0  0  0  0  0  0  0  0  0
  -15.5456   -3.8456   -6.0534 H   0  0  0  0  0  0  0  0  0  0  0  0
  -15.8510   -2.1850   -5.4849 H   0  0  0  0  0  0  0  0  0  0  0  0
  -13.9059   -0.9610   -4.0345 H   0  0  0  0  0  0  0  0  0  0  0  0
  1  2  2  0  0  0  0
  2  3  1  0  0  0  0
  3  4  2  0  0  0  0
  3  5  1  0  0  0  0
  5  6  2  0  0  0  0
  6  7  1  0  0  0  0
  7  8  2  0  0  0  0
  8  9  1  0  0  0  0
  9 10  2  0  0  0  0
 10 11  1  0  0  0  0
 11 12  2  0  0  0  0
 12 13  1  0  0  0  0
 13 14  3  0  0  0  0
 12 15  1  0  0  0  0
 15 16  3  0  0  0  0
  8 17  1  0  0  0  0
 17 18  1  0  0  0  0
 18 19  1  0  0  0  0
 19 20  2  0  0  0  0
 20 21  1  0  0  0  0
 21 22  1  0  0  0  0
 21 23  1  0  0  0  0
  1 24  1  0  0  0  0
 24 25  1  0  0  0  0
 25 26  1  0  0  0  0
 26 27  2  0  0  0  0
 27 28  1  0  0  0  0
 28 29  2  0  0  0  0
 28 30  1  0  0  0  0
 30 31  2  0  0  0  0
 31 32  1  0  0  0  0
 32 33  1  0  0  0  0
 31 34  1  0  0  0  0
 34 35  1  0  0  0  0
 35 36  1  0  0  0  0
 36 37  1  0  0  0  0
 35 38  2  0  0  0  0
 38 39  1  0  0  0  0
 39 40  2  0  0  0  0
 39 41  1  0  0  0  0
 26 42  1  0  0  0  0
 42 43  2  0  0  0  0
 43 44  1  0  0  0  0
 44 45  2  0  0  0  0
 45 46  1  0  0  0  0
 46 47  2  0  0  0  0
 47 48  1  0  0  0  0
 48 49  1  0  0  0  0
 48 50  2  0  0  0  0
 50 51  1  0  0  0  0
 51 52  1  0  0  0  0
 50 53  1  0  0  0  0
 45 54  1  0  0  0  0
 54 55  2  0  0  0  0
 55 56  1  0  0  0  0
 56 57  1  0  0  0  0
 57 58  1  0  0  0  0
 58 59  1  0  0  0  0
 59 60  1  0  0  0  0
 60 61  1  0  0  0  0
 59 62  2  0  0  0  0
 62 63  1  0  0  0  0
 62 64  1  0  0  0  0
 56 65  2  0  0  0  0
 65 66  1  0  0  0  0
 55 67  1  0  0  0  0
 67 68  2  0  0  0  0
 68 69  1  0  0  0  0
 68 70  1  0  0  0  0
 70 71  2  0  0  0  0
 71 72  1  0  0  0  0
 72 73  1  0  0  0  0
 73 74  2  0  0  0  0
 74 75  1  0  0  0  0
 75 76  2  0  0  0  0
 76 77  1  0  0  0  0
 77 78  1  0  0  0  0
 76 79  1  0  0  0  0
 79 80  2  0  0  0  0
 72 81  1  0  0  0  0
 81 82  2  0  0  0  0
 82 83  1  0  0  0  0
 83 84  2  0  0  0  0
 84 85  1  0  0  0  0
 85 86  1  0  0  0  0
 84 87  1  0  0  0  0
 87 88  2  0  0  0  0
 71 89  1  0  0  0  0
 89 90  1  0  0  0  0
 90 91  1  0  0  0  0
 91 92  2  0  0  0  0
 92 93  1  0  0  0  0
 93 94  1  0  0  0  0
 94 95  2  0  0  0  0
 95 96  1  0  0  0  0
 96 97  2  0  0  0  0
 97 98  1  0  0  0  0
 98 99  1  0  0  0  0
 97100  1  0  0  0  0
100101  2  0  0  0  0
 93102  1  0  0  0  0
102103  2  0  0  0  0
103104  1  0  0  0  0
104105  2  0  0  0  0
105106  1  0  0  0  0
106107  1  0  0  0  0
105108  1  0  0  0  0
108109  2  0  0  0  0
 92110  1  0  0  0  0
110111  1  0  0  0  0
 91112  1  0  0  0  0
112113  2  0  0  0  0
113114  1  0  0  0  0
114115  2  0  0  0  0
114116  1  0  0  0  0
116117  2  0  0  0  0
117118  1  0  0  0  0
118119  2  0  0  0  0
119120  1  0  0  0  0
120121  2  0  0  0  0
121122  1  0  0  0  0
122123  2  0  0  0  0
123124  1  0  0  0  0
124125  3  0  0  0  0
123126  1  0  0  0  0
126127  3  0  0  0  0
119128  1  0  0  0  0
128129  1  0  0  0  0
129130  1  0  0  0  0
130131  2  0  0  0  0
131132  1  0  0  0  0
132133  1  0  0  0  0
132134  1  0  0  0  0
 11  2  1  0  0  0  0
 23 17  1  0  0  0  0
 41 24  2  0  0  0  0
 66 42  1  0  0  0  0
111 70  1  0  0  0  0
122113  1  0  0  0  0
134128  1  0  0  0  0
 10  5  1  0  0  0  0
 22 18  1  0  0  0  0
 41 27  1  0  0  0  0
 65 44  1  0  0  0  0
 80 73  1  0  0  0  0
 88 81  1  0  0  0  0
110 89  2  0  0  0  0
121116  1  0  0  0  0
133129  1  0  0  0  0
 23  7  1  0  0  0  0
 38 30  1  0  0  0  0
 53 46  1  0  0  0  0
 69 54  1  0  0  0  0
101 94  1  0  0  0  0
109102  1  0  0  0  0
134118  1  0  0  0  0
 63 57  2  0  0  0  0
  1135  1  0  0  0  0
  6136  1  0  0  0  0
  9137  1  0  0  0  0
 17138  1  0  0  0  0
 18139  1  0  0  0  0
 19140  1  0  0  0  0
 20141  1  0  0  0  0
 21142  1  0  0  0  0
 22143  1  0  0  0  0
 22144  1  0  0  0  0
 23145  1  0  0  0  0
 32146  1  0  0  0  0
 32147  1  0  0  0  0
 33148  1  0  0  0  0
 33149  1  0  0  0  0
 33150  1  0  0  0  0
 36151  1  0  0  0  0
 36152  1  0  0  0  0
 37153  1  0  0  0  0
 37154  1  0  0  0  0
 37155  1  0  0  0  0
 43156  1  0  0  0  0
 47157  1  0  0  0  0
 51158  1  0  0  0  0
 51159  1  0  0  0  0
 52160  1  0  0  0  0
 52161  1  0  0  0  0
 52162  1  0  0  0  0
 60163  1  0  0  0  0
 60164  1  0  0  0  0
 61165  1  0  0  0  0
 61166  1  0  0  0  0
 61167  1  0  0  0  0
 63168  1  0  0  0  0
 67169  1  0  0  0  0
 74170  1  0  0  0  0
 75171  1  0  0  0  0
 78172  1  0  0  0  0
 78173  1  0  0  0  0
 78174  1  0  0  0  0
 79175  1  0  0  0  0
 80176  1  0  0  0  0
 82177  1  0  0  0  0
 83178  1  0  0  0  0
 86179  1  0  0  0  0
 86180  1  0  0  0  0
 86181  1  0  0  0  0
 87182  1  0  0  0  0
 88183  1  0  0  0  0
 95184  1  0  0  0  0
 96185  1  0  0  0  0
 99186  1  0  0  0  0
 99187  1  0  0  0  0
 99188  1  0  0  0  0
100189  1  0  0  0  0
101190  1  0  0  0  0
103191  1  0  0  0  0
104192  1  0  0  0  0
107193  1  0  0  0  0
107194  1  0  0  0  0
107195  1  0  0  0  0
108196  1  0  0  0  0
109197  1  0  0  0  0
112198  1  0  0  0  0
117199  1  0  0  0  0
120200  1  0  0  0  0
128201  1  0  0  0  0
129202  1  0  0  0  0
130203  1  0  0  0  0
131204  1  0  0  0  0
132205  1  0  0  0  0
133206  1  0  0  0  0
133207  1  0  0  0  0
134208  1  0  0  0  0
M  END
