170

C         -0.76150       -1.59630       -5.06200
C         -1.95430       -1.99010       -4.49530
C         -2.14390       -2.74960       -3.25440
O         -1.33660       -3.46710       -2.68580
C         -3.53310       -2.51080       -2.83180
C         -4.13500       -2.93270       -1.65100
C         -5.41490       -2.46510       -1.47970
C         -6.04840       -1.63360       -2.41200
C         -5.48190       -1.24980       -3.60650
C         -4.18310       -1.72360       -3.80240
C         -3.26420       -1.55290       -4.92830
C         -3.62750       -1.17120       -6.19500
C         -2.80140       -1.32440       -7.32320
N         -2.21510       -1.51670       -8.29250
C         -4.91810       -0.73010       -6.54770
N         -5.94660       -0.35150       -6.89110
C         -7.28290       -1.48730       -1.55750
C         -7.44090       -0.18170       -0.73630
C         -6.05000        0.33260       -0.45850
C         -5.47760       -0.48620        0.41440
C         -6.47310       -1.57340        0.73830
C         -7.78580       -0.78110        0.63670
C         -6.59120       -2.44400       -0.53570
C          0.52640       -1.69150       -4.52430
C          1.64480       -0.93750       -4.97090
N          1.72060       -0.18840       -6.11550
C          1.19710       -0.58860       -7.35330
C          0.83630        0.38300       -8.28730
C          0.36360        0.01280       -9.52580
C          0.22750       -1.33270       -9.85270
S         -0.39690       -1.72990      -11.45110
C         -1.28200       -3.28390      -11.12660
C          0.59790       -2.30310       -8.92890
C          1.08010       -1.93500       -7.69100
C          2.53840        0.96500       -6.07790
C          3.54010        1.16380       -7.02610
C          4.38530        2.24480       -6.91720
C          4.25410        3.14480       -5.85950
S          5.43440        4.44910       -5.76810
C          5.35290        4.97360       -4.03200
C          3.21940        2.97950       -4.94690
C          2.36740        1.89880       -5.06000
C          2.66440       -0.93840       -3.99740
S          4.18530       -0.10770       -3.81530
C          4.30570       -0.66280       -2.15220
C          3.31680       -1.59070       -1.83670
N          3.19200       -2.21700       -0.60910
C          4.26800       -2.89910       -0.03490
C          4.31290       -3.10690        1.34620
C          5.37780       -3.76630        1.91470
C          6.43180       -4.22710        1.12670
S          7.74150       -5.05430        1.97210
C          8.93110       -5.45170        0.65990
C          6.39440       -4.01830       -0.24500
C          5.32160       -3.36350       -0.81750
C          1.89210       -2.31500       -0.07650
C          1.39460       -3.51640        0.41210
C          0.10270       -3.59340        0.89480
C         -0.71120       -2.46990        0.88230
S         -2.37550       -2.45780        1.46460
C         -2.73880       -4.20770        1.79540
C         -0.21440       -1.26060        0.40250
C          1.07600       -1.18400       -0.06880
C          2.38040       -1.71830       -2.88530
S          0.86210       -2.52070       -2.99840
C          5.05260        0.09150       -1.21410
S          4.61270       -0.02870        0.48550
C          5.40750        1.46380        0.81040
C          5.28380        2.26260        1.95060
C          5.85210        3.53590        1.93740
O          6.62120        3.96900        0.91880
C          6.74690        3.25850       -0.25670
O          7.37310        3.75930       -1.15530
C          6.07050        1.97110       -0.30910
C          5.86690        1.17610       -1.45130
C          5.44590        4.33010        3.02040
C          4.54170        3.68140        3.83430
S          4.26020        2.03570        3.31930
C          3.69880        4.23280        4.83830
C          3.73140        5.47180        5.43640
C          2.59990        5.75450        6.21900
C          2.41030        7.03390        6.90740
C          2.07630        7.08470        8.25800
C          1.91900        8.30430        8.88950
C          2.08690        9.48260        8.18080
C          2.42140        9.43820        6.83740
C          2.58840        8.22160        6.20280
C          1.65170        4.73910        6.17190
S          2.24680        3.37770        5.26130
C          0.32010        4.75260        6.66710
C         -0.75620        4.11750        6.13220
C         -1.97990        3.89000        6.95070
O         -2.23960        4.39970        8.01710
C         -2.76350        2.88270        6.21000
C         -3.95540        2.28010        6.60930
C         -4.46680        1.38760        5.69810
C         -3.83780        1.10350        4.47730
C         -2.66170        1.68520        4.07040
C         -2.13060        2.60470        4.97880
C         -0.96920        3.47790        4.84780
C         -0.39070        3.84320        3.65910
C         -0.62750        3.20660        2.42570
N         -0.74000        2.70460        1.39870
C          0.46380        4.95790        3.52600
N          1.10360        5.89700        3.36030
C         -4.90720        0.12680        4.06100
C         -4.58900       -1.38310        4.17500
C         -3.55530       -1.52290        5.26370
C         -4.14780       -1.26020        6.42080
C         -5.59360       -0.93710        6.13440
C         -5.84280       -1.85590        4.92710
C         -5.60660        0.43840        5.42160
H         -0.82950       -1.01550       -5.97610
H         -3.60520       -3.55790       -0.95230
H         -5.98510       -0.62330       -4.32480
H         -8.22150       -1.80600       -2.00670
H         -8.14100        0.53330       -1.16030
H         -5.61630        1.18170       -0.95350
H         -4.47010       -0.46770        0.78670
H         -6.29660       -2.13260        1.65360
H         -8.67420       -1.41130        0.62430
H         -7.88480       -0.02350        1.41350
H         -7.06500       -3.40520       -0.34470
H          0.91980        1.42820       -8.02920
H          0.07570        0.76240      -10.24590
H         -1.97230       -3.41650      -11.95360
H         -1.82610       -3.17490      -10.19390
H         -0.58870       -4.11950      -11.09010
H          0.52070       -3.35080       -9.17110
H          1.37530       -2.69360       -6.98110
H          3.66430        0.45290       -7.82890
H          5.17710        2.39280       -7.63470
H          4.43940        5.53040       -3.84390
H          6.21330        5.61720       -3.87860
H          5.43210        4.10660       -3.38360
H          3.07170        3.68240       -4.14300
H          1.57080        1.76390       -4.34220
H          3.51090       -2.73670        1.96610
H          5.41330       -3.92500        2.98150
H          9.27640       -4.53900        0.18300
H          8.48080       -6.12960       -0.05940
H          9.76080       -5.94320        1.15850
H          7.18900       -4.36570       -0.88510
H          5.30090       -3.21890       -1.88740
H          2.01770       -4.39800        0.40390
H         -0.25510       -4.54020        1.26520
H         -2.51100       -4.80300        0.91590
H         -3.80220       -4.25720        2.01030
H         -2.17440       -4.55110        2.65790
H         -0.84510       -0.38460        0.40670
H          1.46150       -0.24480       -0.43700
H          6.25750        1.42100       -2.42220
H          5.74800        5.35140        3.15120
H          4.54820        6.16000        5.31710
H          1.96600        6.16740        8.81810
H          1.66490        8.33540        9.93860
H          1.95820       10.43370        8.67550
H          2.55250       10.35500        6.28200
H          2.83100        8.18030        5.15160
H          0.13440        5.30080        7.58410
H         -4.41220        2.52990        7.55410
H         -2.18180        1.45190        3.13430
H         -5.43810        0.36920        3.14250
H         -4.34990       -1.85980        3.22940
H         -2.51860       -1.73280        5.07710
H         -3.70580       -1.20860        7.39870
H         -6.27900       -1.01710        6.97420
H         -5.80640       -2.91260        5.18920
H         -6.77250       -1.63770        4.40270
H         -6.60020        0.88170        5.39540
