189

C         -8.04850       -2.04300       -3.51490
C         -8.89970       -1.16240       -2.92980
C         -8.54640       -0.34460       -1.73600
O         -7.50390       -0.35190       -1.11890
C         -9.78390        0.35920       -1.35640
C         -9.94150        1.25050       -0.29710
C        -11.21750        1.74170       -0.16390
C        -12.26680        1.36340       -1.01310
C        -12.12880        0.47600       -2.05310
C        -10.83330       -0.02880       -2.21400
C        -10.31300       -0.97420       -3.19630
C        -11.02370       -1.53560       -4.22520
C        -12.39470       -1.31370       -4.47040
N        -13.50520       -1.18360       -4.73210
C        -10.48520       -2.40100       -5.19890
N        -10.12630       -3.09280       -6.04310
C        -13.26520        2.24290       -0.30190
C        -13.63560        3.56880       -0.99980
C        -14.22270        4.41010        0.11060
C        -13.22920        4.76870        0.91370
C        -11.95390        4.17570        0.35980
C        -12.26320        4.23980       -1.14150
C        -12.09510        2.66490        0.64370
C         -6.62940       -2.02350       -3.30130
C         -5.89180       -0.81620       -3.26850
C         -4.46110       -0.82950       -3.13500
N         -4.05020        0.42150       -3.18840
O         -5.14190        1.16230       -3.37500
N         -6.25890        0.43690       -3.44020
C         -3.74460       -2.03630       -2.94550
C         -4.50150       -3.20630       -2.89260
O         -3.81250       -4.36160       -2.65750
C         -4.32140       -5.27650       -1.68680
C         -4.43250       -4.66390       -0.29870
C         -5.89610       -3.20070       -3.18740
O         -6.58750       -4.37540       -3.32180
C         -6.24680       -5.13450       -4.48670
C         -7.13440       -6.36540       -4.51680
C         -2.31880       -2.02590       -2.78730
C         -1.39250       -1.25010       -3.47650
N         -1.66360       -0.50650       -4.60750
C         -2.71340       -0.90030       -5.44840
C         -2.92160       -2.25470       -5.71360
C         -4.06190       -2.66750       -6.36140
C         -5.02260       -1.73800       -6.75610
S         -6.53300       -2.38230       -7.40410
C         -7.68590       -0.99540       -7.22330
C         -4.75780       -0.38250       -6.60920
C         -3.60640        0.03330       -5.96810
C         -0.94260        0.66440       -4.85550
C         -0.59190        1.01490       -6.15950
C          0.17790        2.13240       -6.39140
C          0.61600        2.92080       -5.32950
S          1.63640        4.30730       -5.72780
C          2.44540        4.68520       -4.14450
C          0.22900        2.60210       -4.03520
C         -0.54630        1.48410       -3.80200
C         -0.09250       -1.43740       -2.94300
S          1.46020       -0.74120       -3.24820
C          2.18280       -1.72070       -1.98060
C          1.25490       -2.52130       -1.33880
N          1.47560       -3.32180       -0.22750
C          0.69110       -4.47320       -0.07730
C          0.14810       -4.80740        1.16380
C         -0.67770       -5.90160        1.28550
C         -0.98150       -6.68790        0.17510
S         -2.10590       -8.02590        0.43960
C         -1.99500       -8.99530       -1.09290
C         -0.42030       -6.37840       -1.05490
C          0.41330       -5.28350       -1.17550
C          2.40900       -2.96720        0.75530
C          3.19110       -3.95260        1.35960
C          4.20560       -3.60120        2.21940
C          4.46780       -2.26080        2.49990
S          5.87560       -1.93230        3.51020
C          6.04570       -0.13000        3.47340
C          3.63540       -1.28410        1.96980
C          2.61310       -1.63710        1.11110
C         -0.03330       -2.36100       -1.91350
S         -1.57470       -3.07100       -1.59840
C          3.56870       -1.49770       -1.61690
C          4.04490       -0.19160       -1.56580
C          5.28950        0.03200       -1.00590
N          5.92350        1.22220       -0.74310
C          5.47300        2.51980       -1.17050
C          5.93730        2.83970       -2.59050
C          7.09220        0.95160       -0.07190
C          7.21600       -0.45280        0.10950
C          6.06990       -1.04140       -0.50750
C          5.62740       -2.35130       -0.66650
C          4.39110       -2.56980       -1.22610
C          8.29360       -0.96830        0.82350
C          9.20300       -0.09730        1.37590
C          9.08640        1.29340        1.19540
C          8.04420        1.81950        0.42670
C         10.05550        2.20770        1.74720
C         10.63490        2.13250        2.97130
C         10.14180        1.30560        4.10570
O          9.22750        0.50870        4.10780
C         10.91790        1.73670        5.28110
C         10.78770        1.25420        6.58200
C         11.63650        1.84530        7.48540
C         12.54700        2.84880        7.12400
C         12.68470        3.33460        5.84630
C         11.83030        2.74460        4.90870
C         11.69140        2.99580        3.47900
C         12.46600        3.84630        2.73620
C         13.49220        4.66000        3.26150
N         14.33350        5.35500        3.61810
C         12.36870        4.02690        1.33970
N         12.36630        4.22680        0.20880
C         13.06650        2.99480        8.53200
C         12.57970        4.21130        9.35800
C         11.22870        4.59300        8.80580
C         10.36850        3.64290        9.14720
C         11.12230        2.60140        9.93680
C         12.15160        3.49400       10.64840
C         12.05400        1.87640        8.93400
H         -8.42480       -2.83680       -4.14700
H         -9.10750        1.50710        0.33700
H        -12.94850        0.18510       -2.68870
H        -14.12530        1.73340        0.12830
H        -14.23500        3.45750       -1.89910
H        -15.27290        4.60490        0.22460
H        -13.28370        5.32260        1.83250
H        -11.02070        4.61740        0.69880
H        -12.34150        5.26420       -1.50180
H        -11.56070        3.68800       -1.76320
H        -12.17430        2.43700        1.70500
H         -3.58220       -6.08030       -1.68660
H         -5.29240       -5.67560       -1.99310
H         -5.15820       -3.85270       -0.29680
H         -4.75580       -5.42800        0.40260
H         -3.46860       -4.27770        0.02380
H         -6.42360       -4.51800       -5.37800
H         -5.18640       -5.41610       -4.46160
H         -6.90420       -6.95580       -5.39870
H         -6.97660       -6.97200       -3.62850
H         -8.17840       -6.06710       -4.55360
H         -2.20020       -2.98310       -5.37510
H         -4.23510       -3.71570       -6.54970
H         -7.49650       -0.24330       -7.98400
H         -7.59670       -0.57830       -6.22340
H         -8.67420       -1.42390       -7.36150
H         -5.45480        0.35960       -6.96440
H         -3.42270        1.08680       -5.82010
H         -0.91180        0.39410       -6.98310
H          0.46450        2.39930       -7.39700
H          2.84610        3.76980       -3.71960
H          3.25190        5.37180       -4.38180
H          1.74660        5.16370       -3.46420
H          0.51500        3.22260       -3.20110
H         -0.86600        1.24870       -2.79840
H          0.37030       -4.19360        2.02380
H         -1.11240       -6.15340        2.24060
H         -0.96000       -9.26340       -1.28260
H         -2.41780       -8.44070       -1.92590
H         -2.58190       -9.89090       -0.91490
H         -0.62420       -6.97480       -1.92950
H          0.84820       -5.04770       -2.13580
H          3.01600       -4.99150        1.12230
H          4.83080       -4.35950        2.66480
H          5.27190        0.33160        4.08090
H          7.02800        0.07720        3.88800
H          6.00610        0.21840        2.44630
H          3.77640       -0.24320        2.21350
H          1.97650       -0.87000        0.69570
H          3.41730        0.61890       -1.90530
H          5.85850        3.26710       -0.47210
H          4.38050        2.54070       -1.11890
H          5.53790        2.11000       -3.29130
H          5.59860        3.83030       -2.88230
H          7.02290        2.81170       -2.64580
H          6.23720       -3.17730       -0.33600
H          4.02980       -3.57740       -1.35910
H          8.39650       -2.03320        0.95970
H         10.04250       -0.48090        1.93210
H          7.97340        2.88730        0.28090
H         10.30480        3.04990        1.11230
H         10.07350        0.47990        6.81540
H         13.38690        4.10880        5.58590
H         14.12740        2.79720        8.67100
H         13.30570        5.01470        9.44810
H         11.05500        5.45880        8.19400
H          9.33230        3.55580        8.87720
H         10.52130        1.93930       10.55450
H         12.95740        2.93470       11.12170
H         11.69580        4.16700       11.37300
H         12.45360        0.94730        9.33580
