199

C          6.66840        1.25020        1.91520
C          7.72020        1.68470        1.13790
C          7.66850        2.89140        0.28050
O          6.77270        3.71030        0.20380
C          8.99430        2.99500       -0.35150
C          9.38560        3.91760       -1.31720
C         10.67030        3.73630       -1.76880
C         11.50760        2.72250       -1.28660
C         11.13980        1.82130       -0.31450
C          9.83210        1.98140        0.15310
C          9.06920        1.18550        1.11590
C          9.54670        0.08840        1.79480
C          8.77230       -0.77350        2.58850
N          8.21870       -1.56630        3.21170
C         10.88370       -0.35350        1.76170
N         11.95560       -0.76580        1.79600
C         12.63360        3.10140       -2.21810
C         12.82060        2.20820       -3.46330
C         13.63320        3.06640       -4.40590
C         12.84240        4.03220       -4.85650
C         11.48230        3.84350       -4.22530
C         11.44430        2.31250       -4.13370
C         11.70060        4.23650       -2.74920
C          5.33030        1.52540        1.58320
C          4.19430        1.69930        2.39550
N          4.15820        1.63340        3.76230
C          3.24940        2.44710        4.46170
C          3.09390        3.78490        4.11100
C          2.17520        4.58150        4.76490
C          1.39980        4.04980        5.78630
S          0.17810        4.96060        6.67470
C          0.05650        6.52680        5.76450
C          1.57740        2.71890        6.16230
C          2.49190        1.92410        5.50900
C          4.92910        0.70780        4.48280
C          5.50940        1.07950        5.69550
C          6.25710        0.17060        6.40880
C          6.43690       -1.12830        5.93280
S          7.41320       -2.20820        6.91840
C          7.80640       -3.56780        5.78210
C          5.83530       -1.50860        4.73840
C          5.09400       -0.59460        4.01810
C          3.07110        2.05700        1.61100
S          1.40320        2.38980        1.96220
C          1.08140        2.63490        0.26040
C          2.18600        2.40960       -0.54090
N          2.18450        2.43890       -1.92390
C          3.36050        2.81880       -2.58660
C          3.78680        2.14650       -3.72770
C          4.99650        2.46020       -4.31740
C          5.80450        3.44740       -3.76930
S          7.39860        3.88070       -4.39950
C          7.77220        2.55470       -5.58210
C          5.35760        4.15940       -2.65950
C          4.14800        3.85360       -2.07860
C          1.05880        1.98460       -2.62900
C          0.34800        0.86800       -2.18590
C         -0.81130        0.48660       -2.82120
C         -1.28760        1.20260       -3.91690
S         -2.81380        0.65790       -4.61820
C         -3.36740        2.10640       -5.56240
C         -0.54950        2.27490       -4.39960
C          0.61260        2.66150       -3.75940
C          3.31780        2.09030        0.24680
S          4.94100        1.68930       -0.12880
C         -0.22740        2.98470       -0.22870
C         -0.61290        3.99580       -1.07660
C         -1.96570        3.77020       -1.37070
C         -2.32550        2.62740       -0.68660
O         -1.27360        2.16910        0.02600
C         -3.50250        1.83350       -0.78930
C         -3.81730        0.67180       -0.09310
N         -3.16900        0.20420        1.03280
C         -3.03170       -1.18840        1.18440
C         -3.28030       -1.79690        2.41180
C         -3.16010       -3.16770        2.53900
C         -2.79250       -3.94470        1.45230
C         -2.54160       -3.34090        0.23170
C         -2.66200       -1.97170        0.09390
C         -2.71230        1.07310        2.03050
C         -3.36730        2.27640        2.28530
C         -2.90390        3.12490        3.27240
C         -1.79480        2.78500        4.02810
C         -1.14590        1.58600        3.78430
C         -1.59280        0.73780        2.79040
C         -4.91200        0.01510       -0.70360
S         -5.68820       -1.50010       -0.42960
C         -6.70760       -1.26150       -1.84940
C         -6.45860       -0.03170       -2.47440
N         -7.06570        0.38330       -3.63300
C         -7.22170        1.74960       -3.89480
C         -7.54260        2.63160       -2.86390
C         -7.69710        3.97900       -3.12640
C         -7.54570        4.46380       -4.41460
C         -7.24510        3.58770       -5.44500
C         -7.08340        2.23960       -5.19250
C         -7.41630       -0.55080       -4.63540
C         -6.52510       -1.55580       -4.99720
C         -6.88540       -2.46850       -5.97030
C         -8.11790       -2.37800       -6.59650
C         -8.99410       -1.36260       -6.25050
C         -8.64870       -0.44880       -5.27270
C         -5.43650        0.67520       -1.80660
S         -4.61240        2.16800       -2.09960
C         -7.71100       -2.18550       -2.19010
C         -7.83390       -3.49100       -1.81010
C         -9.16140       -4.15020       -1.86960
O        -10.15710       -3.72550       -2.41610
C         -9.01820       -5.39620       -1.08960
C        -10.01700       -6.30850       -0.75770
C         -9.58100       -7.36540        0.00530
C         -8.24930       -7.50450        0.41750
C         -7.25150       -6.61650        0.09280
C         -7.67310       -5.54150       -0.69180
C         -6.89680       -4.44340       -1.26650
C         -5.54410       -4.48490       -1.49850
C         -4.85850       -3.56940       -2.32000
N         -4.26240       -2.89540       -3.03480
C         -4.70240       -5.52510       -1.06120
N         -3.96590       -6.34540       -0.73780
C         -8.52970       -8.78250        1.16690
C         -8.63900       -8.70760        2.70970
C         -9.08200       -7.30410        3.04040
C        -10.34290       -7.17500        2.65000
C        -10.77520       -8.48880        2.04770
C         -9.96120       -9.46420        2.91300
C        -10.01360       -8.62980        0.70650
H          6.86780        0.66910        2.80750
H          8.70660        4.67460       -1.67500
H         11.79850        1.05180        0.05240
H         13.57500        3.37560       -1.74600
H         13.20270        1.21220       -3.25610
H         14.68030        2.92110       -4.59710
H         13.09750        4.85470       -5.49890
H         10.64170        4.34060       -4.70260
H         11.43130        1.83940       -5.11510
H         10.62520        1.92590       -3.53050
H         12.01570        5.27070       -2.62560
H          3.70050        4.20300        3.32120
H          2.08050        5.61390        4.47060
H         -0.76580        7.06760        6.22270
H         -0.16610        6.32820        4.72010
H          0.97480        7.09660        5.87330
H          0.97800        2.31620        6.96440
H          2.61680        0.89030        5.79430
H          5.37830        2.08660        6.06250
H          6.72080        0.45660        7.34020
H          8.60860       -4.12590        6.25470
H          6.93970       -4.20950        5.65070
H          8.14260       -3.14860        4.83860
H          5.93550       -2.51160        4.36130
H          4.62840       -0.89180        3.08980
H          3.17500        1.35900       -4.14270
H          5.30270        1.91200       -5.19400
H          8.80020        2.71520       -5.89110
H          7.11490        2.62190       -6.44440
H          7.68050        1.59100       -5.08990
H          5.97270        4.94070       -2.24340
H          3.81670        4.40510       -1.21200
H          0.70140        0.31280       -1.32970
H         -1.36540       -0.37370       -2.47910
H         -2.77260        2.22300       -6.46370
H         -3.31240        2.98930       -4.93280
H         -4.40170        1.91080       -5.82630
H         -0.87570        2.82570       -5.26720
H          1.17480        3.50700       -4.12780
H          0.00650        4.79170       -1.43600
H         -2.60150        4.35250       -2.00600
H         -3.57220       -1.19040        3.25670
H         -3.36190       -3.63230        3.49290
H         -2.70540       -5.01570        1.54930
H         -2.24930       -3.93880       -0.61820
H         -2.47370       -1.50350       -0.86090
H         -4.24330        2.54320        1.71190
H         -3.42200        4.05470        3.45760
H         -1.44080        3.44350        4.80560
H         -0.27620        1.31810        4.36570
H         -1.07270       -0.18700        2.58990
H         -7.68700        2.25240       -1.86310
H         -7.94780        4.65220       -2.32050
H         -7.66980        5.51660       -4.61670
H         -7.13190        3.95720       -6.45350
H         -6.85320        1.55620       -5.99690
H         -5.56080       -1.62110       -4.51590
H         -6.19190       -3.24900       -6.24440
H         -8.39450       -3.09480       -7.35460
H         -9.95490       -1.28570       -6.73650
H         -9.33080        0.34060       -4.99150
H         -8.55420       -1.79380       -2.75040
H        -11.03250       -6.16490       -1.09240
H         -6.23150       -6.72730        0.42200
H         -7.97990       -9.66020        0.83240
H         -7.76520       -9.07360        3.24240
H         -8.43520       -6.55410        3.45690
H        -10.95970       -6.29570        2.67560
H        -11.84690       -8.65600        1.97870
H         -9.94370      -10.48050        2.52160
H        -10.28470       -9.47600        3.95290
H        -10.43190       -9.40870        0.07180
