144

C          3.29510       -2.46780        5.15640
C          2.78470       -1.87410        6.27870
C          1.81690       -0.76120        6.28820
O          1.27250       -0.22180        5.34040
C          1.75480       -0.29280        7.68690
C          0.97950        0.75110        8.18600
C          1.14540        0.98100        9.53060
C          2.03320        0.23930       10.32030
C          2.81010       -0.78810        9.83970
C          2.64380       -1.04780        8.47710
C          3.27130       -2.05710        7.62840
C          4.10060       -3.06240        8.05500
C          4.59480       -4.10160        7.23830
N          5.01250       -5.00140        6.65940
C          4.54000       -3.22440        9.38440
N          4.93820       -3.41130       10.44540
C          1.68670        1.00620       11.57190
C          0.75280        0.32050       12.59940
C         -0.09030       -0.66050       11.82310
C         -0.93610        0.03590       11.07560
C         -0.68010        1.50030       11.33310
C         -0.27060        1.44710       12.81350
C          0.69190        1.82840       10.69320
C          2.72780       -2.43410        3.86360
C          1.34540       -2.37550        3.57560
C          0.84650       -2.19740        2.22860
N         -0.48430       -2.17500        2.18460
S         -1.05300       -2.39040        3.67450
N          0.34750       -2.51480        4.44560
C          1.70300       -2.00250        1.12330
C          3.06330       -2.29110        1.38270
N          4.02620       -2.42300        0.46950
S          5.40360       -2.79020        1.21260
N          4.86230       -2.78490        2.72370
C          3.55640       -2.52500        2.72030
C          1.22540       -1.54740       -0.12460
C          1.91690       -0.78190       -1.08030
N          3.05780       -0.06230       -0.83280
C          3.36940        0.38920        0.45940
C          4.69610        0.41120        0.88940
C          4.99910        0.74560        2.19130
C          3.98750        1.07960        3.09050
S          4.46060        1.41270        4.75400
C          3.07810        2.40410        5.38910
C          2.66980        1.12130        2.64860
C          2.36960        0.78960        1.34430
C          3.85230        0.33560       -1.91780
C          4.29250        1.65430       -2.02590
C          4.93670        2.07170       -3.16910
C          5.15270        1.18100       -4.21720
S          5.84670        1.81210       -5.71300
C          5.01260        0.77600       -6.95450
C          4.80970       -0.15660       -4.06750
C          4.16240       -0.57650       -2.92380
C          1.17250       -0.70460       -2.27810
S          1.46420        0.01420       -3.83010
C         -0.09660       -0.54380       -4.39150
C         -0.87420       -1.10060       -3.36220
N         -2.23340       -1.29670       -3.42430
C         -3.02740       -0.49870       -4.25990
C         -2.71510        0.84560       -4.47730
C         -3.38930        1.57670       -5.42840
C         -4.40450        0.98400       -6.17650
S         -5.14860        1.94680       -7.45260
C         -5.73470        0.67620       -8.61250
C         -4.79740       -0.31670       -5.88530
C         -4.11600       -1.04900       -4.93330
C         -2.82590       -2.27550       -2.61590
C         -4.03010       -2.01690       -1.96040
C         -4.57850       -2.96500       -1.12810
C         -3.93880       -4.18850       -0.92960
S         -4.71610       -5.31120        0.18420
C         -3.43850       -6.56450        0.48890
C         -2.75970       -4.46250       -1.61050
C         -2.20990       -3.51240       -2.44780
C         -0.10040       -1.25820       -2.19050
S         -0.41500       -1.92310       -0.61750
C         -0.43270       -0.35670       -5.75170
C         -1.34310       -1.16210       -6.47260
C         -1.87370       -0.75680       -7.75730
N         -2.72810       -1.65900       -8.24340
S         -2.80170       -2.91020       -7.23280
N         -1.80360       -2.35650       -6.10240
C         -1.54840        0.48260       -8.34800
C         -0.44930        1.13680       -7.75950
N          0.21730        2.17560       -8.26230
S          1.39710        2.58450       -7.25850
N          1.15460        1.45650       -6.13430
C          0.12160        0.70140       -6.50370
C         -2.31160        0.98120       -9.44160
C         -2.65730        2.27680       -9.64130
S         -3.56420        2.77420      -11.06010
C         -3.73020        4.44730      -10.44700
O         -4.28510        5.32860      -11.03620
N         -3.12360        4.52750       -9.23100
C         -3.19770        5.75490       -8.45650
C         -4.52550        5.85050       -7.71610
C         -2.52140        3.39340       -8.70570
O         -2.01610        3.38410       -7.60480
H          4.25820       -2.96050        5.21320
H          0.30910        1.30370        7.54540
H          3.49460       -1.34500       10.45750
H          2.50700        1.53980       12.04790
H          1.25850       -0.07130       13.47780
H          0.05020       -1.72500       11.85240
H         -1.64360       -0.33110       10.35510
H         -1.48060        2.18310       11.05970
H         -1.09050        1.15290       13.46710
H          0.17340        2.37390       13.17470
H          0.85950        2.90000       10.59980
H          5.48100        0.13670        0.20010
H          6.02270        0.73530        2.53270
H          2.18070        1.79680        5.45150
H          2.92920        3.26490        4.74410
H          3.37780        2.72520        6.38190
H          1.86890        1.38360        3.31900
H          1.34240        0.82720        1.01360
H          4.08550        2.35350       -1.22960
H          5.24520        3.09950       -3.27950
H          3.97470        0.64850       -6.66160
H          5.07600        1.31890       -7.89230
H          5.51510       -0.18190       -7.05270
H          5.03340       -0.87190       -4.84260
H          3.88280       -1.61190       -2.80140
H         -1.91950        1.30990       -3.91460
H         -3.10930        2.59830       -5.62980
H         -6.66970        0.24790       -8.26370
H         -5.89500        1.18500       -9.55820
H         -4.96610       -0.08340       -8.72320
H         -5.61890       -0.77580       -6.41190
H         -4.40020       -2.07250       -4.73700
H         -4.51740       -1.06290       -2.09460
H         -5.50150       -2.76570       -0.60610
H         -2.51690       -6.07650        0.79140
H         -3.81740       -7.17880        1.29980
H         -3.29140       -7.17740       -0.39570
H         -2.26250       -5.41250       -1.50290
H         -1.30200       -3.72930       -2.98970
H         -2.71130        0.23580      -10.11830
H         -2.36320        5.72740       -7.75220
H         -3.08080        6.59400       -9.14580
H         -5.34780        5.89060       -8.42610
H         -4.66050        4.98410       -7.07220
H         -4.54280        6.75050       -7.10810
