
  xtb     02042223523D
 energy: -269.723869699126 gnorm: 0.003890426033 xtb: 6.4.1 (unknown)
146162  0     0  0            999 V2000
   -5.5550    0.5015    3.9340 C   0  0  0  0  0  0  0  0  0  0  0  0
   -6.2645    1.5676    3.4692 C   0  0  0  0  0  0  0  0  0  0  0  0
   -5.9606    2.2661    2.1927 C   0  0  0  0  0  0  0  0  0  0  0  0
   -4.9750    2.1534    1.4940 O   0  0  0  0  0  0  0  0  0  0  0  0
   -7.1808    3.0295    1.8656 C   0  0  0  0  0  0  0  0  0  0  0  0
   -7.4230    3.7554    0.7014 C   0  0  0  0  0  0  0  0  0  0  0  0
   -8.6709    4.3264    0.6459 C   0  0  0  0  0  0  0  0  0  0  0  0
   -9.6164    4.1879    1.6711 C   0  0  0  0  0  0  0  0  0  0  0  0
   -9.3951    3.4669    2.8205 C   0  0  0  0  0  0  0  0  0  0  0  0
   -8.1307    2.8763    2.8956 C   0  0  0  0  0  0  0  0  0  0  0  0
   -7.5593    2.0198    3.9292 C   0  0  0  0  0  0  0  0  0  0  0  0
   -8.0949    1.7585    5.1630 C   0  0  0  0  0  0  0  0  0  0  0  0
   -9.3315    2.2551    5.6203 C   0  0  0  0  0  0  0  0  0  0  0  0
  -10.3292    2.6309    6.0466 N   0  0  0  0  0  0  0  0  0  0  0  0
   -7.4414    0.9956    6.1542 C   0  0  0  0  0  0  0  0  0  0  0  0
   -6.9652    0.4091    7.0192 N   0  0  0  0  0  0  0  0  0  0  0  0
  -10.6485    5.0075    0.9369 C   0  0  0  0  0  0  0  0  0  0  0  0
  -10.8720    6.4726    1.3885 C   0  0  0  0  0  0  0  0  0  0  0  0
   -9.5760    6.9344    2.0075 C   0  0  0  0  0  0  0  0  0  0  0  0
   -8.6844    7.0607    1.0338 C   0  0  0  0  0  0  0  0  0  0  0  0
   -9.3613    6.6859   -0.2619 C   0  0  0  0  0  0  0  0  0  0  0  0
  -10.7887    7.1789    0.0254 C   0  0  0  0  0  0  0  0  0  0  0  0
   -9.5970    5.1571   -0.2072 C   0  0  0  0  0  0  0  0  0  0  0  0
   -4.2251    0.2003    3.5245 C   0  0  0  0  0  0  0  0  0  0  0  0
   -3.8027   -1.1179    3.2648 C   0  0  0  0  0  0  0  0  0  0  0  0
   -2.5124   -1.4332    2.6736 C   0  0  0  0  0  0  0  0  0  0  0  0
   -2.4016   -2.7382    2.4364 N   0  0  0  0  0  0  0  0  0  0  0  0
   -3.7372   -3.4919    2.9088 S   0  0  0  0  0  4  0  0  0  0  0  0
   -4.5553   -2.2071    3.4222 N   0  0  0  0  0  0  0  0  0  0  0  0
   -1.5442   -0.4410    2.3931 C   0  0  0  0  0  0  0  0  0  0  0  0
   -1.9161    0.8522    2.8403 C   0  0  0  0  0  0  0  0  0  0  0  0
   -1.1252    1.9244    2.8088 N   0  0  0  0  0  0  0  0  0  0  0  0
   -1.9405    3.1986    3.3592 S   0  0  0  0  0  0  0  0  0  0  0  0
   -3.3216    2.4648    3.6857 N   0  0  0  0  0  0  0  0  0  0  0  0
   -3.2271    1.1771    3.3522 C   0  0  0  0  0  0  0  0  0  0  0  0
   -0.3488   -0.5976    1.6394 C   0  0  0  0  0  0  0  0  0  0  0  0
    0.1152   -1.6451    0.8298 C   0  0  0  0  0  0  0  0  0  0  0  0
   -0.3774   -2.9465    0.7069 N   0  0  0  0  0  0  0  0  0  0  0  0
   -0.8081   -3.2859   -0.5813 C   0  0  0  0  0  0  0  0  0  0  0  0
   -1.5814   -2.3618   -1.2895 C   0  0  0  0  0  0  0  0  0  0  0  0
   -2.0136   -2.6440   -2.5639 C   0  0  0  0  0  0  0  0  0  0  0  0
   -1.6848   -3.8573   -3.1691 C   0  0  0  0  0  0  0  0  0  0  0  0
   -2.3057   -4.1054   -4.7990 S   0  0  0  0  0  0  0  0  0  0  0  0
   -1.7640   -5.7835   -5.2343 C   0  0  0  0  0  0  0  0  0  0  0  0
   -0.9027   -4.7731   -2.4759 C   0  0  0  0  0  0  0  0  0  0  0  0
   -0.4640   -4.4869   -1.1977 C   0  0  0  0  0  0  0  0  0  0  0  0
   -0.1900   -3.8800    1.7152 C   0  0  0  0  0  0  0  0  0  0  0  0
    0.7211   -3.6379    2.7432 C   0  0  0  0  0  0  0  0  0  0  0  0
    0.9324   -4.5684    3.7424 C   0  0  0  0  0  0  0  0  0  0  0  0
    0.2372   -5.7694    3.7346 C   0  0  0  0  0  0  0  0  0  0  0  0
    0.4320   -7.0471    4.9346 S   0  0  0  0  0  0  0  0  0  0  0  0
    1.7581   -6.4417    6.0156 C   0  0  0  0  0  0  0  0  0  0  0  0
   -0.6904   -6.0110    2.7189 C   0  0  0  0  0  0  0  0  0  0  0  0
   -0.9048   -5.0837    1.7282 C   0  0  0  0  0  0  0  0  0  0  0  0
    1.2005   -1.2335    0.0277 C   0  0  0  0  0  0  0  0  0  0  0  0
    2.2004   -2.0422   -1.1328 S   0  0  0  0  0  0  0  0  0  0  0  0
    3.1743   -0.5881   -1.3200 C   0  0  0  0  0  0  0  0  0  0  0  0
    2.7783    0.4435   -0.4639 C   0  0  0  0  0  0  0  0  0  0  0  0
    3.3995    1.6563   -0.2643 N   0  0  0  0  0  0  0  0  0  0  0  0
    2.5989    2.7131    0.2132 C   0  0  0  0  0  0  0  0  0  0  0  0
    1.4040    3.0243   -0.4363 C   0  0  0  0  0  0  0  0  0  0  0  0
    0.5569    3.9738    0.0891 C   0  0  0  0  0  0  0  0  0  0  0  0
    0.8867    4.6327    1.2712 C   0  0  0  0  0  0  0  0  0  0  0  0
   -0.3055    5.7693    1.9011 S   0  0  0  0  0  0  0  0  0  0  0  0
    0.2655    6.0924    3.5912 C   0  0  0  0  0  0  0  0  0  0  0  0
    2.1054    4.3708    1.8844 C   0  0  0  0  0  0  0  0  0  0  0  0
    2.9545    3.4181    1.3583 C   0  0  0  0  0  0  0  0  0  0  0  0
    4.7947    1.7901   -0.2638 C   0  0  0  0  0  0  0  0  0  0  0  0
    5.6218    0.7265    0.0863 C   0  0  0  0  0  0  0  0  0  0  0  0
    6.9940    0.8505    0.0282 C   0  0  0  0  0  0  0  0  0  0  0  0
    7.5659    2.0469   -0.3864 C   0  0  0  0  0  0  0  0  0  0  0  0
    9.3015    2.2963   -0.5524 S   0  0  0  0  0  0  0  0  0  0  0  0
    9.9986    0.6406   -0.2981 C   0  0  0  0  0  0  0  0  0  0  0  0
    6.7430    3.1295   -0.6950 C   0  0  0  0  0  0  0  0  0  0  0  0
    5.3732    3.0057   -0.6343 C   0  0  0  0  0  0  0  0  0  0  0  0
    1.6311    0.0601    0.2698 C   0  0  0  0  0  0  0  0  0  0  0  0
    0.6506    0.8385    1.4655 S   0  0  0  0  0  0  0  0  0  0  0  0
    4.2014   -0.6935   -2.3024 C   0  0  0  0  0  0  0  0  0  0  0  0
    4.8763    0.3888   -2.8981 C   0  0  0  0  0  0  0  0  0  0  0  0
    5.8768    0.1289   -3.7987 C   0  0  0  0  0  0  0  0  0  0  0  0
    6.2165   -1.1988   -4.1187 C   0  0  0  0  0  0  0  0  0  0  0  0
    5.4026   -2.1976   -3.5459 C   0  0  0  0  0  0  0  0  0  0  0  0
    4.4479   -1.9548   -2.6954 N   0  0  0  0  0  0  0  0  0  0  0  0
    7.2243   -1.4891   -5.0843 C   0  0  0  0  0  0  0  0  0  0  0  0
    7.9382   -2.6368   -5.2657 C   0  0  0  0  0  0  0  0  0  0  0  0
    8.5913   -2.8873   -6.5768 C   0  0  0  0  0  0  0  0  0  0  0  0
    8.7435   -2.0969   -7.4743 O   0  0  0  0  0  0  0  0  0  0  0  0
    8.9685   -4.3249   -6.5440 C   0  0  0  0  0  0  0  0  0  0  0  0
    8.6812   -4.8582   -5.2733 C   0  0  0  0  0  0  0  0  0  0  0  0
    8.9222   -6.1919   -4.9926 C   0  0  0  0  0  0  0  0  0  0  0  0
    9.4580   -6.9820   -5.9996 C   0  0  0  0  0  0  0  0  0  0  0  0
    9.6920   -8.2736   -5.7570 F   0  0  0  0  0  0  0  0  0  0  0  0
    9.7593   -6.4695   -7.2597 C   0  0  0  0  0  0  0  0  0  0  0  0
   10.2820   -7.2614   -8.1990 F   0  0  0  0  0  0  0  0  0  0  0  0
    9.5107   -5.1222   -7.5358 C   0  0  0  0  0  0  0  0  0  0  0  0
    9.7984   -4.6404   -8.7402 F   0  0  0  0  0  0  0  0  0  0  0  0
    8.1657   -3.7850   -4.4227 C   0  0  0  0  0  0  0  0  0  0  0  0
    8.1580   -3.8020   -3.0498 C   0  0  0  0  0  0  0  0  0  0  0  0
    7.9591   -2.6483   -2.2681 C   0  0  0  0  0  0  0  0  0  0  0  0
    7.8905   -1.7259   -1.5872 N   0  0  0  0  0  0  0  0  0  0  0  0
    8.4591   -4.9336   -2.2669 C   0  0  0  0  0  0  0  0  0  0  0  0
    8.6773   -5.8287   -1.5818 N   0  0  0  0  0  0  0  0  0  0  0  0
   -6.0252   -0.2221    4.5885 H   0  0  0  0  0  0  0  0  0  0  0  0
   -6.6737    3.8337   -0.0705 H   0  0  0  0  0  0  0  0  0  0  0  0
  -10.1343    3.3463    3.5953 H   0  0  0  0  0  0  0  0  0  0  0  0
  -11.5834    4.4995    0.7073 H   0  0  0  0  0  0  0  0  0  0  0  0
  -11.7698    6.6300    1.9803 H   0  0  0  0  0  0  0  0  0  0  0  0
   -9.4298    7.0623    3.0643 H   0  0  0  0  0  0  0  0  0  0  0  0
   -7.6435    7.3144    1.1142 H   0  0  0  0  0  0  0  0  0  0  0  0
   -8.8842    7.0375   -1.1731 H   0  0  0  0  0  0  0  0  0  0  0  0
  -11.5241    6.8215   -0.6946 H   0  0  0  0  0  0  0  0  0  0  0  0
  -10.8518    8.2630    0.1077 H   0  0  0  0  0  0  0  0  0  0  0  0
   -9.8445    4.7397   -1.1815 H   0  0  0  0  0  0  0  0  0  0  0  0
   -1.8519   -1.4265   -0.8220 H   0  0  0  0  0  0  0  0  0  0  0  0
   -2.6176   -1.9334   -3.1069 H   0  0  0  0  0  0  0  0  0  0  0  0
   -0.6791   -5.8266   -5.2726 H   0  0  0  0  0  0  0  0  0  0  0  0
   -2.1760   -5.9743   -6.2212 H   0  0  0  0  0  0  0  0  0  0  0  0
   -2.1659   -6.4985   -4.5224 H   0  0  0  0  0  0  0  0  0  0  0  0
   -0.6141   -5.7097   -2.9252 H   0  0  0  0  0  0  0  0  0  0  0  0
    0.1677   -5.1934   -0.6811 H   0  0  0  0  0  0  0  0  0  0  0  0
    1.2799   -2.7141    2.7571 H   0  0  0  0  0  0  0  0  0  0  0  0
    1.6505   -4.3452    4.5156 H   0  0  0  0  0  0  0  0  0  0  0  0
    2.6604   -6.2749    5.4347 H   0  0  0  0  0  0  0  0  0  0  0  0
    1.4412   -5.5371    6.5259 H   0  0  0  0  0  0  0  0  0  0  0  0
    1.9275   -7.2327    6.7399 H   0  0  0  0  0  0  0  0  0  0  0  0
   -1.2429   -6.9381    2.7269 H   0  0  0  0  0  0  0  0  0  0  0  0
   -1.6486   -5.2704    0.9692 H   0  0  0  0  0  0  0  0  0  0  0  0
    1.1356    2.4970   -1.3398 H   0  0  0  0  0  0  0  0  0  0  0  0
   -0.3777    4.2024   -0.3990 H   0  0  0  0  0  0  0  0  0  0  0  0
    1.1784    6.6811    3.5770 H   0  0  0  0  0  0  0  0  0  0  0  0
   -0.5269    6.6643    4.0669 H   0  0  0  0  0  0  0  0  0  0  0  0
    0.4081    5.1505    4.1137 H   0  0  0  0  0  0  0  0  0  0  0  0
    2.3988    4.8884    2.7830 H   0  0  0  0  0  0  0  0  0  0  0  0
    3.8893    3.1975    1.8521 H   0  0  0  0  0  0  0  0  0  0  0  0
    5.1893   -0.2083    0.4089 H   0  0  0  0  0  0  0  0  0  0  0  0
    7.6006    0.0040    0.2983 H   0  0  0  0  0  0  0  0  0  0  0  0
   11.0497    0.7219   -0.5575 H   0  0  0  0  0  0  0  0  0  0  0  0
    9.8993    0.3510    0.7443 H   0  0  0  0  0  0  0  0  0  0  0  0
    9.5039   -0.0704   -0.9534 H   0  0  0  0  0  0  0  0  0  0  0  0
    7.1929    4.0624   -0.9982 H   0  0  0  0  0  0  0  0  0  0  0  0
    4.7397    3.8422   -0.8908 H   0  0  0  0  0  0  0  0  0  0  0  0
    4.6004    1.4033   -2.6675 H   0  0  0  0  0  0  0  0  0  0  0  0
    6.4266    0.9407   -4.2522 H   0  0  0  0  0  0  0  0  0  0  0  0
    5.5119   -3.2334   -3.8436 H   0  0  0  0  0  0  0  0  0  0  0  0
    7.3917   -0.7282   -5.8411 H   0  0  0  0  0  0  0  0  0  0  0  0
    8.7065   -6.6385   -4.0358 H   0  0  0  0  0  0  0  0  0  0  0  0
  1  2  2  0  0  0  0
  2  3  1  0  0  0  0
  3  4  2  0  0  0  0
  3  5  1  0  0  0  0
  5  6  2  0  0  0  0
  6  7  1  0  0  0  0
  7  8  2  0  0  0  0
  8  9  1  0  0  0  0
  9 10  2  0  0  0  0
 10 11  1  0  0  0  0
 11 12  2  0  0  0  0
 12 13  1  0  0  0  0
 13 14  3  0  0  0  0
 12 15  1  0  0  0  0
 15 16  3  0  0  0  0
  8 17  1  0  0  0  0
 17 18  1  0  0  0  0
 18 19  1  0  0  0  0
 19 20  2  0  0  0  0
 20 21  1  0  0  0  0
 21 22  1  0  0  0  0
 21 23  1  0  0  0  0
  1 24  1  0  0  0  0
 24 25  2  0  0  0  0
 25 26  1  0  0  0  0
 26 27  1  0  0  0  0
 27 28  2  0  0  0  0
 28 29  2  0  0  0  0
 26 30  2  0  0  0  0
 30 31  1  0  0  0  0
 31 32  2  0  0  0  0
 32 33  1  0  0  0  0
 33 34  1  0  0  0  0
 34 35  2  0  0  0  0
 30 36  1  0  0  0  0
 36 37  2  0  0  0  0
 37 38  1  0  0  0  0
 38 39  1  0  0  0  0
 39 40  2  0  0  0  0
 40 41  1  0  0  0  0
 41 42  2  0  0  0  0
 42 43  1  0  0  0  0
 43 44  1  0  0  0  0
 42 45  1  0  0  0  0
 45 46  2  0  0  0  0
 38 47  1  0  0  0  0
 47 48  2  0  0  0  0
 48 49  1  0  0  0  0
 49 50  2  0  0  0  0
 50 51  1  0  0  0  0
 51 52  1  0  0  0  0
 50 53  1  0  0  0  0
 53 54  2  0  0  0  0
 37 55  1  0  0  0  0
 55 56  1  0  0  0  0
 56 57  1  0  0  0  0
 57 58  2  0  0  0  0
 58 59  1  0  0  0  0
 59 60  1  0  0  0  0
 60 61  2  0  0  0  0
 61 62  1  0  0  0  0
 62 63  2  0  0  0  0
 63 64  1  0  0  0  0
 64 65  1  0  0  0  0
 63 66  1  0  0  0  0
 66 67  2  0  0  0  0
 59 68  1  0  0  0  0
 68 69  2  0  0  0  0
 69 70  1  0  0  0  0
 70 71  2  0  0  0  0
 71 72  1  0  0  0  0
 72 73  1  0  0  0  0
 71 74  1  0  0  0  0
 74 75  2  0  0  0  0
 58 76  1  0  0  0  0
 76 77  1  0  0  0  0
 57 78  1  0  0  0  0
 78 79  2  0  0  0  0
 79 80  1  0  0  0  0
 80 81  2  0  0  0  0
 81 82  1  0  0  0  0
 82 83  2  0  0  0  0
 81 84  1  0  0  0  0
 84 85  2  0  0  0  0
 85 86  1  0  0  0  0
 86 87  2  0  0  0  0
 86 88  1  0  0  0  0
 88 89  2  0  0  0  0
 89 90  1  0  0  0  0
 90 91  2  0  0  0  0
 91 92  1  0  0  0  0
 91 93  1  0  0  0  0
 93 94  1  0  0  0  0
 93 95  2  0  0  0  0
 95 96  1  0  0  0  0
 89 97  1  0  0  0  0
 97 98  2  0  0  0  0
 98 99  1  0  0  0  0
 99100  3  0  0  0  0
 98101  1  0  0  0  0
101102  3  0  0  0  0
 11  2  1  0  0  0  0
 23 17  1  0  0  0  0
 35 24  1  0  0  0  0
 77 36  1  0  0  0  0
 83 78  1  0  0  0  0
 97 85  1  0  0  0  0
 10  5  1  0  0  0  0
 22 18  1  0  0  0  0
 29 25  1  0  0  0  0
 35 31  1  0  0  0  0
 46 39  1  0  0  0  0
 54 47  1  0  0  0  0
 76 55  2  0  0  0  0
 95 88  1  0  0  0  0
 23  7  1  0  0  0  0
 67 60  1  0  0  0  0
 75 68  1  0  0  0  0
  1103  1  0  0  0  0
  6104  1  0  0  0  0
  9105  1  0  0  0  0
 17106  1  0  0  0  0
 18107  1  0  0  0  0
 19108  1  0  0  0  0
 20109  1  0  0  0  0
 21110  1  0  0  0  0
 22111  1  0  0  0  0
 22112  1  0  0  0  0
 23113  1  0  0  0  0
 40114  1  0  0  0  0
 41115  1  0  0  0  0
 44116  1  0  0  0  0
 44117  1  0  0  0  0
 44118  1  0  0  0  0
 45119  1  0  0  0  0
 46120  1  0  0  0  0
 48121  1  0  0  0  0
 49122  1  0  0  0  0
 52123  1  0  0  0  0
 52124  1  0  0  0  0
 52125  1  0  0  0  0
 53126  1  0  0  0  0
 54127  1  0  0  0  0
 61128  1  0  0  0  0
 62129  1  0  0  0  0
 65130  1  0  0  0  0
 65131  1  0  0  0  0
 65132  1  0  0  0  0
 66133  1  0  0  0  0
 67134  1  0  0  0  0
 69135  1  0  0  0  0
 70136  1  0  0  0  0
 73137  1  0  0  0  0
 73138  1  0  0  0  0
 73139  1  0  0  0  0
 74140  1  0  0  0  0
 75141  1  0  0  0  0
 79142  1  0  0  0  0
 80143  1  0  0  0  0
 82144  1  0  0  0  0
 84145  1  0  0  0  0
 90146  1  0  0  0  0
M  END
