
  xtb     02082222363D
 energy: -311.640503747038 gnorm: 0.000714990942 xtb: 6.4.1 (unknown)
191209  0     0  0            999 V2000
    8.0600   -5.6891    1.0315 C   0  0  0  0  0  0  0  0  0  0  0  0
    7.8300   -6.9264    1.5860 C   0  0  0  0  0  0  0  0  0  0  0  0
    6.5359   -7.4667    2.0067 C   0  0  0  0  0  0  0  0  0  0  0  0
    5.4454   -6.9236    1.9443 O   0  0  0  0  0  0  0  0  0  0  0  0
    6.8018   -8.8174    2.5347 C   0  0  0  0  0  0  0  0  0  0  0  0
    5.8722   -9.7102    3.0625 C   0  0  0  0  0  0  0  0  0  0  0  0
    6.4180  -10.8961    3.4927 C   0  0  0  0  0  0  0  0  0  0  0  0
    7.7882  -11.1723    3.4052 C   0  0  0  0  0  0  0  0  0  0  0  0
    8.7158  -10.2992    2.8879 C   0  0  0  0  0  0  0  0  0  0  0  0
    8.1816   -9.0866    2.4423 C   0  0  0  0  0  0  0  0  0  0  0  0
    8.8445   -7.9239    1.8502 C   0  0  0  0  0  0  0  0  0  0  0  0
   10.1935   -7.8254    1.6090 C   0  0  0  0  0  0  0  0  0  0  0  0
   11.1329   -8.8398    1.8854 C   0  0  0  0  0  0  0  0  0  0  0  0
   11.9605   -9.6134    2.0761 N   0  0  0  0  0  0  0  0  0  0  0  0
   10.8581   -6.7131    1.0546 C   0  0  0  0  0  0  0  0  0  0  0  0
   11.4847   -5.8554    0.6137 N   0  0  0  0  0  0  0  0  0  0  0  0
    7.6337  -12.5422    4.0180 C   0  0  0  0  0  0  0  0  0  0  0  0
    7.6789  -13.7415    3.0478 C   0  0  0  0  0  0  0  0  0  0  0  0
    7.0354  -14.8635    3.8302 C   0  0  0  0  0  0  0  0  0  0  0  0
    5.7372  -14.6027    3.9159 C   0  0  0  0  0  0  0  0  0  0  0  0
    5.4813  -13.3005    3.1919 C   0  0  0  0  0  0  0  0  0  0  0  0
    6.5355  -13.4038    2.0822 C   0  0  0  0  0  0  0  0  0  0  0  0
    6.1051  -12.2341    4.1167 C   0  0  0  0  0  0  0  0  0  0  0  0
    7.1959   -4.6289    0.7502 C   0  0  0  0  0  0  0  0  0  0  0  0
    7.6323   -3.4147    0.1654 C   0  0  0  0  0  0  0  0  0  0  0  0
    9.0323   -3.1940   -0.3166 C   0  0  0  0  0  0  0  0  0  0  0  0
    9.2734   -3.9068   -1.6505 C   0  0  0  0  0  0  0  0  0  0  0  0
    6.5984   -2.5028    0.0529 C   0  0  0  0  0  0  0  0  0  0  0  0
    5.3797   -3.0153    0.5248 C   0  0  0  0  0  0  0  0  0  0  0  0
    5.4723   -4.6122    1.1109 S   0  0  0  0  0  0  0  0  0  0  0  0
    4.3819   -2.0345    0.3506 C   0  0  0  0  0  0  0  0  0  0  0  0
    4.9354   -0.8936   -0.2229 C   0  0  0  0  0  0  0  0  0  0  0  0
    6.4091   -1.0950   -0.4887 C   0  0  0  0  0  0  0  0  0  0  0  0
    6.7144   -1.1139   -2.0021 C   0  0  0  0  0  0  0  0  0  0  0  0
    6.3119    0.1429   -2.7626 C   0  0  0  0  0  0  0  0  0  0  0  0
    7.2453   -0.0401    0.2546 C   0  0  0  0  0  0  0  0  0  0  0  0
    7.1044   -0.1422    1.7686 C   0  0  0  0  0  0  0  0  0  0  0  0
    3.9920    0.1103   -0.4278 C   0  0  0  0  0  0  0  0  0  0  0  0
    2.7191   -0.2891   -0.0714 C   0  0  0  0  0  0  0  0  0  0  0  0
    2.7003   -1.8867    0.6454 S   0  0  0  0  0  0  0  0  0  0  0  0
    1.4991    0.4233   -0.2884 C   0  0  0  0  0  0  0  0  0  0  0  0
    0.3098   -0.0781   -0.7934 C   0  0  0  0  0  0  0  0  0  0  0  0
    0.0996   -1.3752   -1.2383 N   0  0  0  0  0  0  0  0  0  0  0  0
    1.1191   -2.0644   -1.9050 C   0  0  0  0  0  0  0  0  0  0  0  0
    1.9902   -1.3841   -2.7533 C   0  0  0  0  0  0  0  0  0  0  0  0
    3.0844   -2.0226   -3.3008 C   0  0  0  0  0  0  0  0  0  0  0  0
    3.3215   -3.3604   -3.0168 C   0  0  0  0  0  0  0  0  0  0  0  0
    4.7629   -4.2252   -3.5681 S   0  0  0  0  0  0  0  0  0  0  0  0
    5.2279   -3.3260   -5.0808 C   0  0  0  0  0  0  0  0  0  0  0  0
    2.4203   -4.0623   -2.2206 C   0  0  0  0  0  0  0  0  0  0  0  0
    1.3285   -3.4251   -1.6733 C   0  0  0  0  0  0  0  0  0  0  0  0
   -1.1521   -1.9568   -1.0067 C   0  0  0  0  0  0  0  0  0  0  0  0
   -1.8442   -1.6795    0.1737 C   0  0  0  0  0  0  0  0  0  0  0  0
   -3.1065   -2.1878    0.3754 C   0  0  0  0  0  0  0  0  0  0  0  0
   -3.7045   -2.9966   -0.5884 C   0  0  0  0  0  0  0  0  0  0  0  0
   -5.3425   -3.5525   -0.2325 S   0  0  0  0  0  0  0  0  0  0  0  0
   -5.7357   -4.6738   -1.6038 C   0  0  0  0  0  0  0  0  0  0  0  0
   -3.0062   -3.3047   -1.7481 C   0  0  0  0  0  0  0  0  0  0  0  0
   -1.7428   -2.7858   -1.9554 C   0  0  0  0  0  0  0  0  0  0  0  0
   -0.6729    0.9388   -0.8681 C   0  0  0  0  0  0  0  0  0  0  0  0
   -2.3271    0.9646   -1.3586 S   0  0  0  0  0  0  0  0  0  0  0  0
   -2.4347    2.6839   -0.9896 C   0  0  0  0  0  0  0  0  0  0  0  0
   -1.2379    3.1918   -0.4941 C   0  0  0  0  0  0  0  0  0  0  0  0
   -1.0233    4.4764   -0.0178 N   0  0  0  0  0  0  0  0  0  0  0  0
    0.2260    5.0714   -0.2405 C   0  0  0  0  0  0  0  0  0  0  0  0
    0.9086    4.8556   -1.4383 C   0  0  0  0  0  0  0  0  0  0  0  0
    2.1509    5.4128   -1.6385 C   0  0  0  0  0  0  0  0  0  0  0  0
    2.7367    6.2080   -0.6555 C   0  0  0  0  0  0  0  0  0  0  0  0
    4.3392    6.8505   -1.0200 S   0  0  0  0  0  0  0  0  0  0  0  0
    4.7104    7.9334    0.3881 C   0  0  0  0  0  0  0  0  0  0  0  0
    2.0515    6.4419    0.5296 C   0  0  0  0  0  0  0  0  0  0  0  0
    0.8093    5.8748    0.7344 C   0  0  0  0  0  0  0  0  0  0  0  0
   -2.0320    5.1755    0.6551 C   0  0  0  0  0  0  0  0  0  0  0  0
   -2.9068    4.5073    1.5075 C   0  0  0  0  0  0  0  0  0  0  0  0
   -3.9987    5.1563    2.0473 C   0  0  0  0  0  0  0  0  0  0  0  0
   -4.2298    6.4933    1.7528 C   0  0  0  0  0  0  0  0  0  0  0  0
   -5.6732    7.3686    2.2768 S   0  0  0  0  0  0  0  0  0  0  0  0
   -6.1882    6.4593    3.7651 C   0  0  0  0  0  0  0  0  0  0  0  0
   -3.3140    7.1876    0.9658 C   0  0  0  0  0  0  0  0  0  0  0  0
   -2.2249    6.5404    0.4261 C   0  0  0  0  0  0  0  0  0  0  0  0
   -0.2407    2.1847   -0.4494 C   0  0  0  0  0  0  0  0  0  0  0  0
    1.4211    2.1508    0.0327 S   0  0  0  0  0  0  0  0  0  0  0  0
   -3.6540    3.3991   -1.1942 C   0  0  0  0  0  0  0  0  0  0  0  0
   -4.9581    3.0211   -0.8823 C   0  0  0  0  0  0  0  0  0  0  0  0
   -5.3373    1.6567   -0.3859 C   0  0  0  0  0  0  0  0  0  0  0  0
   -4.8624    1.3756    1.0387 C   0  0  0  0  0  0  0  0  0  0  0  0
   -5.8434    4.0914   -1.0465 C   0  0  0  0  0  0  0  0  0  0  0  0
   -5.2220    5.2483   -1.5155 C   0  0  0  0  0  0  0  0  0  0  0  0
   -3.5561    5.0265   -1.8375 S   0  0  0  0  0  0  0  0  0  0  0  0
   -6.1382    6.3117   -1.5180 C   0  0  0  0  0  0  0  0  0  0  0  0
   -7.3833    5.8438   -1.0551 C   0  0  0  0  0  0  0  0  0  0  0  0
   -7.3138    4.3590   -0.7681 C   0  0  0  0  0  0  0  0  0  0  0  0
   -8.1476    3.5794   -1.8116 C   0  0  0  0  0  0  0  0  0  0  0  0
   -9.6566    3.7426   -1.6958 C   0  0  0  0  0  0  0  0  0  0  0  0
   -7.6522    3.9859    0.6927 C   0  0  0  0  0  0  0  0  0  0  0  0
   -8.6886    4.8651    1.3831 C   0  0  0  0  0  0  0  0  0  0  0  0
   -8.3321    6.8397   -1.0052 C   0  0  0  0  0  0  0  0  0  0  0  0
   -7.8379    8.0844   -1.4093 C   0  0  0  0  0  0  0  0  0  0  0  0
   -6.1289    7.9772   -1.8632 S   0  0  0  0  0  0  0  0  0  0  0  0
   -8.4212    9.3485   -1.4956 C   0  0  0  0  0  0  0  0  0  0  0  0
   -9.7142    9.7851   -1.2856 C   0  0  0  0  0  0  0  0  0  0  0  0
  -10.9168    8.9890   -0.9975 C   0  0  0  0  0  0  0  0  0  0  0  0
  -11.0330    7.7935   -0.8045 O   0  0  0  0  0  0  0  0  0  0  0  0
  -12.0426    9.9512   -1.0010 C   0  0  0  0  0  0  0  0  0  0  0  0
  -13.3831    9.6951   -0.8063 C   0  0  0  0  0  0  0  0  0  0  0  0
  -14.2699   10.7622   -0.8665 C   0  0  0  0  0  0  0  0  0  0  0  0
  -16.1169   10.4469   -0.6051 Br  0  0  0  0  0  0  0  0  0  0  0  0
  -13.8020   12.0512   -1.1195 C   0  0  0  0  0  0  0  0  0  0  0  0
  -15.0163   13.5000   -1.2092 Br  0  0  0  0  0  0  0  0  0  0  0  0
  -12.4480   12.3050   -1.3120 C   0  0  0  0  0  0  0  0  0  0  0  0
  -11.5593   11.2448   -1.2506 C   0  0  0  0  0  0  0  0  0  0  0  0
  -10.1048   11.1758   -1.4005 C   0  0  0  0  0  0  0  0  0  0  0  0
   -9.2941   12.2705   -1.5741 C   0  0  0  0  0  0  0  0  0  0  0  0
   -7.8855   12.2726   -1.6555 C   0  0  0  0  0  0  0  0  0  0  0  0
   -6.7437   12.3873   -1.7183 N   0  0  0  0  0  0  0  0  0  0  0  0
   -9.7705   13.5944   -1.6740 C   0  0  0  0  0  0  0  0  0  0  0  0
  -10.0900   14.6933   -1.7673 N   0  0  0  0  0  0  0  0  0  0  0  0
    9.0893   -5.4844    0.7731 H   0  0  0  0  0  0  0  0  0  0  0  0
    4.8259   -9.4528    3.1158 H   0  0  0  0  0  0  0  0  0  0  0  0
    9.7669  -10.5275    2.8343 H   0  0  0  0  0  0  0  0  0  0  0  0
    8.1905  -12.7171    4.9366 H   0  0  0  0  0  0  0  0  0  0  0  0
    8.6561  -13.9421    2.6173 H   0  0  0  0  0  0  0  0  0  0  0  0
    7.5813  -15.6750    4.2746 H   0  0  0  0  0  0  0  0  0  0  0  0
    4.9822  -15.1530    4.4463 H   0  0  0  0  0  0  0  0  0  0  0  0
    4.4558  -13.1008    2.8923 H   0  0  0  0  0  0  0  0  0  0  0  0
    6.6840  -12.4812    1.5242 H   0  0  0  0  0  0  0  0  0  0  0  0
    6.3268  -14.2184    1.3904 H   0  0  0  0  0  0  0  0  0  0  0  0
    5.6437  -12.2022    5.1022 H   0  0  0  0  0  0  0  0  0  0  0  0
    9.1990   -2.1248   -0.4452 H   0  0  0  0  0  0  0  0  0  0  0  0
    9.7570   -3.5535    0.4165 H   0  0  0  0  0  0  0  0  0  0  0  0
   10.2816   -3.7032   -2.0012 H   0  0  0  0  0  0  0  0  0  0  0  0
    8.5623   -3.5678   -2.4003 H   0  0  0  0  0  0  0  0  0  0  0  0
    9.1606   -4.9820   -1.5397 H   0  0  0  0  0  0  0  0  0  0  0  0
    6.1950   -1.9751   -2.4281 H   0  0  0  0  0  0  0  0  0  0  0  0
    7.7859   -1.2750   -2.1274 H   0  0  0  0  0  0  0  0  0  0  0  0
    5.2343    0.2801   -2.7450 H   0  0  0  0  0  0  0  0  0  0  0  0
    6.7844    1.0270   -2.3433 H   0  0  0  0  0  0  0  0  0  0  0  0
    6.6288    0.0571   -3.8007 H   0  0  0  0  0  0  0  0  0  0  0  0
    8.2956   -0.1508   -0.0204 H   0  0  0  0  0  0  0  0  0  0  0  0
    6.9167    0.9495   -0.0666 H   0  0  0  0  0  0  0  0  0  0  0  0
    7.4639   -1.1040    2.1264 H   0  0  0  0  0  0  0  0  0  0  0  0
    7.6831    0.6421    2.2506 H   0  0  0  0  0  0  0  0  0  0  0  0
    6.0635   -0.0328    2.0649 H   0  0  0  0  0  0  0  0  0  0  0  0
    4.1830    1.0828   -0.8450 H   0  0  0  0  0  0  0  0  0  0  0  0
    1.8204   -0.3390   -2.9673 H   0  0  0  0  0  0  0  0  0  0  0  0
    3.7525   -1.4650   -3.9374 H   0  0  0  0  0  0  0  0  0  0  0  0
    4.3488   -3.1899   -5.7028 H   0  0  0  0  0  0  0  0  0  0  0  0
    5.6871   -2.3723   -4.8372 H   0  0  0  0  0  0  0  0  0  0  0  0
    5.9489   -3.9587   -5.5888 H   0  0  0  0  0  0  0  0  0  0  0  0
    2.6029   -5.1047   -2.0113 H   0  0  0  0  0  0  0  0  0  0  0  0
    0.6508   -3.9659   -1.0307 H   0  0  0  0  0  0  0  0  0  0  0  0
   -1.3811   -1.0662    0.9324 H   0  0  0  0  0  0  0  0  0  0  0  0
   -3.6444   -1.9689    1.2849 H   0  0  0  0  0  0  0  0  0  0  0  0
   -5.7627   -4.1242   -2.5402 H   0  0  0  0  0  0  0  0  0  0  0  0
   -5.0113   -5.4822   -1.6389 H   0  0  0  0  0  0  0  0  0  0  0  0
   -6.7215   -5.0712   -1.3824 H   0  0  0  0  0  0  0  0  0  0  0  0
   -3.4381   -3.9353   -2.5082 H   0  0  0  0  0  0  0  0  0  0  0  0
   -1.2126   -3.0142   -2.8680 H   0  0  0  0  0  0  0  0  0  0  0  0
    0.4533    4.2560   -2.2125 H   0  0  0  0  0  0  0  0  0  0  0  0
    2.6812    5.2461   -2.5634 H   0  0  0  0  0  0  0  0  0  0  0  0
    3.9485    8.7026    0.4733 H   0  0  0  0  0  0  0  0  0  0  0  0
    4.7876    7.3483    1.3001 H   0  0  0  0  0  0  0  0  0  0  0  0
    5.6697    8.3883    0.1613 H   0  0  0  0  0  0  0  0  0  0  0  0
    2.4767    7.0535    1.3085 H   0  0  0  0  0  0  0  0  0  0  0  0
    0.2870    6.0497    1.6633 H   0  0  0  0  0  0  0  0  0  0  0  0
   -2.7407    3.4646    1.7310 H   0  0  0  0  0  0  0  0  0  0  0  0
   -4.6678    4.6074    2.6910 H   0  0  0  0  0  0  0  0  0  0  0  0
   -5.3316    6.3234    4.4180 H   0  0  0  0  0  0  0  0  0  0  0  0
   -6.9301    7.0854    4.2506 H   0  0  0  0  0  0  0  0  0  0  0  0
   -6.6351    5.5067    3.4972 H   0  0  0  0  0  0  0  0  0  0  0  0
   -3.4842    8.2323    0.7570 H   0  0  0  0  0  0  0  0  0  0  0  0
   -1.5384    7.0753   -0.2121 H   0  0  0  0  0  0  0  0  0  0  0  0
   -4.9190    0.9005   -1.0538 H   0  0  0  0  0  0  0  0  0  0  0  0
   -6.4222    1.5644   -0.4186 H   0  0  0  0  0  0  0  0  0  0  0  0
   -5.2450    2.1264    1.7255 H   0  0  0  0  0  0  0  0  0  0  0  0
   -3.7773    1.3744    1.0919 H   0  0  0  0  0  0  0  0  0  0  0  0
   -5.2198    0.3992    1.3559 H   0  0  0  0  0  0  0  0  0  0  0  0
   -7.8271    3.9119   -2.8026 H   0  0  0  0  0  0  0  0  0  0  0  0
   -7.8979    2.5196   -1.7280 H   0  0  0  0  0  0  0  0  0  0  0  0
  -10.1372    3.2026   -2.5090 H   0  0  0  0  0  0  0  0  0  0  0  0
  -10.0252    3.3337   -0.7593 H   0  0  0  0  0  0  0  0  0  0  0  0
   -9.9464    4.7866   -1.7661 H   0  0  0  0  0  0  0  0  0  0  0  0
   -7.9879    2.9476    0.7141 H   0  0  0  0  0  0  0  0  0  0  0  0
   -6.7246    4.0428    1.2675 H   0  0  0  0  0  0  0  0  0  0  0  0
   -9.6264    4.8873    0.8389 H   0  0  0  0  0  0  0  0  0  0  0  0
   -8.3248    5.8842    1.4846 H   0  0  0  0  0  0  0  0  0  0  0  0
   -8.8863    4.4703    2.3787 H   0  0  0  0  0  0  0  0  0  0  0  0
   -9.3524    6.7317   -0.6903 H   0  0  0  0  0  0  0  0  0  0  0  0
   -7.7190   10.1166   -1.7965 H   0  0  0  0  0  0  0  0  0  0  0  0
  -13.7306    8.6920   -0.6134 H   0  0  0  0  0  0  0  0  0  0  0  0
  -12.1276   13.3154   -1.5068 H   0  0  0  0  0  0  0  0  0  0  0  0
  1  2  2  0  0  0  0
  2  3  1  0  0  0  0
  3  4  2  0  0  0  0
  3  5  1  0  0  0  0
  5  6  2  0  0  0  0
  6  7  1  0  0  0  0
  7  8  2  0  0  0  0
  8  9  1  0  0  0  0
  9 10  2  0  0  0  0
 10 11  1  0  0  0  0
 11 12  2  0  0  0  0
 12 13  1  0  0  0  0
 13 14  3  0  0  0  0
 12 15  1  0  0  0  0
 15 16  3  0  0  0  0
  8 17  1  0  0  0  0
 17 18  1  0  0  0  0
 18 19  1  0  0  0  0
 19 20  2  0  0  0  0
 20 21  1  0  0  0  0
 21 22  1  0  0  0  0
 21 23  1  0  0  0  0
  1 24  1  0  0  0  0
 24 25  2  0  0  0  0
 25 26  1  0  0  0  0
 26 27  1  0  0  0  0
 25 28  1  0  0  0  0
 28 29  2  0  0  0  0
 29 30  1  0  0  0  0
 29 31  1  0  0  0  0
 31 32  2  0  0  0  0
 32 33  1  0  0  0  0
 33 34  1  0  0  0  0
 34 35  1  0  0  0  0
 33 36  1  0  0  0  0
 36 37  1  0  0  0  0
 32 38  1  0  0  0  0
 38 39  2  0  0  0  0
 39 40  1  0  0  0  0
 39 41  1  0  0  0  0
 41 42  2  0  0  0  0
 42 43  1  0  0  0  0
 43 44  1  0  0  0  0
 44 45  2  0  0  0  0
 45 46  1  0  0  0  0
 46 47  2  0  0  0  0
 47 48  1  0  0  0  0
 48 49  1  0  0  0  0
 47 50  1  0  0  0  0
 50 51  2  0  0  0  0
 43 52  1  0  0  0  0
 52 53  2  0  0  0  0
 53 54  1  0  0  0  0
 54 55  2  0  0  0  0
 55 56  1  0  0  0  0
 56 57  1  0  0  0  0
 55 58  1  0  0  0  0
 58 59  2  0  0  0  0
 42 60  1  0  0  0  0
 60 61  1  0  0  0  0
 61 62  1  0  0  0  0
 62 63  2  0  0  0  0
 63 64  1  0  0  0  0
 64 65  1  0  0  0  0
 65 66  2  0  0  0  0
 66 67  1  0  0  0  0
 67 68  2  0  0  0  0
 68 69  1  0  0  0  0
 69 70  1  0  0  0  0
 68 71  1  0  0  0  0
 71 72  2  0  0  0  0
 64 73  1  0  0  0  0
 73 74  2  0  0  0  0
 74 75  1  0  0  0  0
 75 76  2  0  0  0  0
 76 77  1  0  0  0  0
 77 78  1  0  0  0  0
 76 79  1  0  0  0  0
 79 80  2  0  0  0  0
 63 81  1  0  0  0  0
 81 82  1  0  0  0  0
 62 83  1  0  0  0  0
 83 84  2  0  0  0  0
 84 85  1  0  0  0  0
 85 86  1  0  0  0  0
 84 87  1  0  0  0  0
 87 88  2  0  0  0  0
 88 89  1  0  0  0  0
 88 90  1  0  0  0  0
 90 91  2  0  0  0  0
 91 92  1  0  0  0  0
 92 93  1  0  0  0  0
 93 94  1  0  0  0  0
 92 95  1  0  0  0  0
 95 96  1  0  0  0  0
 91 97  1  0  0  0  0
 97 98  2  0  0  0  0
 98 99  1  0  0  0  0
 98100  1  0  0  0  0
100101  2  0  0  0  0
101102  1  0  0  0  0
102103  2  0  0  0  0
102104  1  0  0  0  0
104105  2  0  0  0  0
105106  1  0  0  0  0
106107  1  0  0  0  0
106108  2  0  0  0  0
108109  1  0  0  0  0
108110  1  0  0  0  0
110111  2  0  0  0  0
111112  1  0  0  0  0
112113  2  0  0  0  0
113114  1  0  0  0  0
114115  3  0  0  0  0
113116  1  0  0  0  0
116117  3  0  0  0  0
 11  2  1  0  0  0  0
 23 17  1  0  0  0  0
 30 24  1  0  0  0  0
 40 31  1  0  0  0  0
 82 41  1  0  0  0  0
 89 83  1  0  0  0  0
 99 90  1  0  0  0  0
112101  1  0  0  0  0
 10  5  1  0  0  0  0
 22 18  1  0  0  0  0
 33 28  1  0  0  0  0
 51 44  1  0  0  0  0
 59 52  1  0  0  0  0
 81 60  2  0  0  0  0
 92 87  1  0  0  0  0
111104  1  0  0  0  0
 23  7  1  0  0  0  0
 72 65  1  0  0  0  0
 80 73  1  0  0  0  0
  1118  1  0  0  0  0
  6119  1  0  0  0  0
  9120  1  0  0  0  0
 17121  1  0  0  0  0
 18122  1  0  0  0  0
 19123  1  0  0  0  0
 20124  1  0  0  0  0
 21125  1  0  0  0  0
 22126  1  0  0  0  0
 22127  1  0  0  0  0
 23128  1  0  0  0  0
 26129  1  0  0  0  0
 26130  1  0  0  0  0
 27131  1  0  0  0  0
 27132  1  0  0  0  0
 27133  1  0  0  0  0
 34134  1  0  0  0  0
 34135  1  0  0  0  0
 35136  1  0  0  0  0
 35137  1  0  0  0  0
 35138  1  0  0  0  0
 36139  1  0  0  0  0
 36140  1  0  0  0  0
 37141  1  0  0  0  0
 37142  1  0  0  0  0
 37143  1  0  0  0  0
 38144  1  0  0  0  0
 45145  1  0  0  0  0
 46146  1  0  0  0  0
 49147  1  0  0  0  0
 49148  1  0  0  0  0
 49149  1  0  0  0  0
 50150  1  0  0  0  0
 51151  1  0  0  0  0
 53152  1  0  0  0  0
 54153  1  0  0  0  0
 57154  1  0  0  0  0
 57155  1  0  0  0  0
 57156  1  0  0  0  0
 58157  1  0  0  0  0
 59158  1  0  0  0  0
 66159  1  0  0  0  0
 67160  1  0  0  0  0
 70161  1  0  0  0  0
 70162  1  0  0  0  0
 70163  1  0  0  0  0
 71164  1  0  0  0  0
 72165  1  0  0  0  0
 74166  1  0  0  0  0
 75167  1  0  0  0  0
 78168  1  0  0  0  0
 78169  1  0  0  0  0
 78170  1  0  0  0  0
 79171  1  0  0  0  0
 80172  1  0  0  0  0
 85173  1  0  0  0  0
 85174  1  0  0  0  0
 86175  1  0  0  0  0
 86176  1  0  0  0  0
 86177  1  0  0  0  0
 93178  1  0  0  0  0
 93179  1  0  0  0  0
 94180  1  0  0  0  0
 94181  1  0  0  0  0
 94182  1  0  0  0  0
 95183  1  0  0  0  0
 95184  1  0  0  0  0
 96185  1  0  0  0  0
 96186  1  0  0  0  0
 96187  1  0  0  0  0
 97188  1  0  0  0  0
100189  1  0  0  0  0
105190  1  0  0  0  0
110191  1  0  0  0  0
M  END
