218

C         -5.90820        3.49020       -0.95570
C         -6.41890        4.70460       -1.34860
C         -5.82760        5.63650       -2.30990
O         -4.70580        5.60230       -2.79130
C         -6.85030        6.66100       -2.57840
C         -6.75480        7.73210       -3.46370
C         -7.88530        8.51190       -3.51840
C         -9.02640        8.24550       -2.75060
C         -9.13150        7.19410       -1.87030
C         -7.99150        6.38950       -1.79710
C         -7.71700        5.21490       -0.97120
C         -8.54390        4.72510        0.01050
C         -8.20210        3.72870        0.94290
N         -7.99830        2.96480        1.77850
C         -9.84810        5.18990        0.27140
N        -10.92540        5.48660        0.53860
C         -9.77740        9.42800       -3.31000
C         -9.87830       10.67300       -2.40380
C        -10.22130       11.79040       -3.36210
C         -9.14120       12.04330       -4.09020
C         -8.04960       11.10130       -3.63580
C         -8.39950       10.99100       -2.14620
C         -8.50460        9.72520       -4.16640
C         -4.73650        2.83000       -1.33040
C         -4.39760        1.53010       -0.88460
N         -5.17590        0.70310       -0.10800
C         -6.56470        0.59660       -0.27960
C         -7.39040        0.36570        0.81710
C         -8.76270        0.32910        0.66510
C         -9.33080        0.54800       -0.58200
S        -11.07210        0.62800       -0.85490
C        -11.72190        1.03640        0.79110
C         -8.50410        0.71770       -1.69230
C         -7.13610        0.72970       -1.54720
C         -4.52030       -0.12840        0.81590
C         -3.48170        0.38500        1.59500
C         -2.79330       -0.43250        2.46120
C         -3.13240       -1.77900        2.57720
S         -2.15420       -2.74510        3.68530
C         -2.86080       -4.41100        3.57580
C         -4.18900       -2.28530        1.83310
C         -4.87550       -1.46530        0.95850
C         -3.10800        1.17400       -1.31360
S         -2.13210       -0.24190       -1.11110
C         -0.83870        0.51030       -2.02230
C         -1.16270        1.75960       -2.49780
N         -0.34360        2.54190       -3.29150
C          0.46300        1.96910       -4.28580
C          1.64920        2.59670       -4.65750
C          2.42070        2.09810       -5.68870
C          2.03230        0.94120       -6.35020
S          2.93380        0.22310       -7.68880
C          4.05290        1.55380       -8.21490
C          0.86340        0.29210       -5.96200
C          0.08000        0.80670       -4.95320
C         -0.52690        3.93320       -3.26030
C         -0.68460        4.58100       -2.03670
C         -0.96370        5.93190       -1.99210
C         -1.08440        6.65210       -3.17140
S         -1.52400        8.36970       -3.16570
C         -2.92110        8.33300       -1.99960
C         -0.86680        6.02470       -4.39130
C         -0.59360        4.67500       -4.43850
C         -2.47370        2.13470       -2.08820
S         -3.45850        3.53220       -2.32930
C          0.45230       -0.16980       -1.92100
C          0.76630       -1.34450       -2.56690
F         -0.03810       -1.82020       -3.53080
C          1.85600       -2.13850       -2.17780
F          2.03730       -3.31120       -2.80980
C          2.63540       -1.81760       -1.08330
C          2.39000       -0.56430       -0.45980
N          3.18800       -0.16950        0.54350
C          2.92870        0.94720        1.17450
C          3.88220        1.35560        2.25450
C          5.20030        0.59570        2.17310
C          1.78560        1.72550        0.81570
N          1.03390        1.38390       -0.20020
C          1.31400        0.25310       -0.87550
C          1.33850        2.93020        1.58390
C          0.42300        2.49490        2.73120
C          3.52220       -2.76730       -0.45260
C          4.42600       -3.64310       -1.02540
N          4.85150       -3.56200       -2.33470
C          5.03600       -2.29950       -2.91670
C          4.79830       -2.10280       -4.27570
C          5.00630       -0.86470       -4.84570
C          5.44280        0.20150       -4.06700
S          5.74530        1.75000       -4.86740
C          5.48010        2.95410       -3.53280
C          5.67420        0.01380       -2.71170
C          5.47440       -1.22590       -2.14290
C          5.19760       -4.73520       -3.01780
C          4.44630       -5.89190       -2.83300
C          4.79090       -7.06740       -3.47130
C          5.89360       -7.10170       -4.31280
S          6.43240       -8.53870       -5.18360
C          5.35880       -9.85940       -4.55200
C          6.63910       -5.94040       -4.51210
C          6.30040       -4.77100       -3.87110
C          4.92860       -4.54550       -0.05480
S          5.97480       -5.90780       -0.11820
C          5.80060       -6.16460        1.62530
C          4.89440       -5.25100        2.20050
N          4.39810       -5.25550        3.48220
C          3.76510       -4.06710        3.94290
C          2.40730       -4.07810        4.24500
C          1.76520       -2.92330        4.64710
C          2.48840       -1.74440        4.77530
S          1.77350       -0.19720        5.22250
C          0.11570       -0.62530        5.81950
C          3.85650       -1.74110        4.51520
C          4.49000       -2.88750        4.08840
C          4.17760       -6.40870        4.24540
C          4.11550       -6.29300        5.63520
C          3.90980       -7.39900        6.43250
C          3.76700       -8.65610        5.85640
S          3.56600      -10.14850        6.76750
C          3.48180       -9.60320        8.49730
C          3.78880       -8.77230        4.46740
C          3.98200       -7.66590        3.67090
C          4.44370       -4.32580        1.22800
S          3.37600       -2.96340        1.27700
C          6.53190       -7.24290        2.13920
C          6.86390       -7.56850        3.43130
C          7.13350       -8.99170        3.77220
O          7.25720       -9.91440        2.99950
C          7.14850       -9.02010        5.24500
C          7.24900       -9.94880        6.22640
S          7.19840       -9.20160        7.78190
C          7.04500       -7.62030        7.10040
C          7.02400       -7.68200        5.74400
C          6.93190       -6.76810        4.62170
C          7.10340       -5.40280        4.69490
C          7.11340       -4.73120        5.92850
N          7.07260       -4.16890        6.92970
C          7.34190       -4.59460        3.57510
N          7.56920       -3.90900        2.68040
H         -6.52220        2.92950       -0.26260
H         -5.85900        7.89700       -4.04210
H        -10.01870        6.99940       -1.29070
H        -10.70920        9.19840       -3.82320
H        -10.52390       10.55440       -1.53790
H        -11.19840       12.22830       -3.44770
H         -9.03580       12.73490       -4.90530
H         -7.02960       11.37440       -3.89290
H         -8.26720       11.93560       -1.62100
H         -7.86150       10.20380       -1.62090
H         -8.58760        9.69350       -5.25120
H         -6.95740        0.24100        1.79720
H         -9.37740        0.16120        1.53360
H        -11.71420        0.15860        1.43070
H        -12.74390        1.36540        0.63130
H        -11.13500        1.84300        1.22010
H         -8.95120        0.84580       -2.66600
H         -6.50080        0.87060       -2.40880
H         -3.21810        1.42870        1.50990
H         -1.98420       -0.03720        3.05650
H         -2.27120       -5.02550        4.24930
H         -3.89620       -4.39570        3.90320
H         -2.76930       -4.78450        2.56010
H         -4.48170       -3.31990        1.90990
H         -5.68410       -1.86910        0.36800
H          1.95500        3.49800       -4.14610
H          3.32450        2.61510       -5.96450
H          4.49900        1.20980       -9.14280
H          4.82730        1.71400       -7.47010
H          3.47940        2.45860       -8.39170
H          0.56230       -0.60730       -6.47640
H         -0.84740        0.31800       -4.69800
H         -0.59540        4.00970       -1.12400
H         -1.09480        6.42020       -1.03860
H         -3.50180        7.43690       -2.19540
H         -2.56290        8.35090       -0.97440
H         -3.51220        9.22170       -2.19680
H         -0.94580        6.59840       -5.30170
H         -0.46320        4.18130       -5.38990
H          3.40270        1.16690        3.22020
H          4.06780        2.43030        2.18810
H          5.85410        0.88790        2.99080
H          5.70130        0.81220        1.23290
H          5.02150       -0.47360        2.22240
H          0.78160        3.57920        0.90700
H          2.19070        3.48060        1.98130
H          0.07130        3.36530        3.27920
H          0.95140        1.84060        3.42050
H         -0.43660        1.96060        2.33310
H          4.44660       -2.92400       -4.88110
H          4.82460       -0.71930       -5.89860
H          4.57350        2.69330       -2.99470
H          5.36450        3.91920       -4.01640
H          6.33970        2.98070       -2.86930
H          6.03270        0.82090       -2.09260
H          5.67800       -1.36190       -1.09160
H          3.57370       -5.86390       -2.19780
H          4.18430       -7.94330       -3.30880
H          5.71770      -10.77350       -5.01450
H          5.45630       -9.92840       -3.47270
H          4.32920       -9.67850       -4.84700
H          7.49440       -5.97360       -5.16940
H          6.89220       -3.88060       -4.01990
H          1.84680       -4.99570        4.14080
H          0.70420       -2.95170        4.83590
H         -0.31030        0.30050        6.19370
H          0.19730       -1.34800        6.62550
H         -0.49200       -1.01190        5.00670
H          4.41730       -0.83030        4.64940
H          5.54380       -2.86790        3.86190
H          4.25040       -5.32560        6.09620
H          3.87960       -7.26790        7.50160
H          4.41940       -9.14050        8.79100
H          2.64350       -8.92630        8.63170
H          3.32230      -10.50680        9.07730
H          3.65460       -9.74460        4.01930
H          3.96710       -7.77520        2.59810
H          6.83500       -7.98110        1.40170
H          7.34830      -11.01240        6.14740
H          6.97230       -6.76830        7.74630
