
  xtb     02072213193D
 energy: -432.251146054399 gnorm: 0.000664596726 xtb: 6.4.1 (unknown)
258280  0     0  0            999 V2000
   -3.7073   -5.6478    5.7631 C   0  0  0  0  0  0  0  0  0  0  0  0
   -4.1570   -5.1940    6.9791 C   0  0  0  0  0  0  0  0  0  0  0  0
   -3.8161   -5.9653    8.1911 C   0  0  0  0  0  0  0  0  0  0  0  0
   -3.3941   -7.1054    8.2432 O   0  0  0  0  0  0  0  0  0  0  0  0
   -3.9993   -5.0247    9.3158 C   0  0  0  0  0  0  0  0  0  0  0  0
   -3.6819   -5.2337   10.6551 C   0  0  0  0  0  0  0  0  0  0  0  0
   -3.9317   -4.1522   11.4671 C   0  0  0  0  0  0  0  0  0  0  0  0
   -4.4705   -2.9522   10.9876 C   0  0  0  0  0  0  0  0  0  0  0  0
   -4.7988   -2.7351    9.6704 C   0  0  0  0  0  0  0  0  0  0  0  0
   -4.5372   -3.8150    8.8277 C   0  0  0  0  0  0  0  0  0  0  0  0
   -4.7627   -3.9586    7.3912 C   0  0  0  0  0  0  0  0  0  0  0  0
   -5.6158   -3.1942    6.6285 C   0  0  0  0  0  0  0  0  0  0  0  0
   -6.1892   -1.9878    7.0529 C   0  0  0  0  0  0  0  0  0  0  0  0
   -6.6492   -0.9728    7.3394 N   0  0  0  0  0  0  0  0  0  0  0  0
   -6.0512   -3.6072    5.3530 C   0  0  0  0  0  0  0  0  0  0  0  0
   -6.4706   -3.9571    4.3422 N   0  0  0  0  0  0  0  0  0  0  0  0
   -4.4419   -2.3012   12.3474 C   0  0  0  0  0  0  0  0  0  0  0  0
   -3.3179   -1.2744   12.6294 C   0  0  0  0  0  0  0  0  0  0  0  0
   -2.1667   -1.6427   11.7265 C   0  0  0  0  0  0  0  0  0  0  0  0
   -1.6493   -2.7774   12.1782 C   0  0  0  0  0  0  0  0  0  0  0  0
   -2.4405   -3.1962   13.3928 C   0  0  0  0  0  0  0  0  0  0  0  0
   -2.7986   -1.8176   13.9699 C   0  0  0  0  0  0  0  0  0  0  0  0
   -3.8352   -3.6369   12.8818 C   0  0  0  0  0  0  0  0  0  0  0  0
   -3.3480   -4.9171    4.6266 C   0  0  0  0  0  0  0  0  0  0  0  0
   -2.8624   -5.4071    3.3961 C   0  0  0  0  0  0  0  0  0  0  0  0
   -2.7313   -6.7286    3.0394 N   0  0  0  0  0  0  0  0  0  0  0  0
   -2.3169   -7.6951    3.9679 C   0  0  0  0  0  0  0  0  0  0  0  0
   -2.9110   -8.9561    3.9979 C   0  0  0  0  0  0  0  0  0  0  0  0
   -2.5691   -9.8566    4.9837 C   0  0  0  0  0  0  0  0  0  0  0  0
   -1.6409   -9.5115    5.9614 C   0  0  0  0  0  0  0  0  0  0  0  0
   -1.3286  -10.6607    7.2625 S   0  0  0  0  0  0  0  0  0  0  0  0
   -1.0711   -9.5396    8.6711 C   0  0  0  0  0  0  0  0  0  0  0  0
   -0.9939   -8.2831    5.8911 C   0  0  0  0  0  0  0  0  0  0  0  0
   -1.3225   -7.3873    4.8964 C   0  0  0  0  0  0  0  0  0  0  0  0
   -3.0735   -7.1175    1.7354 C   0  0  0  0  0  0  0  0  0  0  0  0
   -2.3251   -8.0814    1.0678 C   0  0  0  0  0  0  0  0  0  0  0  0
   -2.6954   -8.5108   -0.1916 C   0  0  0  0  0  0  0  0  0  0  0  0
   -3.8259   -7.9826   -0.7999 C   0  0  0  0  0  0  0  0  0  0  0  0
   -4.4178   -8.4877   -2.3869 S   0  0  0  0  0  0  0  0  0  0  0  0
   -3.2644   -9.7857   -2.9063 C   0  0  0  0  0  0  0  0  0  0  0  0
   -4.5664   -7.0028   -0.1403 C   0  0  0  0  0  0  0  0  0  0  0  0
   -4.1948   -6.5698    1.1114 C   0  0  0  0  0  0  0  0  0  0  0  0
   -2.5064   -4.3511    2.5344 C   0  0  0  0  0  0  0  0  0  0  0  0
   -1.7934   -4.2780    0.9568 S   0  0  0  0  0  0  0  0  0  0  0  0
   -1.6498   -2.5215    1.0819 C   0  0  0  0  0  0  0  0  0  0  0  0
   -2.2453   -2.0250    2.2430 C   0  0  0  0  0  0  0  0  0  0  0  0
   -2.4222   -0.6922    2.5618 N   0  0  0  0  0  0  0  0  0  0  0  0
   -2.8979    0.2534    1.6435 C   0  0  0  0  0  0  0  0  0  0  0  0
   -3.5087   -0.1013    0.4446 C   0  0  0  0  0  0  0  0  0  0  0  0
   -4.0334    0.8649   -0.3938 C   0  0  0  0  0  0  0  0  0  0  0  0
   -3.9889    2.2042   -0.0338 C   0  0  0  0  0  0  0  0  0  0  0  0
   -4.7212    3.5199   -0.9482 S   0  0  0  0  0  0  0  0  0  0  0  0
   -5.3752    2.7216   -2.4399 C   0  0  0  0  0  0  0  0  0  0  0  0
   -3.3492    2.5647    1.1522 C   0  0  0  0  0  0  0  0  0  0  0  0
   -2.7923    1.6092    1.9664 C   0  0  0  0  0  0  0  0  0  0  0  0
   -2.5508   -0.4032    3.9412 C   0  0  0  0  0  0  0  0  0  0  0  0
   -3.7217    0.1478    4.4527 C   0  0  0  0  0  0  0  0  0  0  0  0
   -3.8689    0.3520    5.8096 C   0  0  0  0  0  0  0  0  0  0  0  0
   -2.8435   -0.0007    6.6783 C   0  0  0  0  0  0  0  0  0  0  0  0
   -2.9501    0.1516    8.4305 S   0  0  0  0  0  0  0  0  0  0  0  0
   -4.4769    1.0951    8.7036 C   0  0  0  0  0  0  0  0  0  0  0  0
   -1.6595   -0.5288    6.1679 C   0  0  0  0  0  0  0  0  0  0  0  0
   -1.5122   -0.7268    4.8120 C   0  0  0  0  0  0  0  0  0  0  0  0
   -2.6722   -3.0832    3.0742 C   0  0  0  0  0  0  0  0  0  0  0  0
   -3.2886   -3.1533    4.6813 S   0  0  0  0  0  0  0  0  0  0  0  0
   -0.8007   -1.8471    0.1764 C   0  0  0  0  0  0  0  0  0  0  0  0
   -0.2010   -2.4218   -0.9406 C   0  0  0  0  0  0  0  0  0  0  0  0
   -0.6397   -3.6037   -1.5313 N   0  0  0  0  0  0  0  0  0  0  0  0
   -1.9568   -3.6540   -2.0117 C   0  0  0  0  0  0  0  0  0  0  0  0
   -2.6520   -2.4829   -2.3187 C   0  0  0  0  0  0  0  0  0  0  0  0
   -3.9414   -2.5425   -2.7975 C   0  0  0  0  0  0  0  0  0  0  0  0
   -4.5643   -3.7712   -3.0012 C   0  0  0  0  0  0  0  0  0  0  0  0
   -6.2067   -3.7319   -3.6460 S   0  0  0  0  0  0  0  0  0  0  0  0
   -6.6113   -5.4789   -3.9198 C   0  0  0  0  0  0  0  0  0  0  0  0
   -3.8791   -4.9381   -2.6937 C   0  0  0  0  0  0  0  0  0  0  0  0
   -2.5959   -4.8781   -2.1885 C   0  0  0  0  0  0  0  0  0  0  0  0
    0.3452   -4.4905   -1.9844 C   0  0  0  0  0  0  0  0  0  0  0  0
    1.4760   -4.6960   -1.1964 C   0  0  0  0  0  0  0  0  0  0  0  0
    2.5010   -5.5130   -1.6269 C   0  0  0  0  0  0  0  0  0  0  0  0
    2.4105   -6.1470   -2.8585 C   0  0  0  0  0  0  0  0  0  0  0  0
    3.6696   -7.2063   -3.5016 S   0  0  0  0  0  0  0  0  0  0  0  0
    5.1581   -6.6478   -2.6222 C   0  0  0  0  0  0  0  0  0  0  0  0
    1.2716   -5.9657   -3.6388 C   0  0  0  0  0  0  0  0  0  0  0  0
    0.2525   -5.1430   -3.2134 C   0  0  0  0  0  0  0  0  0  0  0  0
    0.8459   -1.6204   -1.4351 C   0  0  0  0  0  0  0  0  0  0  0  0
    2.0228   -1.8317   -2.6802 S   0  0  0  0  0  0  0  0  0  0  0  0
    2.6448   -0.2294   -2.3676 C   0  0  0  0  0  0  0  0  0  0  0  0
    2.0062    0.4154   -1.3196 C   0  0  0  0  0  0  0  0  0  0  0  0
    2.3445    1.6632   -0.8134 N   0  0  0  0  0  0  0  0  0  0  0  0
    1.3278    2.5654   -0.4752 C   0  0  0  0  0  0  0  0  0  0  0  0
    1.5600    3.5349    0.4981 C   0  0  0  0  0  0  0  0  0  0  0  0
    0.6084    4.4929    0.7825 C   0  0  0  0  0  0  0  0  0  0  0  0
   -0.6087    4.4798    0.1160 C   0  0  0  0  0  0  0  0  0  0  0  0
   -1.8483    5.7210    0.3269 S   0  0  0  0  0  0  0  0  0  0  0  0
   -1.4124    6.4919    1.9151 C   0  0  0  0  0  0  0  0  0  0  0  0
   -0.8710    3.4758   -0.8101 C   0  0  0  0  0  0  0  0  0  0  0  0
    0.0867    2.5331   -1.1090 C   0  0  0  0  0  0  0  0  0  0  0  0
    3.6733    2.1108   -0.8782 C   0  0  0  0  0  0  0  0  0  0  0  0
    3.9823    3.4081   -1.2953 C   0  0  0  0  0  0  0  0  0  0  0  0
    5.2931    3.7974   -1.4535 C   0  0  0  0  0  0  0  0  0  0  0  0
    6.3323    2.9063   -1.1906 C   0  0  0  0  0  0  0  0  0  0  0  0
    7.9688    3.4856   -1.5198 S   0  0  0  0  0  0  0  0  0  0  0  0
    9.0099    2.0079   -1.3397 C   0  0  0  0  0  0  0  0  0  0  0  0
    6.0357    1.6395   -0.7085 C   0  0  0  0  0  0  0  0  0  0  0  0
    4.7187    1.2499   -0.5535 C   0  0  0  0  0  0  0  0  0  0  0  0
    0.9887   -0.4066   -0.7773 C   0  0  0  0  0  0  0  0  0  0  0  0
   -0.1479   -0.2468    0.5232 S   0  0  0  0  0  0  0  0  0  0  0  0
    3.7132    0.3408   -3.1604 C   0  0  0  0  0  0  0  0  0  0  0  0
    3.5111    1.6248   -3.7309 C   0  0  0  0  0  0  0  0  0  0  0  0
    2.2790    2.1553   -3.7027 N   0  0  0  0  0  0  0  0  0  0  0  0
    2.0958    3.3757   -4.1513 C   0  0  0  0  0  0  0  0  0  0  0  0
    0.7300    3.8863   -4.0152 C   0  0  0  0  0  0  0  0  0  0  0  0
    0.4488    5.1517   -3.5261 C   0  0  0  0  0  0  0  0  0  0  0  0
   -0.8658    5.5634   -3.3879 C   0  0  0  0  0  0  0  0  0  0  0  0
   -1.9227    4.7321   -3.7364 C   0  0  0  0  0  0  0  0  0  0  0  0
   -3.2299    5.0665   -3.6573 O   0  0  0  0  0  0  0  0  0  0  0  0
   -3.5659    6.3547   -3.1716 C   0  0  0  0  0  0  0  0  0  0  0  0
   -5.0801    6.4837   -3.1707 C   0  0  0  0  0  0  0  0  0  0  0  0
   -1.6383    3.4274   -4.2120 C   0  0  0  0  0  0  0  0  0  0  0  0
   -0.3239    3.0254   -4.3334 C   0  0  0  0  0  0  0  0  0  0  0  0
   -2.7153    2.6460   -4.5097 O   0  0  0  0  0  0  0  0  0  0  0  0
   -2.4800    1.3540   -5.0375 C   0  0  0  0  0  0  0  0  0  0  0  0
   -3.8198    0.7229   -5.3842 C   0  0  0  0  0  0  0  0  0  0  0  0
    3.1863    4.1109   -4.7243 C   0  0  0  0  0  0  0  0  0  0  0  0
    3.0394    5.4273   -5.3366 C   0  0  0  0  0  0  0  0  0  0  0  0
    4.0811    6.3413   -5.2493 C   0  0  0  0  0  0  0  0  0  0  0  0
    3.9580    7.5966   -5.8189 C   0  0  0  0  0  0  0  0  0  0  0  0
    2.8006    7.9630   -6.4903 C   0  0  0  0  0  0  0  0  0  0  0  0
    2.5780    9.1642   -7.0713 O   0  0  0  0  0  0  0  0  0  0  0  0
    3.6008   10.1406   -7.0430 C   0  0  0  0  0  0  0  0  0  0  0  0
    3.0911   11.3589   -7.7967 C   0  0  0  0  0  0  0  0  0  0  0  0
    1.7401    7.0277   -6.6010 C   0  0  0  0  0  0  0  0  0  0  0  0
    0.6396    7.4776   -7.2614 O   0  0  0  0  0  0  0  0  0  0  0  0
   -0.5103    6.6609   -7.3399 C   0  0  0  0  0  0  0  0  0  0  0  0
   -0.4331    5.6309   -8.4641 C   0  0  0  0  0  0  0  0  0  0  0  0
    1.8805    5.7758   -6.0403 C   0  0  0  0  0  0  0  0  0  0  0  0
    4.3948    3.5876   -4.7531 N   0  0  0  0  0  0  0  0  0  0  0  0
    4.5956    2.3594   -4.2584 C   0  0  0  0  0  0  0  0  0  0  0  0
    5.9134    1.8105   -4.2617 C   0  0  0  0  0  0  0  0  0  0  0  0
    6.0556    0.5155   -3.7849 C   0  0  0  0  0  0  0  0  0  0  0  0
    4.9754   -0.2088   -3.2673 C   0  0  0  0  0  0  0  0  0  0  0  0
    5.2266   -1.4120   -2.7174 F   0  0  0  0  0  0  0  0  0  0  0  0
    7.2742   -0.0170   -3.6072 F   0  0  0  0  0  0  0  0  0  0  0  0
    6.9882    2.7056   -4.5800 C   0  0  0  0  0  0  0  0  0  0  0  0
    8.2013    2.4270   -5.1124 C   0  0  0  0  0  0  0  0  0  0  0  0
    8.6027    1.1534   -5.7802 C   0  0  0  0  0  0  0  0  0  0  0  0
    7.8726    0.2468   -6.1006 O   0  0  0  0  0  0  0  0  0  0  0  0
   10.0391    1.3148   -6.0735 C   0  0  0  0  0  0  0  0  0  0  0  0
   10.9277    0.3982   -6.6328 C   0  0  0  0  0  0  0  0  0  0  0  0
   10.5023   -0.8287   -6.9686 O   0  0  0  0  0  0  0  0  0  0  0  0
   12.2531    0.8069   -6.8121 C   0  0  0  0  0  0  0  0  0  0  0  0
   12.6616    2.0779   -6.4542 C   0  0  0  0  0  0  0  0  0  0  0  0
   11.7772    2.9973   -5.9058 C   0  0  0  0  0  0  0  0  0  0  0  0
   10.4605    2.6097   -5.7178 C   0  0  0  0  0  0  0  0  0  0  0  0
    9.3190    3.3508   -5.1851 C   0  0  0  0  0  0  0  0  0  0  0  0
    9.3188    4.6693   -4.8164 C   0  0  0  0  0  0  0  0  0  0  0  0
   10.4528    5.5081   -4.8674 C   0  0  0  0  0  0  0  0  0  0  0  0
   11.3326    6.2456   -4.8836 N   0  0  0  0  0  0  0  0  0  0  0  0
    8.1999    5.4126   -4.3799 C   0  0  0  0  0  0  0  0  0  0  0  0
    7.3565    6.1187   -4.0480 N   0  0  0  0  0  0  0  0  0  0  0  0
   -3.4760   -6.7060    5.7529 H   0  0  0  0  0  0  0  0  0  0  0  0
   -3.2779   -6.1764   10.9906 H   0  0  0  0  0  0  0  0  0  0  0  0
   -5.2094   -1.8078    9.3100 H   0  0  0  0  0  0  0  0  0  0  0  0
   -5.4044   -1.9853   12.7455 H   0  0  0  0  0  0  0  0  0  0  0  0
   -3.6365   -0.2356   12.6003 H   0  0  0  0  0  0  0  0  0  0  0  0
   -1.9005   -1.0912   10.8442 H   0  0  0  0  0  0  0  0  0  0  0  0
   -0.8566   -3.3624   11.7496 H   0  0  0  0  0  0  0  0  0  0  0  0
   -1.9586   -3.9074   14.0591 H   0  0  0  0  0  0  0  0  0  0  0  0
   -3.5609   -1.8572   14.7471 H   0  0  0  0  0  0  0  0  0  0  0  0
   -1.9281   -1.2748   14.3355 H   0  0  0  0  0  0  0  0  0  0  0  0
   -4.3974   -4.1877   13.6337 H   0  0  0  0  0  0  0  0  0  0  0  0
   -3.6686   -9.2072    3.2707 H   0  0  0  0  0  0  0  0  0  0  0  0
   -3.0472  -10.8225    5.0299 H   0  0  0  0  0  0  0  0  0  0  0  0
   -1.7994   -8.7357    8.6129 H   0  0  0  0  0  0  0  0  0  0  0  0
   -1.2380  -10.1365    9.5622 H   0  0  0  0  0  0  0  0  0  0  0  0
   -0.0543   -9.1568    8.6724 H   0  0  0  0  0  0  0  0  0  0  0  0
   -0.2385   -8.0189    6.6135 H   0  0  0  0  0  0  0  0  0  0  0  0
   -0.8326   -6.4256    4.8508 H   0  0  0  0  0  0  0  0  0  0  0  0
   -1.4507   -8.5013    1.5420 H   0  0  0  0  0  0  0  0  0  0  0  0
   -2.0933   -9.2580   -0.6828 H   0  0  0  0  0  0  0  0  0  0  0  0
   -2.2643   -9.3751   -3.0114 H   0  0  0  0  0  0  0  0  0  0  0  0
   -3.6258  -10.1267   -3.8717 H   0  0  0  0  0  0  0  0  0  0  0  0
   -3.2853  -10.6058   -2.1945 H   0  0  0  0  0  0  0  0  0  0  0  0
   -5.4502   -6.5989   -0.6085 H   0  0  0  0  0  0  0  0  0  0  0  0
   -4.7871   -5.8282    1.6260 H   0  0  0  0  0  0  0  0  0  0  0  0
   -3.6039   -1.1403    0.1658 H   0  0  0  0  0  0  0  0  0  0  0  0
   -4.4987    0.5490   -1.3137 H   0  0  0  0  0  0  0  0  0  0  0  0
   -6.0375    1.9049   -2.1681 H   0  0  0  0  0  0  0  0  0  0  0  0
   -4.5488    2.3988   -3.0641 H   0  0  0  0  0  0  0  0  0  0  0  0
   -5.9352    3.4895   -2.9632 H   0  0  0  0  0  0  0  0  0  0  0  0
   -3.3039    3.6078    1.4215 H   0  0  0  0  0  0  0  0  0  0  0  0
   -2.2895    1.9004    2.8761 H   0  0  0  0  0  0  0  0  0  0  0  0
   -4.5309    0.3981    3.7830 H   0  0  0  0  0  0  0  0  0  0  0  0
   -4.7977    0.7558    6.1765 H   0  0  0  0  0  0  0  0  0  0  0  0
   -5.3378    0.5346    8.3469 H   0  0  0  0  0  0  0  0  0  0  0  0
   -4.5435    1.2349    9.7783 H   0  0  0  0  0  0  0  0  0  0  0  0
   -4.4013    2.0585    8.2079 H   0  0  0  0  0  0  0  0  0  0  0  0
   -0.8635   -0.7890    6.8488 H   0  0  0  0  0  0  0  0  0  0  0  0
   -0.5987   -1.1454    4.4159 H   0  0  0  0  0  0  0  0  0  0  0  0
   -2.1749   -1.5224   -2.1918 H   0  0  0  0  0  0  0  0  0  0  0  0
   -4.4769   -1.6372   -3.0385 H   0  0  0  0  0  0  0  0  0  0  0  0
   -5.8877   -5.9253   -4.5950 H   0  0  0  0  0  0  0  0  0  0  0  0
   -7.5958   -5.4811   -4.3772 H   0  0  0  0  0  0  0  0  0  0  0  0
   -6.6434   -6.0138   -2.9753 H   0  0  0  0  0  0  0  0  0  0  0  0
   -4.3337   -5.9025   -2.8408 H   0  0  0  0  0  0  0  0  0  0  0  0
   -2.0807   -5.7897   -1.9263 H   0  0  0  0  0  0  0  0  0  0  0  0
    1.5473   -4.2070   -0.2358 H   0  0  0  0  0  0  0  0  0  0  0  0
    3.3628   -5.6508   -0.9939 H   0  0  0  0  0  0  0  0  0  0  0  0
    5.9979   -7.0766   -3.1599 H   0  0  0  0  0  0  0  0  0  0  0  0
    5.1542   -7.0129   -1.5990 H   0  0  0  0  0  0  0  0  0  0  0  0
    5.2085   -5.5638   -2.6551 H   0  0  0  0  0  0  0  0  0  0  0  0
    1.2073   -6.4615   -4.5953 H   0  0  0  0  0  0  0  0  0  0  0  0
   -0.6072   -4.9819   -3.8457 H   0  0  0  0  0  0  0  0  0  0  0  0
    2.5060    3.5519    1.0189 H   0  0  0  0  0  0  0  0  0  0  0  0
    0.8333    5.2475    1.5192 H   0  0  0  0  0  0  0  0  0  0  0  0
   -1.2709    5.7206    2.6661 H   0  0  0  0  0  0  0  0  0  0  0  0
   -2.2582    7.1186    2.1803 H   0  0  0  0  0  0  0  0  0  0  0  0
   -0.5222    7.1048    1.8079 H   0  0  0  0  0  0  0  0  0  0  0  0
   -1.8233    3.4606   -1.3134 H   0  0  0  0  0  0  0  0  0  0  0  0
   -0.1105    1.7888   -1.8633 H   0  0  0  0  0  0  0  0  0  0  0  0
    3.1844    4.0974   -1.5290 H   0  0  0  0  0  0  0  0  0  0  0  0
    5.5289    4.7886   -1.8097 H   0  0  0  0  0  0  0  0  0  0  0  0
    8.6641    1.2231   -2.0048 H   0  0  0  0  0  0  0  0  0  0  0  0
    9.0159    1.6771   -0.3053 H   0  0  0  0  0  0  0  0  0  0  0  0
   10.0090    2.3211   -1.6277 H   0  0  0  0  0  0  0  0  0  0  0  0
    6.8179    0.9403   -0.4599 H   0  0  0  0  0  0  0  0  0  0  0  0
    4.4973    0.2558   -0.1934 H   0  0  0  0  0  0  0  0  0  0  0  0
    1.2490    5.8163   -3.2397 H   0  0  0  0  0  0  0  0  0  0  0  0
   -1.0594    6.5470   -2.9940 H   0  0  0  0  0  0  0  0  0  0  0  0
   -3.1791    6.4806   -2.1524 H   0  0  0  0  0  0  0  0  0  0  0  0
   -3.1228    7.1212   -3.8232 H   0  0  0  0  0  0  0  0  0  0  0  0
   -5.4754    6.2372   -4.1527 H   0  0  0  0  0  0  0  0  0  0  0  0
   -5.5082    5.8112   -2.4339 H   0  0  0  0  0  0  0  0  0  0  0  0
   -5.3585    7.5030   -2.9192 H   0  0  0  0  0  0  0  0  0  0  0  0
   -0.0702    2.0381   -4.6836 H   0  0  0  0  0  0  0  0  0  0  0  0
   -1.8603    1.4267   -5.9417 H   0  0  0  0  0  0  0  0  0  0  0  0
   -1.9488    0.7351   -4.3000 H   0  0  0  0  0  0  0  0  0  0  0  0
   -3.6574   -0.2436   -5.8530 H   0  0  0  0  0  0  0  0  0  0  0  0
   -4.4217    0.5812   -4.4913 H   0  0  0  0  0  0  0  0  0  0  0  0
   -4.3660    1.3661   -6.0685 H   0  0  0  0  0  0  0  0  0  0  0  0
    4.9841    6.0759   -4.7233 H   0  0  0  0  0  0  0  0  0  0  0  0
    4.7787    8.2889   -5.7248 H   0  0  0  0  0  0  0  0  0  0  0  0
    4.5093    9.7499   -7.5216 H   0  0  0  0  0  0  0  0  0  0  0  0
    3.8391   10.4080   -6.0041 H   0  0  0  0  0  0  0  0  0  0  0  0
    2.8511   11.0861   -8.8205 H   0  0  0  0  0  0  0  0  0  0  0  0
    2.1911   11.7385   -7.3214 H   0  0  0  0  0  0  0  0  0  0  0  0
    3.8499   12.1361   -7.8012 H   0  0  0  0  0  0  0  0  0  0  0  0
   -1.3253    7.3616   -7.5449 H   0  0  0  0  0  0  0  0  0  0  0  0
   -0.7061    6.1734   -6.3756 H   0  0  0  0  0  0  0  0  0  0  0  0
   -1.3631    5.0704   -8.5086 H   0  0  0  0  0  0  0  0  0  0  0  0
   -0.2775    6.1357   -9.4140 H   0  0  0  0  0  0  0  0  0  0  0  0
    0.3896    4.9382   -8.3065 H   0  0  0  0  0  0  0  0  0  0  0  0
    1.1034    5.0395   -6.1543 H   0  0  0  0  0  0  0  0  0  0  0  0
    6.7491    3.7334   -4.3437 H   0  0  0  0  0  0  0  0  0  0  0  0
   11.2231   -1.3547   -7.3381 H   0  0  0  0  0  0  0  0  0  0  0  0
   12.9648    0.1124   -7.2390 H   0  0  0  0  0  0  0  0  0  0  0  0
   13.6915    2.3627   -6.6069 H   0  0  0  0  0  0  0  0  0  0  0  0
   12.1221    3.9817   -5.6393 H   0  0  0  0  0  0  0  0  0  0  0  0
  1  2  2  0  0  0  0
  2  3  1  0  0  0  0
  3  4  2  0  0  0  0
  3  5  1  0  0  0  0
  5  6  2  0  0  0  0
  6  7  1  0  0  0  0
  7  8  2  0  0  0  0
  8  9  1  0  0  0  0
  9 10  2  0  0  0  0
 10 11  1  0  0  0  0
 11 12  2  0  0  0  0
 12 13  1  0  0  0  0
 13 14  3  0  0  0  0
 12 15  1  0  0  0  0
 15 16  3  0  0  0  0
  8 17  1  0  0  0  0
 17 18  1  0  0  0  0
 18 19  1  0  0  0  0
 19 20  2  0  0  0  0
 20 21  1  0  0  0  0
 21 22  1  0  0  0  0
 21 23  1  0  0  0  0
  1 24  1  0  0  0  0
 24 25  2  0  0  0  0
 25 26  1  0  0  0  0
 26 27  1  0  0  0  0
 27 28  2  0  0  0  0
 28 29  1  0  0  0  0
 29 30  2  0  0  0  0
 30 31  1  0  0  0  0
 31 32  1  0  0  0  0
 30 33  1  0  0  0  0
 33 34  2  0  0  0  0
 26 35  1  0  0  0  0
 35 36  2  0  0  0  0
 36 37  1  0  0  0  0
 37 38  2  0  0  0  0
 38 39  1  0  0  0  0
 39 40  1  0  0  0  0
 38 41  1  0  0  0  0
 41 42  2  0  0  0  0
 25 43  1  0  0  0  0
 43 44  1  0  0  0  0
 44 45  1  0  0  0  0
 45 46  2  0  0  0  0
 46 47  1  0  0  0  0
 47 48  1  0  0  0  0
 48 49  2  0  0  0  0
 49 50  1  0  0  0  0
 50 51  2  0  0  0  0
 51 52  1  0  0  0  0
 52 53  1  0  0  0  0
 51 54  1  0  0  0  0
 54 55  2  0  0  0  0
 47 56  1  0  0  0  0
 56 57  2  0  0  0  0
 57 58  1  0  0  0  0
 58 59  2  0  0  0  0
 59 60  1  0  0  0  0
 60 61  1  0  0  0  0
 59 62  1  0  0  0  0
 62 63  2  0  0  0  0
 46 64  1  0  0  0  0
 64 65  1  0  0  0  0
 45 66  1  0  0  0  0
 66 67  2  0  0  0  0
 67 68  1  0  0  0  0
 68 69  1  0  0  0  0
 69 70  2  0  0  0  0
 70 71  1  0  0  0  0
 71 72  2  0  0  0  0
 72 73  1  0  0  0  0
 73 74  1  0  0  0  0
 72 75  1  0  0  0  0
 75 76  2  0  0  0  0
 68 77  1  0  0  0  0
 77 78  2  0  0  0  0
 78 79  1  0  0  0  0
 79 80  2  0  0  0  0
 80 81  1  0  0  0  0
 81 82  1  0  0  0  0
 80 83  1  0  0  0  0
 83 84  2  0  0  0  0
 67 85  1  0  0  0  0
 85 86  1  0  0  0  0
 86 87  1  0  0  0  0
 87 88  2  0  0  0  0
 88 89  1  0  0  0  0
 89 90  1  0  0  0  0
 90 91  2  0  0  0  0
 91 92  1  0  0  0  0
 92 93  2  0  0  0  0
 93 94  1  0  0  0  0
 94 95  1  0  0  0  0
 93 96  1  0  0  0  0
 96 97  2  0  0  0  0
 89 98  1  0  0  0  0
 98 99  2  0  0  0  0
 99100  1  0  0  0  0
100101  2  0  0  0  0
101102  1  0  0  0  0
102103  1  0  0  0  0
101104  1  0  0  0  0
104105  2  0  0  0  0
 88106  1  0  0  0  0
106107  1  0  0  0  0
 87108  1  0  0  0  0
108109  1  0  0  0  0
109110  2  0  0  0  0
110111  1  0  0  0  0
111112  1  0  0  0  0
112113  2  0  0  0  0
113114  1  0  0  0  0
114115  2  0  0  0  0
115116  1  0  0  0  0
116117  1  0  0  0  0
117118  1  0  0  0  0
115119  1  0  0  0  0
119120  2  0  0  0  0
119121  1  0  0  0  0
121122  1  0  0  0  0
122123  1  0  0  0  0
111124  2  0  0  0  0
124125  1  0  0  0  0
125126  2  0  0  0  0
126127  1  0  0  0  0
127128  2  0  0  0  0
128129  1  0  0  0  0
129130  1  0  0  0  0
130131  1  0  0  0  0
128132  1  0  0  0  0
132133  1  0  0  0  0
133134  1  0  0  0  0
134135  1  0  0  0  0
132136  2  0  0  0  0
124137  1  0  0  0  0
137138  2  0  0  0  0
138139  1  0  0  0  0
139140  2  0  0  0  0
140141  1  0  0  0  0
141142  1  0  0  0  0
140143  1  0  0  0  0
139144  1  0  0  0  0
144145  2  0  0  0  0
145146  1  0  0  0  0
146147  2  0  0  0  0
146148  1  0  0  0  0
148149  2  0  0  0  0
149150  1  0  0  0  0
149151  1  0  0  0  0
151152  2  0  0  0  0
152153  1  0  0  0  0
153154  2  0  0  0  0
154155  1  0  0  0  0
155156  2  0  0  0  0
156157  1  0  0  0  0
157158  3  0  0  0  0
156159  1  0  0  0  0
159160  3  0  0  0  0
 11  2  1  0  0  0  0
 23 17  1  0  0  0  0
 65 24  1  0  0  0  0
107 66  1  0  0  0  0
141108  2  0  0  0  0
155145  1  0  0  0  0
 10  5  1  0  0  0  0
 22 18  1  0  0  0  0
 34 27  1  0  0  0  0
 42 35  1  0  0  0  0
 64 43  2  0  0  0  0
 76 69  1  0  0  0  0
 84 77  1  0  0  0  0
106 85  2  0  0  0  0
138109  1  0  0  0  0
154148  1  0  0  0  0
 23  7  1  0  0  0  0
 55 48  1  0  0  0  0
 63 56  1  0  0  0  0
 97 90  1  0  0  0  0
105 98  1  0  0  0  0
120112  1  0  0  0  0
136125  1  0  0  0  0
  1161  1  0  0  0  0
  6162  1  0  0  0  0
  9163  1  0  0  0  0
 17164  1  0  0  0  0
 18165  1  0  0  0  0
 19166  1  0  0  0  0
 20167  1  0  0  0  0
 21168  1  0  0  0  0
 22169  1  0  0  0  0
 22170  1  0  0  0  0
 23171  1  0  0  0  0
 28172  1  0  0  0  0
 29173  1  0  0  0  0
 32174  1  0  0  0  0
 32175  1  0  0  0  0
 32176  1  0  0  0  0
 33177  1  0  0  0  0
 34178  1  0  0  0  0
 36179  1  0  0  0  0
 37180  1  0  0  0  0
 40181  1  0  0  0  0
 40182  1  0  0  0  0
 40183  1  0  0  0  0
 41184  1  0  0  0  0
 42185  1  0  0  0  0
 49186  1  0  0  0  0
 50187  1  0  0  0  0
 53188  1  0  0  0  0
 53189  1  0  0  0  0
 53190  1  0  0  0  0
 54191  1  0  0  0  0
 55192  1  0  0  0  0
 57193  1  0  0  0  0
 58194  1  0  0  0  0
 61195  1  0  0  0  0
 61196  1  0  0  0  0
 61197  1  0  0  0  0
 62198  1  0  0  0  0
 63199  1  0  0  0  0
 70200  1  0  0  0  0
 71201  1  0  0  0  0
 74202  1  0  0  0  0
 74203  1  0  0  0  0
 74204  1  0  0  0  0
 75205  1  0  0  0  0
 76206  1  0  0  0  0
 78207  1  0  0  0  0
 79208  1  0  0  0  0
 82209  1  0  0  0  0
 82210  1  0  0  0  0
 82211  1  0  0  0  0
 83212  1  0  0  0  0
 84213  1  0  0  0  0
 91214  1  0  0  0  0
 92215  1  0  0  0  0
 95216  1  0  0  0  0
 95217  1  0  0  0  0
 95218  1  0  0  0  0
 96219  1  0  0  0  0
 97220  1  0  0  0  0
 99221  1  0  0  0  0
100222  1  0  0  0  0
103223  1  0  0  0  0
103224  1  0  0  0  0
103225  1  0  0  0  0
104226  1  0  0  0  0
105227  1  0  0  0  0
113228  1  0  0  0  0
114229  1  0  0  0  0
117230  1  0  0  0  0
117231  1  0  0  0  0
118232  1  0  0  0  0
118233  1  0  0  0  0
118234  1  0  0  0  0
120235  1  0  0  0  0
122236  1  0  0  0  0
122237  1  0  0  0  0
123238  1  0  0  0  0
123239  1  0  0  0  0
123240  1  0  0  0  0
126241  1  0  0  0  0
127242  1  0  0  0  0
130243  1  0  0  0  0
130244  1  0  0  0  0
131245  1  0  0  0  0
131246  1  0  0  0  0
131247  1  0  0  0  0
134248  1  0  0  0  0
134249  1  0  0  0  0
135250  1  0  0  0  0
135251  1  0  0  0  0
135252  1  0  0  0  0
136253  1  0  0  0  0
144254  1  0  0  0  0
150255  1  0  0  0  0
151256  1  0  0  0  0
152257  1  0  0  0  0
153258  1  0  0  0  0
M  END
