169

C         -0.88710        5.60790        4.87360
C         -0.53850        5.36340        6.17230
C         -0.42480        4.01610        6.78110
O         -0.60640        2.93630        6.25660
C         -0.19570        4.24620        8.22160
C         -0.02880        3.27340        9.20460
C          0.13390        3.77890       10.47200
C          0.11710        5.15280       10.74540
C         -0.05660        6.12260        9.78720
C         -0.21370        5.62890        8.48810
C         -0.42360        6.34270        7.23060
C         -0.44550        7.70750        7.08640
C         -0.30410        8.62820        8.14480
N         -0.20250        9.43780        8.95330
C         -0.60290        8.40150        5.87110
N         -0.71480        9.06510        4.93970
C          0.33340        4.94320       12.22380
C          1.75790        5.20630       12.75600
C          1.79040        4.47550       14.07880
C          1.80850        3.17410       13.82040
C          1.78870        3.00350       12.31840
C          2.59130        4.24260       11.90120
C          0.35460        3.41100       11.91880
C         -0.82440        4.67320        3.80890
C         -1.75830        4.72340        2.75060
C         -1.76700        3.77380        1.65780
N         -2.80910        3.96350        0.84560
S         -3.67500        5.20360        1.38440
N         -2.78270        5.57410        2.67030
C         -0.79880        2.75560        1.53930
C          0.12330        2.69460        2.60690
N          1.14290        1.83590        2.68380
S          2.04480        2.21530        3.95490
N          1.20610        3.47640        4.47470
C          0.14330        3.65300        3.68930
C         -0.69740        1.85310        0.44610
C         -0.94850        2.05640       -0.91730
N         -1.18180        3.26980       -1.52170
C         -1.92250        3.31450       -2.70810
C         -1.55420        4.18020       -3.73930
C         -2.26650        4.19410       -4.91570
C         -3.35900        3.34430       -5.09420
S         -4.17750        3.43550       -6.65130
C         -5.32750        2.03120       -6.62130
C         -3.74400        2.50100       -4.05980
C         -3.03210        2.49010       -2.87700
C         -0.68190        4.45000       -0.95690
C          0.56110        4.46220       -0.31920
C          0.96130        5.56440        0.39820
C          0.13890        6.68970        0.48550
S          0.66180        7.98210        1.55450
C         -0.85390        8.94520        1.80710
C         -1.03740        6.72610       -0.25520
C         -1.44150        5.61670       -0.97100
C         -0.73890        0.85850       -1.64140
S         -0.85750        0.41070       -3.30790
C         -0.23930       -1.20490       -2.95540
C          0.01660       -1.37960       -1.59880
N          0.60930       -2.47730       -0.98490
C          0.05210       -3.75710       -0.98560
C          0.86860       -4.84730       -0.67180
C          0.32860       -6.10330       -0.53420
C         -1.03990       -6.30650       -0.70990
S         -1.64180       -7.93200       -0.37400
C         -3.42790       -7.69800       -0.16180
C         -1.84090       -5.24490       -1.10670
C         -1.29860       -3.97980       -1.24380
C          1.53120       -2.12990        0.02820
C          1.40120       -2.59830        1.33120
C          2.22220       -2.11920        2.33310
C          3.17930       -1.15490        2.04860
S          4.21350       -0.40730        3.26640
C          3.46070       -0.91760        4.83780
C          3.35330       -0.72890        0.73370
C          2.54210       -1.21450       -0.26650
C         -0.27370       -0.19710       -0.87420
S         -0.08770        0.24520        0.78580
C         -0.01130       -2.05480       -4.06500
C          0.02710       -1.64250       -5.38660
C          0.33620       -2.65590       -6.29170
C          0.51950       -2.45110       -7.73970
C          1.64980       -1.75140       -8.17580
C          1.83780       -1.55160       -9.53330
C          0.92950       -2.02750      -10.46870
C          1.16100       -1.81870      -11.93390
C         -0.18190       -2.72140      -10.01640
C         -0.40110       -2.94500       -8.66470
C         -1.61300       -3.70850       -8.22550
C          2.65870       -1.23770       -7.19110
C          0.47280       -3.89280       -5.67010
S          0.31530       -3.75320       -3.93450
C          0.77320       -5.11670       -6.30400
C          0.49850       -6.37640       -5.86830
C          1.24420       -7.53670       -6.43420
O          1.96510       -7.52200       -7.40720
C          0.94290       -8.66270       -5.53310
C          1.47120       -9.93720       -5.50400
C          1.05460      -10.82840       -4.51920
C          1.61680      -12.21370       -4.48220
C          0.11350      -10.41990       -3.56140
C         -0.31980      -11.35520       -2.47870
C         -0.42970       -9.13930       -3.60820
C         -0.02320       -8.26070       -4.59450
C         -0.42580       -6.88840       -4.88200
C         -1.63000       -6.34900       -4.50690
C         -2.14210       -5.09490       -4.89010
N         -2.66660       -4.11120       -5.16980
C         -2.61690       -7.06310       -3.80140
N         -3.50250       -7.58140       -3.28410
H         -1.30800        6.57090        4.61180
H         -0.03480        2.22460        8.95170
H         -0.08060        7.17460       10.01660
H         -0.44420        5.33340       12.87780
H          2.05400        6.25160       12.76630
H          1.74120        4.96260       15.03500
H          1.77720        2.35730       14.51770
H          2.11390        2.04150       11.93110
H          3.62790        4.19180       12.23060
H          2.55790        4.45430       10.83420
H         -0.40870        2.77970       12.37050
H         -0.69890        4.82700       -3.61300
H         -1.97940        4.85340       -5.72010
H         -4.78210        1.11530       -6.41480
H         -5.76070        1.98770       -7.61570
H         -6.11040        2.20190       -5.88800
H         -4.59930        1.85300       -4.15800
H         -3.34520        1.84940       -2.06660
H          1.19590        3.58970       -0.36330
H          1.90560        5.56450        0.92060
H         -1.67450        8.26820        2.02530
H         -0.66060        9.56900        2.67400
H         -1.06130        9.56010        0.93590
H         -1.65870        7.60700       -0.26070
H         -2.37940        5.63350       -1.50570
H          1.92470       -4.68920       -0.51420
H          0.95340       -6.94230       -0.26890
H         -3.79470       -8.62110        0.27630
H         -3.60340       -6.86690        0.51440
H         -3.89240       -7.53820       -1.13150
H         -2.89320       -5.38620       -1.29710
H         -1.93600       -3.15450       -1.52530
H          0.63220       -3.31840        1.56760
H          2.08520       -2.48940        3.33580
H          3.61990       -1.97900        5.00430
H          2.40330       -0.67120        4.83180
H          3.97070       -0.34660        5.60730
H          4.11900       -0.00140        0.51320
H          2.66150       -0.86510       -1.28170
H         -0.16200       -0.62360       -5.67610
H          2.71290       -1.01420       -9.87080
H          1.77650       -2.62680      -12.33070
H          1.68100       -0.88060      -12.11490
H          0.22010       -1.81330      -12.47900
H         -0.89820       -3.10000      -10.73200
H         -2.00150       -3.33360       -7.28160
H         -1.36270       -4.76130       -8.08500
H         -2.39460       -3.64860       -8.97900
H          2.25450       -0.39510       -6.63100
H          2.93100       -2.01280       -6.47610
H          3.55720       -0.90590       -7.70520
H          1.34000       -5.04630       -7.22850
H          2.20170      -10.23150       -6.24280
H          0.81930      -12.95270       -4.55040
H          2.30890      -12.37100       -5.30500
H          2.14590      -12.38690       -3.54530
H          0.54020      -11.71600       -1.91600
H         -0.82390      -12.22310       -2.90300
H         -0.99940      -10.85650       -1.79340
H         -1.14210       -8.84100       -2.85590
