
  xtb     02162209483D
 energy: -298.989805413809 gnorm: 0.000373250761 xtb: 6.4.1 (unknown)
169185  0     0  0            999 V2000
    4.8369   -1.9531   -2.5618 C   0  0  0  0  0  0  0  0  0  0  0  0
    4.8725   -3.3167   -2.6518 C   0  0  0  0  0  0  0  0  0  0  0  0
    6.1399   -3.9937   -3.0019 C   0  0  0  0  0  0  0  0  0  0  0  0
    7.1585   -3.4663   -3.4054 O   0  0  0  0  0  0  0  0  0  0  0  0
    5.9221   -5.4191   -2.6852 C   0  0  0  0  0  0  0  0  0  0  0  0
    6.8520   -6.4538   -2.7491 C   0  0  0  0  0  0  0  0  0  0  0  0
    6.3574   -7.6781   -2.3662 C   0  0  0  0  0  0  0  0  0  0  0  0
    5.0378   -7.8626   -1.9338 C   0  0  0  0  0  0  0  0  0  0  0  0
    4.1062   -6.8532   -1.8694 C   0  0  0  0  0  0  0  0  0  0  0  0
    4.5851   -5.6054   -2.2711 C   0  0  0  0  0  0  0  0  0  0  0  0
    3.8831   -4.3294   -2.3866 C   0  0  0  0  0  0  0  0  0  0  0  0
    2.5230   -4.1699   -2.5007 C   0  0  0  0  0  0  0  0  0  0  0  0
    1.9300   -2.9672   -2.9311 C   0  0  0  0  0  0  0  0  0  0  0  0
    1.4207   -2.0206   -3.3386 N   0  0  0  0  0  0  0  0  0  0  0  0
    1.5828   -5.1985   -2.3063 C   0  0  0  0  0  0  0  0  0  0  0  0
    0.7687   -5.9931   -2.1481 N   0  0  0  0  0  0  0  0  0  0  0  0
    5.2343   -9.3401   -1.7054 C   0  0  0  0  0  0  0  0  0  0  0  0
    4.6492  -10.3124   -2.7591 C   0  0  0  0  0  0  0  0  0  0  0  0
    4.5939   -9.5501   -4.0598 C   0  0  0  0  0  0  0  0  0  0  0  0
    5.8399   -9.3760   -4.4798 C   0  0  0  0  0  0  0  0  0  0  0  0
    6.7600  -10.0170   -3.4705 C   0  0  0  0  0  0  0  0  0  0  0  0
    5.8826  -11.1934   -3.0136 C   0  0  0  0  0  0  0  0  0  0  0  0
    6.7021   -9.1368   -2.1969 C   0  0  0  0  0  0  0  0  0  0  0  0
    3.9280   -1.1534   -1.8480 C   0  0  0  0  0  0  0  0  0  0  0  0
    3.5785    0.1891   -2.0612 C   0  0  0  0  0  0  0  0  0  0  0  0
    4.0345    1.0023   -3.0660 N   0  0  0  0  0  0  0  0  0  0  0  0
    3.1209    1.8677   -3.6987 C   0  0  0  0  0  0  0  0  0  0  0  0
    3.4999    3.1630   -4.0300 C   0  0  0  0  0  0  0  0  0  0  0  0
    2.6095    4.0150   -4.6552 C   0  0  0  0  0  0  0  0  0  0  0  0
    1.3286    3.5748   -4.9601 C   0  0  0  0  0  0  0  0  0  0  0  0
    0.0985    4.5702   -5.7432 S   0  0  0  0  0  0  0  0  0  0  0  0
    0.9719    6.1034   -6.1651 C   0  0  0  0  0  0  0  0  0  0  0  0
    0.9539    2.2703   -4.6398 C   0  0  0  0  0  0  0  0  0  0  0  0
    1.8373    1.4217   -4.0138 C   0  0  0  0  0  0  0  0  0  0  0  0
    5.3402    0.8978   -3.5578 C   0  0  0  0  0  0  0  0  0  0  0  0
    5.5945    0.9748   -4.9271 C   0  0  0  0  0  0  0  0  0  0  0  0
    6.8667    0.7504   -5.4064 C   0  0  0  0  0  0  0  0  0  0  0  0
    7.9039    0.4382   -4.5321 C   0  0  0  0  0  0  0  0  0  0  0  0
    9.4801    0.0235   -5.2101 S   0  0  0  0  0  0  0  0  0  0  0  0
   10.0146   -1.2912   -4.0708 C   0  0  0  0  0  0  0  0  0  0  0  0
    7.6726    0.4458   -3.1618 C   0  0  0  0  0  0  0  0  0  0  0  0
    6.4018    0.6799   -2.6792 C   0  0  0  0  0  0  0  0  0  0  0  0
    2.5834    0.6037   -1.1413 C   0  0  0  0  0  0  0  0  0  0  0  0
    1.7066    2.0778   -0.9023 S   0  0  0  0  0  0  0  0  0  0  0  0
    0.9125    1.3901    0.4893 C   0  0  0  0  0  0  0  0  0  0  0  0
    1.2259    0.0545    0.6947 C   0  0  0  0  0  0  0  0  0  0  0  0
    0.5668   -0.7840    1.5728 N   0  0  0  0  0  0  0  0  0  0  0  0
   -0.8015   -0.5996    1.8241 C   0  0  0  0  0  0  0  0  0  0  0  0
   -1.6675   -0.2105    0.8029 C   0  0  0  0  0  0  0  0  0  0  0  0
   -2.9884    0.0834    1.0730 C   0  0  0  0  0  0  0  0  0  0  0  0
   -3.4724   -0.0178    2.3710 C   0  0  0  0  0  0  0  0  0  0  0  0
   -5.1362    0.3904    2.8106 S   0  0  0  0  0  0  0  0  0  0  0  0
   -5.6398    1.5747    1.5339 C   0  0  0  0  0  0  0  0  0  0  0  0
   -2.6305   -0.4787    3.3789 C   0  0  0  0  0  0  0  0  0  0  0  0
   -1.3087   -0.7625    3.1124 C   0  0  0  0  0  0  0  0  0  0  0  0
    1.2607   -1.8585    2.1419 C   0  0  0  0  0  0  0  0  0  0  0  0
    0.6495   -3.1048    2.2826 C   0  0  0  0  0  0  0  0  0  0  0  0
    1.3562   -4.1643    2.8031 C   0  0  0  0  0  0  0  0  0  0  0  0
    2.6861   -4.0072    3.1929 C   0  0  0  0  0  0  0  0  0  0  0  0
    3.4917   -5.4461    3.8226 S   0  0  0  0  0  0  0  0  0  0  0  0
    5.1772   -4.8808    4.1913 C   0  0  0  0  0  0  0  0  0  0  0  0
    3.2908   -2.7641    3.0729 C   0  0  0  0  0  0  0  0  0  0  0  0
    2.5804   -1.6988    2.5543 C   0  0  0  0  0  0  0  0  0  0  0  0
    2.2171   -0.3668   -0.2223 C   0  0  0  0  0  0  0  0  0  0  0  0
    3.0781   -1.8404   -0.4580 S   0  0  0  0  0  0  0  0  0  0  0  0
   -0.0546    2.1435    1.2524 C   0  0  0  0  0  0  0  0  0  0  0  0
   -0.0715    2.1188    2.6345 C   0  0  0  0  0  0  0  0  0  0  0  0
    0.9275    1.5070    3.2977 F   0  0  0  0  0  0  0  0  0  0  0  0
   -1.0949    2.7098    3.3870 C   0  0  0  0  0  0  0  0  0  0  0  0
   -0.9803    2.6934    4.7209 F   0  0  0  0  0  0  0  0  0  0  0  0
   -2.1818    3.3034    2.7795 C   0  0  0  0  0  0  0  0  0  0  0  0
   -2.1945    3.3401    1.3571 C   0  0  0  0  0  0  0  0  0  0  0  0
   -3.2966    3.7623    0.7168 N   0  0  0  0  0  0  0  0  0  0  0  0
   -3.3080    3.8322   -0.5902 C   0  0  0  0  0  0  0  0  0  0  0  0
   -4.5787    4.3348   -1.2008 C   0  0  0  0  0  0  0  0  0  0  0  0
   -4.5407    5.8639   -1.2809 C   0  0  0  0  0  0  0  0  0  0  0  0
   -2.1494    3.4708   -1.3389 C   0  0  0  0  0  0  0  0  0  0  0  0
   -1.1127    2.9446   -0.7353 N   0  0  0  0  0  0  0  0  0  0  0  0
   -1.1082    2.8397    0.6025 C   0  0  0  0  0  0  0  0  0  0  0  0
   -2.0691    3.5722   -2.8288 C   0  0  0  0  0  0  0  0  0  0  0  0
   -2.5749    2.2802   -3.4763 C   0  0  0  0  0  0  0  0  0  0  0  0
   -3.3547    3.7856    3.4967 C   0  0  0  0  0  0  0  0  0  0  0  0
   -3.9651    3.0490    4.5313 C   0  0  0  0  0  0  0  0  0  0  0  0
   -3.5766    1.9419    5.1792 N   0  0  0  0  0  0  0  0  0  0  0  0
   -4.5421    1.6971    6.0119 N   0  0  0  0  0  0  0  0  0  0  0  0
   -4.5000    0.5708    6.8993 C   0  0  0  0  0  0  0  0  0  0  0  0
   -5.5315   -0.4717    6.4812 C   0  0  0  0  0  0  0  0  0  0  0  0
   -5.5613    2.5093    5.9930 N   0  0  0  0  0  0  0  0  0  0  0  0
   -5.2438    3.4109    5.0567 C   0  0  0  0  0  0  0  0  0  0  0  0
   -5.9829    4.4946    4.5400 C   0  0  0  0  0  0  0  0  0  0  0  0
   -5.3090    5.2606    3.5997 C   0  0  0  0  0  0  0  0  0  0  0  0
   -4.0349    4.9329    3.1153 C   0  0  0  0  0  0  0  0  0  0  0  0
   -3.4640    5.8106    2.2746 F   0  0  0  0  0  0  0  0  0  0  0  0
   -5.8637    6.3972    3.1515 F   0  0  0  0  0  0  0  0  0  0  0  0
   -7.3262    4.7732    4.9780 C   0  0  0  0  0  0  0  0  0  0  0  0
   -8.3349    5.0981    4.1328 C   0  0  0  0  0  0  0  0  0  0  0  0
   -8.2816    4.8744    2.6575 C   0  0  0  0  0  0  0  0  0  0  0  0
   -7.3749    4.3904    2.0193 O   0  0  0  0  0  0  0  0  0  0  0  0
   -9.6228    5.2312    2.1609 C   0  0  0  0  0  0  0  0  0  0  0  0
  -10.1097    5.2175    0.8630 C   0  0  0  0  0  0  0  0  0  0  0  0
   -9.1060    4.7594   -0.4491 Cl  0  0  0  0  0  0  0  0  0  0  0  0
  -11.4317    5.5931    0.6381 C   0  0  0  0  0  0  0  0  0  0  0  0
  -12.2393    5.9595    1.7010 C   0  0  0  0  0  0  0  0  0  0  0  0
  -11.7660    5.9725    3.0075 C   0  0  0  0  0  0  0  0  0  0  0  0
  -10.4488    5.6098    3.2369 C   0  0  0  0  0  0  0  0  0  0  0  0
   -9.6752    5.5406    4.4746 C   0  0  0  0  0  0  0  0  0  0  0  0
  -10.1176    5.9023    5.7170 C   0  0  0  0  0  0  0  0  0  0  0  0
  -11.4242    6.3578    5.9970 C   0  0  0  0  0  0  0  0  0  0  0  0
  -12.4694    6.7277    6.2933 N   0  0  0  0  0  0  0  0  0  0  0  0
   -9.3325    5.8872    6.8911 C   0  0  0  0  0  0  0  0  0  0  0  0
   -8.7609    5.9148    7.8858 N   0  0  0  0  0  0  0  0  0  0  0  0
    5.6682   -1.4554   -3.0468 H   0  0  0  0  0  0  0  0  0  0  0  0
    7.8627   -6.2729   -3.0807 H   0  0  0  0  0  0  0  0  0  0  0  0
    3.0943   -7.0006   -1.5290 H   0  0  0  0  0  0  0  0  0  0  0  0
    5.0819   -9.6901   -0.6863 H   0  0  0  0  0  0  0  0  0  0  0  0
    3.7320  -10.8091   -2.4547 H   0  0  0  0  0  0  0  0  0  0  0  0
    3.6862   -9.1764   -4.4961 H   0  0  0  0  0  0  0  0  0  0  0  0
    6.1814   -8.8277   -5.3383 H   0  0  0  0  0  0  0  0  0  0  0  0
    7.7651  -10.2465   -3.8150 H   0  0  0  0  0  0  0  0  0  0  0  0
    5.7203  -11.9282   -3.8008 H   0  0  0  0  0  0  0  0  0  0  0  0
    6.2539  -11.6896   -2.1178 H   0  0  0  0  0  0  0  0  0  0  0  0
    7.5092   -9.3612   -1.5017 H   0  0  0  0  0  0  0  0  0  0  0  0
    4.4966    3.5052   -3.7937 H   0  0  0  0  0  0  0  0  0  0  0  0
    2.9279    5.0172   -4.8919 H   0  0  0  0  0  0  0  0  0  0  0  0
    1.2749    6.6232   -5.2607 H   0  0  0  0  0  0  0  0  0  0  0  0
    1.8251    5.8796   -6.7987 H   0  0  0  0  0  0  0  0  0  0  0  0
    0.2548    6.7071   -6.7128 H   0  0  0  0  0  0  0  0  0  0  0  0
   -0.0337    1.9276   -4.9032 H   0  0  0  0  0  0  0  0  0  0  0  0
    1.5498    0.4062   -3.7864 H   0  0  0  0  0  0  0  0  0  0  0  0
    4.7814    1.1666   -5.6106 H   0  0  0  0  0  0  0  0  0  0  0  0
    7.0624    0.7738   -6.4670 H   0  0  0  0  0  0  0  0  0  0  0  0
   10.7869   -1.8439   -4.5964 H   0  0  0  0  0  0  0  0  0  0  0  0
   10.4271   -0.8631   -3.1617 H   0  0  0  0  0  0  0  0  0  0  0  0
    9.1698   -1.9395   -3.8559 H   0  0  0  0  0  0  0  0  0  0  0  0
    8.4769    0.2575   -2.4688 H   0  0  0  0  0  0  0  0  0  0  0  0
    6.2160    0.6687   -1.6150 H   0  0  0  0  0  0  0  0  0  0  0  0
   -1.2996   -0.1280   -0.2094 H   0  0  0  0  0  0  0  0  0  0  0  0
   -3.6349    0.3882    0.2647 H   0  0  0  0  0  0  0  0  0  0  0  0
   -4.8407    2.2917    1.3658 H   0  0  0  0  0  0  0  0  0  0  0  0
   -5.9052    1.0513    0.6193 H   0  0  0  0  0  0  0  0  0  0  0  0
   -6.5086    2.0953    1.9257 H   0  0  0  0  0  0  0  0  0  0  0  0
   -3.0133   -0.5801    4.3806 H   0  0  0  0  0  0  0  0  0  0  0  0
   -0.6509   -1.0836    3.9057 H   0  0  0  0  0  0  0  0  0  0  0  0
   -0.3752   -3.2360    1.9690 H   0  0  0  0  0  0  0  0  0  0  0  0
    0.8914   -5.1330    2.9028 H   0  0  0  0  0  0  0  0  0  0  0  0
    5.7016   -5.7535    4.5680 H   0  0  0  0  0  0  0  0  0  0  0  0
    5.6563   -4.5257    3.2835 H   0  0  0  0  0  0  0  0  0  0  0  0
    5.1527   -4.1089    4.9551 H   0  0  0  0  0  0  0  0  0  0  0  0
    4.3111   -2.6059    3.3820 H   0  0  0  0  0  0  0  0  0  0  0  0
    3.0473   -0.7281    2.4804 H   0  0  0  0  0  0  0  0  0  0  0  0
   -5.4069    4.0436   -0.5523 H   0  0  0  0  0  0  0  0  0  0  0  0
   -4.7312    3.9111   -2.1932 H   0  0  0  0  0  0  0  0  0  0  0  0
   -5.4737    6.2359   -1.6964 H   0  0  0  0  0  0  0  0  0  0  0  0
   -3.7188    6.2035   -1.9080 H   0  0  0  0  0  0  0  0  0  0  0  0
   -4.4111    6.2807   -0.2858 H   0  0  0  0  0  0  0  0  0  0  0  0
   -2.6507    4.4197   -3.1891 H   0  0  0  0  0  0  0  0  0  0  0  0
   -1.0240    3.7155   -3.1036 H   0  0  0  0  0  0  0  0  0  0  0  0
   -2.5178    2.3655   -4.5585 H   0  0  0  0  0  0  0  0  0  0  0  0
   -3.6083    2.0802   -3.1999 H   0  0  0  0  0  0  0  0  0  0  0  0
   -1.9642    1.4403   -3.1546 H   0  0  0  0  0  0  0  0  0  0  0  0
   -3.4857    0.1717    6.8535 H   0  0  0  0  0  0  0  0  0  0  0  0
   -4.7138    0.9252    7.9109 H   0  0  0  0  0  0  0  0  0  0  0  0
   -5.4786   -1.3291    7.1456 H   0  0  0  0  0  0  0  0  0  0  0  0
   -6.5290   -0.0442    6.5327 H   0  0  0  0  0  0  0  0  0  0  0  0
   -5.3501   -0.8002    5.4607 H   0  0  0  0  0  0  0  0  0  0  0  0
   -7.5033    4.6640    6.0396 H   0  0  0  0  0  0  0  0  0  0  0  0
  -11.8178    5.5943   -0.3688 H   0  0  0  0  0  0  0  0  0  0  0  0
  -13.2630    6.2428    1.5101 H   0  0  0  0  0  0  0  0  0  0  0  0
  -12.4213    6.2582    3.8133 H   0  0  0  0  0  0  0  0  0  0  0  0
  1  2  2  0  0  0  0
  2  3  1  0  0  0  0
  3  4  2  0  0  0  0
  3  5  1  0  0  0  0
  5  6  2  0  0  0  0
  6  7  1  0  0  0  0
  7  8  2  0  0  0  0
  8  9  1  0  0  0  0
  9 10  2  0  0  0  0
 10 11  1  0  0  0  0
 11 12  2  0  0  0  0
 12 13  1  0  0  0  0
 13 14  3  0  0  0  0
 12 15  1  0  0  0  0
 15 16  3  0  0  0  0
  8 17  1  0  0  0  0
 17 18  1  0  0  0  0
 18 19  1  0  0  0  0
 19 20  2  0  0  0  0
 20 21  1  0  0  0  0
 21 22  1  0  0  0  0
 21 23  1  0  0  0  0
  1 24  1  0  0  0  0
 24 25  2  0  0  0  0
 25 26  1  0  0  0  0
 26 27  1  0  0  0  0
 27 28  2  0  0  0  0
 28 29  1  0  0  0  0
 29 30  2  0  0  0  0
 30 31  1  0  0  0  0
 31 32  1  0  0  0  0
 30 33  1  0  0  0  0
 33 34  2  0  0  0  0
 26 35  1  0  0  0  0
 35 36  2  0  0  0  0
 36 37  1  0  0  0  0
 37 38  2  0  0  0  0
 38 39  1  0  0  0  0
 39 40  1  0  0  0  0
 38 41  1  0  0  0  0
 41 42  2  0  0  0  0
 25 43  1  0  0  0  0
 43 44  1  0  0  0  0
 44 45  1  0  0  0  0
 45 46  2  0  0  0  0
 46 47  1  0  0  0  0
 47 48  1  0  0  0  0
 48 49  2  0  0  0  0
 49 50  1  0  0  0  0
 50 51  2  0  0  0  0
 51 52  1  0  0  0  0
 52 53  1  0  0  0  0
 51 54  1  0  0  0  0
 54 55  2  0  0  0  0
 47 56  1  0  0  0  0
 56 57  2  0  0  0  0
 57 58  1  0  0  0  0
 58 59  2  0  0  0  0
 59 60  1  0  0  0  0
 60 61  1  0  0  0  0
 59 62  1  0  0  0  0
 62 63  2  0  0  0  0
 46 64  1  0  0  0  0
 64 65  1  0  0  0  0
 45 66  1  0  0  0  0
 66 67  2  0  0  0  0
 67 68  1  0  0  0  0
 67 69  1  0  0  0  0
 69 70  1  0  0  0  0
 69 71  2  0  0  0  0
 71 72  1  0  0  0  0
 72 73  2  0  0  0  0
 73 74  1  0  0  0  0
 74 75  1  0  0  0  0
 75 76  1  0  0  0  0
 74 77  2  0  0  0  0
 77 78  1  0  0  0  0
 78 79  2  0  0  0  0
 77 80  1  0  0  0  0
 80 81  1  0  0  0  0
 71 82  1  0  0  0  0
 82 83  1  0  0  0  0
 83 84  2  0  0  0  0
 84 85  1  0  0  0  0
 85 86  1  0  0  0  0
 86 87  1  0  0  0  0
 85 88  1  0  0  0  0
 88 89  2  0  0  0  0
 89 90  1  0  0  0  0
 90 91  2  0  0  0  0
 91 92  1  0  0  0  0
 92 93  1  0  0  0  0
 91 94  1  0  0  0  0
 90 95  1  0  0  0  0
 95 96  2  0  0  0  0
 96 97  1  0  0  0  0
 97 98  2  0  0  0  0
 97 99  1  0  0  0  0
 99100  2  0  0  0  0
100101  1  0  0  0  0
100102  1  0  0  0  0
102103  2  0  0  0  0
103104  1  0  0  0  0
104105  2  0  0  0  0
105106  1  0  0  0  0
106107  2  0  0  0  0
107108  1  0  0  0  0
108109  3  0  0  0  0
107110  1  0  0  0  0
110111  3  0  0  0  0
 11  2  1  0  0  0  0
 23 17  1  0  0  0  0
 65 24  1  0  0  0  0
 79 66  1  0  0  0  0
 92 82  2  0  0  0  0
106 96  1  0  0  0  0
 10  5  1  0  0  0  0
 22 18  1  0  0  0  0
 34 27  1  0  0  0  0
 42 35  1  0  0  0  0
 64 43  2  0  0  0  0
 79 72  1  0  0  0  0
 89 83  1  0  0  0  0
105 99  1  0  0  0  0
 23  7  1  0  0  0  0
 55 48  1  0  0  0  0
 63 56  1  0  0  0  0
  1112  1  0  0  0  0
  6113  1  0  0  0  0
  9114  1  0  0  0  0
 17115  1  0  0  0  0
 18116  1  0  0  0  0
 19117  1  0  0  0  0
 20118  1  0  0  0  0
 21119  1  0  0  0  0
 22120  1  0  0  0  0
 22121  1  0  0  0  0
 23122  1  0  0  0  0
 28123  1  0  0  0  0
 29124  1  0  0  0  0
 32125  1  0  0  0  0
 32126  1  0  0  0  0
 32127  1  0  0  0  0
 33128  1  0  0  0  0
 34129  1  0  0  0  0
 36130  1  0  0  0  0
 37131  1  0  0  0  0
 40132  1  0  0  0  0
 40133  1  0  0  0  0
 40134  1  0  0  0  0
 41135  1  0  0  0  0
 42136  1  0  0  0  0
 49137  1  0  0  0  0
 50138  1  0  0  0  0
 53139  1  0  0  0  0
 53140  1  0  0  0  0
 53141  1  0  0  0  0
 54142  1  0  0  0  0
 55143  1  0  0  0  0
 57144  1  0  0  0  0
 58145  1  0  0  0  0
 61146  1  0  0  0  0
 61147  1  0  0  0  0
 61148  1  0  0  0  0
 62149  1  0  0  0  0
 63150  1  0  0  0  0
 75151  1  0  0  0  0
 75152  1  0  0  0  0
 76153  1  0  0  0  0
 76154  1  0  0  0  0
 76155  1  0  0  0  0
 80156  1  0  0  0  0
 80157  1  0  0  0  0
 81158  1  0  0  0  0
 81159  1  0  0  0  0
 81160  1  0  0  0  0
 86161  1  0  0  0  0
 86162  1  0  0  0  0
 87163  1  0  0  0  0
 87164  1  0  0  0  0
 87165  1  0  0  0  0
 95166  1  0  0  0  0
102167  1  0  0  0  0
103168  1  0  0  0  0
104169  1  0  0  0  0
M  END
