
  xtb     02052219223D
 energy: -346.740159030021 gnorm: 0.000822079027 xtb: 6.4.1 (unknown)
200221  0     0  0            999 V2000
   -5.2616   -4.4043   -2.3159 C   0  0  0  0  0  0  0  0  0  0  0  0
   -5.1751   -5.7747   -2.2125 C   0  0  0  0  0  0  0  0  0  0  0  0
   -4.1758   -6.5357   -1.4634 C   0  0  0  0  0  0  0  0  0  0  0  0
   -3.1606   -6.1209   -0.9231 O   0  0  0  0  0  0  0  0  0  0  0  0
   -4.6305   -7.9377   -1.4727 C   0  0  0  0  0  0  0  0  0  0  0  0
   -4.0292   -9.0223   -0.8378 C   0  0  0  0  0  0  0  0  0  0  0  0
   -4.6779  -10.2172   -1.0360 C   0  0  0  0  0  0  0  0  0  0  0  0
   -5.8432  -10.3262   -1.8045 C   0  0  0  0  0  0  0  0  0  0  0  0
   -6.4542   -9.2620   -2.4255 C   0  0  0  0  0  0  0  0  0  0  0  0
   -5.8090   -8.0365   -2.2388 C   0  0  0  0  0  0  0  0  0  0  0  0
   -6.1499   -6.7033   -2.7371 C   0  0  0  0  0  0  0  0  0  0  0  0
   -7.1964   -6.4161   -3.5801 C   0  0  0  0  0  0  0  0  0  0  0  0
   -7.4665   -5.1582   -4.1527 C   0  0  0  0  0  0  0  0  0  0  0  0
   -7.7406   -4.1763   -4.6850 N   0  0  0  0  0  0  0  0  0  0  0  0
   -8.1399   -7.3610   -4.0314 C   0  0  0  0  0  0  0  0  0  0  0  0
   -8.9486   -8.0722   -4.4309 N   0  0  0  0  0  0  0  0  0  0  0  0
   -5.9434  -11.8157   -1.5869 C   0  0  0  0  0  0  0  0  0  0  0  0
   -5.4951  -12.7144   -2.7587 C   0  0  0  0  0  0  0  0  0  0  0  0
   -5.2463  -14.0569   -2.1100 C   0  0  0  0  0  0  0  0  0  0  0  0
   -4.1430  -13.9542   -1.3803 C   0  0  0  0  0  0  0  0  0  0  0  0
   -3.6277  -12.5402   -1.5234 C   0  0  0  0  0  0  0  0  0  0  0  0
   -4.0478  -12.2513   -2.9703 C   0  0  0  0  0  0  0  0  0  0  0  0
   -4.6438  -11.6936   -0.7279 C   0  0  0  0  0  0  0  0  0  0  0  0
   -4.3937   -3.4053   -1.8804 C   0  0  0  0  0  0  0  0  0  0  0  0
   -4.6567   -2.0194   -2.0362 C   0  0  0  0  0  0  0  0  0  0  0  0
   -5.8571   -1.4770   -2.4060 N   0  0  0  0  0  0  0  0  0  0  0  0
   -5.8678   -0.2598   -3.1118 C   0  0  0  0  0  0  0  0  0  0  0  0
   -4.9871   -0.0582   -4.1696 C   0  0  0  0  0  0  0  0  0  0  0  0
   -4.9919    1.1304   -4.8729 C   0  0  0  0  0  0  0  0  0  0  0  0
   -5.8851    2.1366   -4.5291 C   0  0  0  0  0  0  0  0  0  0  0  0
   -5.9950    3.6909   -5.3498 S   0  0  0  0  0  0  0  0  0  0  0  0
   -4.6973    3.6150   -6.6170 C   0  0  0  0  0  0  0  0  0  0  0  0
   -6.7736    1.9330   -3.4727 C   0  0  0  0  0  0  0  0  0  0  0  0
   -6.7666    0.7505   -2.7703 C   0  0  0  0  0  0  0  0  0  0  0  0
   -7.0874   -2.0312   -2.0077 C   0  0  0  0  0  0  0  0  0  0  0  0
   -7.2324   -2.6103   -0.7496 C   0  0  0  0  0  0  0  0  0  0  0  0
   -8.4365   -3.1657   -0.3663 C   0  0  0  0  0  0  0  0  0  0  0  0
   -9.5236   -3.1359   -1.2320 C   0  0  0  0  0  0  0  0  0  0  0  0
  -11.1053   -3.8205   -0.8633 S   0  0  0  0  0  0  0  0  0  0  0  0
  -10.9038   -4.5378    0.7930 C   0  0  0  0  0  0  0  0  0  0  0  0
   -9.3887   -2.5279   -2.4789 C   0  0  0  0  0  0  0  0  0  0  0  0
   -8.1853   -1.9838   -2.8673 C   0  0  0  0  0  0  0  0  0  0  0  0
   -3.5125   -1.2558   -1.7349 C   0  0  0  0  0  0  0  0  0  0  0  0
   -3.1614    0.4438   -1.6949 S   0  0  0  0  0  0  0  0  0  0  0  0
   -1.5411    0.1065   -1.1173 C   0  0  0  0  0  0  0  0  0  0  0  0
   -1.3167   -1.2439   -0.9007 C   0  0  0  0  0  0  0  0  0  0  0  0
   -0.1979   -1.8181   -0.3279 N   0  0  0  0  0  0  0  0  0  0  0  0
    0.5734   -1.1778    0.6365 C   0  0  0  0  0  0  0  0  0  0  0  0
    1.9501   -1.3959    0.6835 C   0  0  0  0  0  0  0  0  0  0  0  0
    2.7498   -0.6742    1.5449 C   0  0  0  0  0  0  0  0  0  0  0  0
    2.1856    0.2775    2.3837 C   0  0  0  0  0  0  0  0  0  0  0  0
    3.1505    1.2891    3.4630 S   0  0  0  0  0  0  0  0  0  0  0  0
    4.7025    1.4599    2.5332 C   0  0  0  0  0  0  0  0  0  0  0  0
    0.8034    0.4384    2.4058 C   0  0  0  0  0  0  0  0  0  0  0  0
    0.0044   -0.2861    1.5492 C   0  0  0  0  0  0  0  0  0  0  0  0
    0.1542   -3.0966   -0.8039 C   0  0  0  0  0  0  0  0  0  0  0  0
    0.2370   -3.3174   -2.1767 C   0  0  0  0  0  0  0  0  0  0  0  0
    0.4328   -4.5933   -2.6599 C   0  0  0  0  0  0  0  0  0  0  0  0
    0.5452   -5.6589   -1.7752 C   0  0  0  0  0  0  0  0  0  0  0  0
    0.6667   -7.2961   -2.4355 S   0  0  0  0  0  0  0  0  0  0  0  0
   -0.4202   -8.1878   -1.2800 C   0  0  0  0  0  0  0  0  0  0  0  0
    0.5425   -5.4289   -0.4053 C   0  0  0  0  0  0  0  0  0  0  0  0
    0.3476   -4.1525    0.0800 C   0  0  0  0  0  0  0  0  0  0  0  0
   -2.4401   -2.0146   -1.2877 C   0  0  0  0  0  0  0  0  0  0  0  0
   -2.7816   -3.7053   -1.2292 S   0  0  0  0  0  0  0  0  0  0  0  0
   -0.5787    1.1528   -0.8736 C   0  0  0  0  0  0  0  0  0  0  0  0
    0.7786    0.9799   -1.2232 C   0  0  0  0  0  0  0  0  0  0  0  0
    1.3753    0.0022   -1.9178 N   0  0  0  0  0  0  0  0  0  0  0  0
    2.6412    0.3016   -1.8729 N   0  0  0  0  0  0  0  0  0  0  0  0
    3.6263   -0.5139   -2.5230 C   0  0  0  0  0  0  0  0  0  0  0  0
    3.4383   -0.4674   -4.0342 C   0  0  0  0  0  0  0  0  0  0  0  0
    2.9669    1.3800   -1.2217 N   0  0  0  0  0  0  0  0  0  0  0  0
    1.7987    1.8777   -0.7949 C   0  0  0  0  0  0  0  0  0  0  0  0
    1.5040    3.0189   -0.0198 C   0  0  0  0  0  0  0  0  0  0  0  0
    0.1554    3.2112    0.2325 C   0  0  0  0  0  0  0  0  0  0  0  0
   -0.8484    2.3241   -0.1884 C   0  0  0  0  0  0  0  0  0  0  0  0
   -2.1104    2.6015    0.1836 F   0  0  0  0  0  0  0  0  0  0  0  0
   -0.2392    4.2868    0.9391 F   0  0  0  0  0  0  0  0  0  0  0  0
    2.5365    3.8722    0.5247 C   0  0  0  0  0  0  0  0  0  0  0  0
    3.7099    4.2870   -0.0752 C   0  0  0  0  0  0  0  0  0  0  0  0
    4.0387    4.1126   -1.4345 N   0  0  0  0  0  0  0  0  0  0  0  0
    5.0108    3.1975   -1.8193 C   0  0  0  0  0  0  0  0  0  0  0  0
    5.8601    2.6003   -0.8886 C   0  0  0  0  0  0  0  0  0  0  0  0
    6.7885    1.6586   -1.2882 C   0  0  0  0  0  0  0  0  0  0  0  0
    6.8995    1.2978   -2.6201 C   0  0  0  0  0  0  0  0  0  0  0  0
    6.0576    1.8860   -3.5514 C   0  0  0  0  0  0  0  0  0  0  0  0
    5.1159    2.8152   -3.1591 C   0  0  0  0  0  0  0  0  0  0  0  0
    3.6295    5.1596   -2.2844 C   0  0  0  0  0  0  0  0  0  0  0  0
    4.5342    5.7654   -3.1552 C   0  0  0  0  0  0  0  0  0  0  0  0
    4.1263    6.8003   -3.9737 C   0  0  0  0  0  0  0  0  0  0  0  0
    2.8202    7.2602   -3.9269 C   0  0  0  0  0  0  0  0  0  0  0  0
    1.9247    6.6784   -3.0465 C   0  0  0  0  0  0  0  0  0  0  0  0
    2.3224    5.6366   -2.2292 C   0  0  0  0  0  0  0  0  0  0  0  0
    4.4893    5.0471    0.8228 C   0  0  0  0  0  0  0  0  0  0  0  0
    6.0126    5.8412    0.6863 S   0  0  0  0  0  0  0  0  0  0  0  0
    5.9367    6.3130    2.3930 C   0  0  0  0  0  0  0  0  0  0  0  0
    4.6933    5.9811    2.9791 C   0  0  0  0  0  0  0  0  0  0  0  0
    4.2217    6.4322    4.1708 N   0  0  0  0  0  0  0  0  0  0  0  0
    3.1304    5.7832    4.7991 C   0  0  0  0  0  0  0  0  0  0  0  0
    3.1682    4.4176    5.0525 C   0  0  0  0  0  0  0  0  0  0  0  0
    2.0946    3.8073    5.6747 C   0  0  0  0  0  0  0  0  0  0  0  0
    0.9883    4.5521    6.0465 C   0  0  0  0  0  0  0  0  0  0  0  0
    0.9591    5.9167    5.8070 C   0  0  0  0  0  0  0  0  0  0  0  0
    2.0270    6.5366    5.1867 C   0  0  0  0  0  0  0  0  0  0  0  0
    4.7274    7.5741    4.8138 C   0  0  0  0  0  0  0  0  0  0  0  0
    4.9205    7.5486    6.1934 C   0  0  0  0  0  0  0  0  0  0  0  0
    5.4418    8.6551    6.8398 C   0  0  0  0  0  0  0  0  0  0  0  0
    5.7607    9.7961    6.1243 C   0  0  0  0  0  0  0  0  0  0  0  0
    5.5315    9.8372    4.7568 C   0  0  0  0  0  0  0  0  0  0  0  0
    5.0186    8.7357    4.1014 C   0  0  0  0  0  0  0  0  0  0  0  0
    3.9190    5.2085    2.0808 C   0  0  0  0  0  0  0  0  0  0  0  0
    2.3735    4.4427    2.1662 S   0  0  0  0  0  0  0  0  0  0  0  0
    7.0687    6.9189    2.9371 C   0  0  0  0  0  0  0  0  0  0  0  0
    7.4164    6.9018    4.2739 C   0  0  0  0  0  0  0  0  0  0  0  0
    6.9951    5.8460    5.2033 C   0  0  0  0  0  0  0  0  0  0  0  0
    6.2561    4.9045    4.9749 O   0  0  0  0  0  0  0  0  0  0  0  0
    7.7577    6.0827    6.4473 C   0  0  0  0  0  0  0  0  0  0  0  0
    7.7336    5.3539    7.6091 C   0  0  0  0  0  0  0  0  0  0  0  0
    8.5517    5.7796    8.6627 C   0  0  0  0  0  0  0  0  0  0  0  0
    8.7048    5.2049    9.9544 C   0  0  0  0  0  0  0  0  0  0  0  0
    9.5954    5.8883   10.7112 C   0  0  0  0  0  0  0  0  0  0  0  0
   10.1026    5.4794   12.4708 Br  0  0  0  0  0  0  0  0  0  0  0  0
   10.3001    7.2671    9.9103 S   0  0  0  0  0  0  0  0  0  0  0  0
    9.3632    6.9233    8.4869 C   0  0  0  0  0  0  0  0  0  0  0  0
    9.3889    7.6597    7.3073 C   0  0  0  0  0  0  0  0  0  0  0  0
    8.5721    7.2286    6.2819 C   0  0  0  0  0  0  0  0  0  0  0  0
    8.3490    7.7639    4.9423 C   0  0  0  0  0  0  0  0  0  0  0  0
    8.8233    8.9617    4.4639 C   0  0  0  0  0  0  0  0  0  0  0  0
    9.6587    9.8268    5.1936 C   0  0  0  0  0  0  0  0  0  0  0  0
   10.3348   10.5723    5.7481 N   0  0  0  0  0  0  0  0  0  0  0  0
    8.4714    9.4966    3.2096 C   0  0  0  0  0  0  0  0  0  0  0  0
    8.1988    9.9974    2.2122 N   0  0  0  0  0  0  0  0  0  0  0  0
   -6.1440   -4.0289   -2.8174 H   0  0  0  0  0  0  0  0  0  0  0  0
   -3.1365   -8.8985   -0.2451 H   0  0  0  0  0  0  0  0  0  0  0  0
   -7.3570   -9.3617   -3.0042 H   0  0  0  0  0  0  0  0  0  0  0  0
   -6.8549  -12.1659   -1.1063 H   0  0  0  0  0  0  0  0  0  0  0  0
   -6.1567  -12.7015   -3.6204 H   0  0  0  0  0  0  0  0  0  0  0  0
   -5.9071  -14.8988   -2.2009 H   0  0  0  0  0  0  0  0  0  0  0  0
   -3.6979  -14.6929   -0.7398 H   0  0  0  0  0  0  0  0  0  0  0  0
   -2.5870  -12.3703   -1.2598 H   0  0  0  0  0  0  0  0  0  0  0  0
   -3.5163  -12.8764   -3.6859 H   0  0  0  0  0  0  0  0  0  0  0  0
   -3.9543  -11.2062   -3.2601 H   0  0  0  0  0  0  0  0  0  0  0  0
   -4.6891  -11.9617    0.3262 H   0  0  0  0  0  0  0  0  0  0  0  0
   -4.3019   -0.8444   -4.4507 H   0  0  0  0  0  0  0  0  0  0  0  0
   -4.3005    1.2525   -5.6905 H   0  0  0  0  0  0  0  0  0  0  0  0
   -4.7331    4.5723   -7.1276 H   0  0  0  0  0  0  0  0  0  0  0  0
   -4.9096    2.8154   -7.3206 H   0  0  0  0  0  0  0  0  0  0  0  0
   -3.7270    3.4841   -6.1470 H   0  0  0  0  0  0  0  0  0  0  0  0
   -7.4635    2.7197   -3.2098 H   0  0  0  0  0  0  0  0  0  0  0  0
   -7.4517    0.6022   -1.9496 H   0  0  0  0  0  0  0  0  0  0  0  0
   -6.3945   -2.6308   -0.0684 H   0  0  0  0  0  0  0  0  0  0  0  0
   -8.5146   -3.6091    0.6131 H   0  0  0  0  0  0  0  0  0  0  0  0
  -10.1370   -5.3069    0.7754 H   0  0  0  0  0  0  0  0  0  0  0  0
  -10.6684   -3.7586    1.5119 H   0  0  0  0  0  0  0  0  0  0  0  0
  -11.8644   -4.9822    1.0345 H   0  0  0  0  0  0  0  0  0  0  0  0
  -10.2350   -2.5048   -3.1468 H   0  0  0  0  0  0  0  0  0  0  0  0
   -8.0847   -1.5340   -3.8418 H   0  0  0  0  0  0  0  0  0  0  0  0
    2.3921   -2.1239    0.0193 H   0  0  0  0  0  0  0  0  0  0  0  0
    3.8143   -0.8484    1.5470 H   0  0  0  0  0  0  0  0  0  0  0  0
    4.4668    1.5921    1.4811 H   0  0  0  0  0  0  0  0  0  0  0  0
    5.1982    2.3419    2.9291 H   0  0  0  0  0  0  0  0  0  0  0  0
    5.3354    0.5901    2.6848 H   0  0  0  0  0  0  0  0  0  0  0  0
    0.3668    1.1455    3.0944 H   0  0  0  0  0  0  0  0  0  0  0  0
   -1.0668   -0.1557    1.5733 H   0  0  0  0  0  0  0  0  0  0  0  0
    0.1202   -2.4808   -2.8492 H   0  0  0  0  0  0  0  0  0  0  0  0
    0.4735   -4.7807   -3.7217 H   0  0  0  0  0  0  0  0  0  0  0  0
   -0.7749   -9.0665   -1.8102 H   0  0  0  0  0  0  0  0  0  0  0  0
    0.1318   -8.4901   -0.3942 H   0  0  0  0  0  0  0  0  0  0  0  0
   -1.2492   -7.5335   -1.0254 H   0  0  0  0  0  0  0  0  0  0  0  0
    0.6679   -6.2471    0.2858 H   0  0  0  0  0  0  0  0  0  0  0  0
    0.3144   -3.9709    1.1439 H   0  0  0  0  0  0  0  0  0  0  0  0
    3.5110   -1.5407   -2.1659 H   0  0  0  0  0  0  0  0  0  0  0  0
    4.6020   -0.1198   -2.2346 H   0  0  0  0  0  0  0  0  0  0  0  0
    3.5616    0.5496   -4.3965 H   0  0  0  0  0  0  0  0  0  0  0  0
    4.1766   -1.1022   -4.5147 H   0  0  0  0  0  0  0  0  0  0  0  0
    2.4442   -0.8205   -4.2953 H   0  0  0  0  0  0  0  0  0  0  0  0
    5.8038    2.8797    0.1511 H   0  0  0  0  0  0  0  0  0  0  0  0
    7.4391    1.2111   -0.5507 H   0  0  0  0  0  0  0  0  0  0  0  0
    7.6328    0.5692   -2.9308 H   0  0  0  0  0  0  0  0  0  0  0  0
    6.1317    1.6107   -4.5937 H   0  0  0  0  0  0  0  0  0  0  0  0
    4.4497    3.2514   -3.8889 H   0  0  0  0  0  0  0  0  0  0  0  0
    5.5593    5.4266   -3.1777 H   0  0  0  0  0  0  0  0  0  0  0  0
    4.8384    7.2600   -4.6429 H   0  0  0  0  0  0  0  0  0  0  0  0
    2.5060    8.0716   -4.5654 H   0  0  0  0  0  0  0  0  0  0  0  0
    0.9064    7.0344   -2.9939 H   0  0  0  0  0  0  0  0  0  0  0  0
    1.6152    5.1905   -1.5472 H   0  0  0  0  0  0  0  0  0  0  0  0
    4.0484    3.8549    4.7863 H   0  0  0  0  0  0  0  0  0  0  0  0
    2.1290    2.7462    5.8664 H   0  0  0  0  0  0  0  0  0  0  0  0
    0.1505    4.0725    6.5294 H   0  0  0  0  0  0  0  0  0  0  0  0
    0.0999    6.5010    6.0997 H   0  0  0  0  0  0  0  0  0  0  0  0
    2.0117    7.5994    4.9933 H   0  0  0  0  0  0  0  0  0  0  0  0
    4.6687    6.6565    6.7471 H   0  0  0  0  0  0  0  0  0  0  0  0
    5.6051    8.6202    7.9065 H   0  0  0  0  0  0  0  0  0  0  0  0
    6.1794   10.6537    6.6280 H   0  0  0  0  0  0  0  0  0  0  0  0
    5.7567   10.7312    4.1956 H   0  0  0  0  0  0  0  0  0  0  0  0
    4.8432    8.7734    3.0368 H   0  0  0  0  0  0  0  0  0  0  0  0
    7.7475    7.3806    2.2302 H   0  0  0  0  0  0  0  0  0  0  0  0
    7.1033    4.4839    7.7081 H   0  0  0  0  0  0  0  0  0  0  0  0
    8.1786    4.3299   10.2901 H   0  0  0  0  0  0  0  0  0  0  0  0
   10.0306    8.5203    7.2164 H   0  0  0  0  0  0  0  0  0  0  0  0
  1  2  2  0  0  0  0
  2  3  1  0  0  0  0
  3  4  2  0  0  0  0
  3  5  1  0  0  0  0
  5  6  2  0  0  0  0
  6  7  1  0  0  0  0
  7  8  2  0  0  0  0
  8  9  1  0  0  0  0
  9 10  2  0  0  0  0
 10 11  1  0  0  0  0
 11 12  2  0  0  0  0
 12 13  1  0  0  0  0
 13 14  3  0  0  0  0
 12 15  1  0  0  0  0
 15 16  3  0  0  0  0
  8 17  1  0  0  0  0
 17 18  1  0  0  0  0
 18 19  1  0  0  0  0
 19 20  2  0  0  0  0
 20 21  1  0  0  0  0
 21 22  1  0  0  0  0
 21 23  1  0  0  0  0
  1 24  1  0  0  0  0
 24 25  2  0  0  0  0
 25 26  1  0  0  0  0
 26 27  1  0  0  0  0
 27 28  2  0  0  0  0
 28 29  1  0  0  0  0
 29 30  2  0  0  0  0
 30 31  1  0  0  0  0
 31 32  1  0  0  0  0
 30 33  1  0  0  0  0
 33 34  2  0  0  0  0
 26 35  1  0  0  0  0
 35 36  2  0  0  0  0
 36 37  1  0  0  0  0
 37 38  2  0  0  0  0
 38 39  1  0  0  0  0
 39 40  1  0  0  0  0
 38 41  1  0  0  0  0
 41 42  2  0  0  0  0
 25 43  1  0  0  0  0
 43 44  1  0  0  0  0
 44 45  1  0  0  0  0
 45 46  2  0  0  0  0
 46 47  1  0  0  0  0
 47 48  1  0  0  0  0
 48 49  2  0  0  0  0
 49 50  1  0  0  0  0
 50 51  2  0  0  0  0
 51 52  1  0  0  0  0
 52 53  1  0  0  0  0
 51 54  1  0  0  0  0
 54 55  2  0  0  0  0
 47 56  1  0  0  0  0
 56 57  2  0  0  0  0
 57 58  1  0  0  0  0
 58 59  2  0  0  0  0
 59 60  1  0  0  0  0
 60 61  1  0  0  0  0
 59 62  1  0  0  0  0
 62 63  2  0  0  0  0
 46 64  1  0  0  0  0
 64 65  1  0  0  0  0
 45 66  1  0  0  0  0
 66 67  1  0  0  0  0
 67 68  2  0  0  0  0
 68 69  1  0  0  0  0
 69 70  1  0  0  0  0
 70 71  1  0  0  0  0
 69 72  1  0  0  0  0
 72 73  2  0  0  0  0
 73 74  1  0  0  0  0
 74 75  2  0  0  0  0
 75 76  1  0  0  0  0
 76 77  1  0  0  0  0
 75 78  1  0  0  0  0
 74 79  1  0  0  0  0
 79 80  2  0  0  0  0
 80 81  1  0  0  0  0
 81 82  1  0  0  0  0
 82 83  2  0  0  0  0
 83 84  1  0  0  0  0
 84 85  2  0  0  0  0
 85 86  1  0  0  0  0
 86 87  2  0  0  0  0
 81 88  1  0  0  0  0
 88 89  2  0  0  0  0
 89 90  1  0  0  0  0
 90 91  2  0  0  0  0
 91 92  1  0  0  0  0
 92 93  2  0  0  0  0
 80 94  1  0  0  0  0
 94 95  1  0  0  0  0
 95 96  1  0  0  0  0
 96 97  2  0  0  0  0
 97 98  1  0  0  0  0
 98 99  1  0  0  0  0
 99100  2  0  0  0  0
100101  1  0  0  0  0
101102  2  0  0  0  0
102103  1  0  0  0  0
103104  2  0  0  0  0
 98105  1  0  0  0  0
105106  2  0  0  0  0
106107  1  0  0  0  0
107108  2  0  0  0  0
108109  1  0  0  0  0
109110  2  0  0  0  0
 97111  1  0  0  0  0
111112  1  0  0  0  0
 96113  1  0  0  0  0
113114  2  0  0  0  0
114115  1  0  0  0  0
115116  2  0  0  0  0
115117  1  0  0  0  0
117118  2  0  0  0  0
118119  1  0  0  0  0
119120  1  0  0  0  0
120121  2  0  0  0  0
121122  1  0  0  0  0
121123  1  0  0  0  0
123124  1  0  0  0  0
124125  1  0  0  0  0
125126  2  0  0  0  0
126127  1  0  0  0  0
127128  2  0  0  0  0
128129  1  0  0  0  0
129130  3  0  0  0  0
128131  1  0  0  0  0
131132  3  0  0  0  0
 11  2  1  0  0  0  0
 23 17  1  0  0  0  0
 65 24  1  0  0  0  0
 76 66  2  0  0  0  0
112 79  1  0  0  0  0
127114  1  0  0  0  0
 10  5  1  0  0  0  0
 22 18  1  0  0  0  0
 34 27  1  0  0  0  0
 42 35  1  0  0  0  0
 64 43  2  0  0  0  0
 73 67  1  0  0  0  0
 87 82  1  0  0  0  0
 93 88  1  0  0  0  0
111 94  2  0  0  0  0
126117  1  0  0  0  0
 23  7  1  0  0  0  0
 55 48  1  0  0  0  0
 63 56  1  0  0  0  0
104 99  1  0  0  0  0
110105  1  0  0  0  0
124119  2  0  0  0  0
  1133  1  0  0  0  0
  6134  1  0  0  0  0
  9135  1  0  0  0  0
 17136  1  0  0  0  0
 18137  1  0  0  0  0
 19138  1  0  0  0  0
 20139  1  0  0  0  0
 21140  1  0  0  0  0
 22141  1  0  0  0  0
 22142  1  0  0  0  0
 23143  1  0  0  0  0
 28144  1  0  0  0  0
 29145  1  0  0  0  0
 32146  1  0  0  0  0
 32147  1  0  0  0  0
 32148  1  0  0  0  0
 33149  1  0  0  0  0
 34150  1  0  0  0  0
 36151  1  0  0  0  0
 37152  1  0  0  0  0
 40153  1  0  0  0  0
 40154  1  0  0  0  0
 40155  1  0  0  0  0
 41156  1  0  0  0  0
 42157  1  0  0  0  0
 49158  1  0  0  0  0
 50159  1  0  0  0  0
 53160  1  0  0  0  0
 53161  1  0  0  0  0
 53162  1  0  0  0  0
 54163  1  0  0  0  0
 55164  1  0  0  0  0
 57165  1  0  0  0  0
 58166  1  0  0  0  0
 61167  1  0  0  0  0
 61168  1  0  0  0  0
 61169  1  0  0  0  0
 62170  1  0  0  0  0
 63171  1  0  0  0  0
 70172  1  0  0  0  0
 70173  1  0  0  0  0
 71174  1  0  0  0  0
 71175  1  0  0  0  0
 71176  1  0  0  0  0
 83177  1  0  0  0  0
 84178  1  0  0  0  0
 85179  1  0  0  0  0
 86180  1  0  0  0  0
 87181  1  0  0  0  0
 89182  1  0  0  0  0
 90183  1  0  0  0  0
 91184  1  0  0  0  0
 92185  1  0  0  0  0
 93186  1  0  0  0  0
100187  1  0  0  0  0
101188  1  0  0  0  0
102189  1  0  0  0  0
103190  1  0  0  0  0
104191  1  0  0  0  0
106192  1  0  0  0  0
107193  1  0  0  0  0
108194  1  0  0  0  0
109195  1  0  0  0  0
110196  1  0  0  0  0
113197  1  0  0  0  0
118198  1  0  0  0  0
120199  1  0  0  0  0
125200  1  0  0  0  0
M  END
