
  xtb     02122216513D
 energy: -303.579614930896 gnorm: 0.000278688565 xtb: 6.4.1 (unknown)
183203  0     0  0            999 V2000
    9.4811    1.8667    1.7979 C   0  0  0  0  0  0  0  0  0  0  0  0
    9.6964    2.8649    2.6936 C   0  0  0  0  0  0  0  0  0  0  0  0
   11.0794    3.2554    3.0774 C   0  0  0  0  0  0  0  0  0  0  0  0
   12.1057    2.8941    2.5467 O   0  0  0  0  0  0  0  0  0  0  0  0
   10.9278    4.1247    4.2610 C   0  0  0  0  0  0  0  0  0  0  0  0
   11.9427    4.6720    5.0428 C   0  0  0  0  0  0  0  0  0  0  0  0
   11.4921    5.4344    6.0939 C   0  0  0  0  0  0  0  0  0  0  0  0
   10.1300    5.6203    6.3677 C   0  0  0  0  0  0  0  0  0  0  0  0
    9.1176    5.0899    5.6051 C   0  0  0  0  0  0  0  0  0  0  0  0
    9.5558    4.3355    4.5141 C   0  0  0  0  0  0  0  0  0  0  0  0
    8.7828    3.6881    3.4577 C   0  0  0  0  0  0  0  0  0  0  0  0
    7.5034    4.0288    3.1046 C   0  0  0  0  0  0  0  0  0  0  0  0
    6.7046    4.9418    3.8247 C   0  0  0  0  0  0  0  0  0  0  0  0
    5.9931    5.6588    4.3707 N   0  0  0  0  0  0  0  0  0  0  0  0
    6.8372    3.6116    1.9338 C   0  0  0  0  0  0  0  0  0  0  0  0
    6.2237    3.3856    0.9894 N   0  0  0  0  0  0  0  0  0  0  0  0
   10.4073    6.4905    7.5673 C   0  0  0  0  0  0  0  0  0  0  0  0
   10.2135    8.0178    7.4010 C   0  0  0  0  0  0  0  0  0  0  0  0
   10.4184    8.3173    5.9364 C   0  0  0  0  0  0  0  0  0  0  0  0
   11.7065    8.1519    5.6666 C   0  0  0  0  0  0  0  0  0  0  0  0
   12.3956    7.7381    6.9435 C   0  0  0  0  0  0  0  0  0  0  0  0
   11.5529    8.5133    7.9689 C   0  0  0  0  0  0  0  0  0  0  0  0
   11.9244    6.2951    7.2544 C   0  0  0  0  0  0  0  0  0  0  0  0
    8.2734    1.1615    1.5486 C   0  0  0  0  0  0  0  0  0  0  0  0
    7.3008    0.7036    2.4256 C   0  0  0  0  0  0  0  0  0  0  0  0
    7.4084    0.7045    3.9200 C   0  0  0  0  0  0  0  0  0  0  0  0
    6.1742    1.2793    4.6136 C   0  0  0  0  0  0  0  0  0  0  0  0
    6.2469    0.1062    1.7197 C   0  0  0  0  0  0  0  0  0  0  0  0
    6.3926    0.1190    0.3301 C   0  0  0  0  0  0  0  0  0  0  0  0
    7.9120    0.7744   -0.1321 S   0  0  0  0  0  0  0  0  0  0  0  0
    5.2743   -0.3380   -0.3677 C   0  0  0  0  0  0  0  0  0  0  0  0
    4.2636   -0.7297    0.4796 C   0  0  0  0  0  0  0  0  0  0  0  0
    4.7153   -0.5650    2.1684 S   0  0  0  0  0  0  0  0  0  0  0  0
    2.9218   -1.0038    0.0951 C   0  0  0  0  0  0  0  0  0  0  0  0
    1.9031   -1.6693    0.7618 C   0  0  0  0  0  0  0  0  0  0  0  0
    2.0509   -2.4309    1.9050 N   0  0  0  0  0  0  0  0  0  0  0  0
    0.9974   -2.4359    2.8336 C   0  0  0  0  0  0  0  0  0  0  0  0
    0.5801   -3.6191    3.4339 C   0  0  0  0  0  0  0  0  0  0  0  0
   -0.4816   -3.6235    4.3175 C   0  0  0  0  0  0  0  0  0  0  0  0
   -1.1518   -2.4421    4.6070 C   0  0  0  0  0  0  0  0  0  0  0  0
   -2.5298   -2.3234    5.7021 S   0  0  0  0  0  0  0  0  0  0  0  0
   -2.8881   -4.0465    6.1464 C   0  0  0  0  0  0  0  0  0  0  0  0
   -0.7286   -1.2526    4.0166 C   0  0  0  0  0  0  0  0  0  0  0  0
    0.3365   -1.2469    3.1454 C   0  0  0  0  0  0  0  0  0  0  0  0
    3.1903   -3.2139    2.1138 C   0  0  0  0  0  0  0  0  0  0  0  0
    3.8720   -3.7898    1.0404 C   0  0  0  0  0  0  0  0  0  0  0  0
    5.0113   -4.5296    1.2577 C   0  0  0  0  0  0  0  0  0  0  0  0
    5.4953   -4.7254    2.5504 C   0  0  0  0  0  0  0  0  0  0  0  0
    6.9722   -5.6818    2.6961 S   0  0  0  0  0  0  0  0  0  0  0  0
    7.2440   -5.8014    4.4871 C   0  0  0  0  0  0  0  0  0  0  0  0
    4.8113   -4.1704    3.6228 C   0  0  0  0  0  0  0  0  0  0  0  0
    3.6730   -3.4193    3.4039 C   0  0  0  0  0  0  0  0  0  0  0  0
    0.6591   -1.4643    0.1109 C   0  0  0  0  0  0  0  0  0  0  0  0
   -0.9586   -2.0079    0.3905 S   0  0  0  0  0  0  0  0  0  0  0  0
   -1.5430   -1.0246   -0.9394 C   0  0  0  0  0  0  0  0  0  0  0  0
   -0.5255   -0.3652   -1.6050 C   0  0  0  0  0  0  0  0  0  0  0  0
   -0.6819    0.4817   -2.6910 N   0  0  0  0  0  0  0  0  0  0  0  0
    0.2533    1.5076   -2.9117 C   0  0  0  0  0  0  0  0  0  0  0  0
    0.6810    1.7990   -4.2080 C   0  0  0  0  0  0  0  0  0  0  0  0
    1.6587    2.7437   -4.4233 C   0  0  0  0  0  0  0  0  0  0  0  0
    2.2422    3.4197   -3.3524 C   0  0  0  0  0  0  0  0  0  0  0  0
    3.5405    4.5545   -3.7243 S   0  0  0  0  0  0  0  0  0  0  0  0
    4.3246    4.8488   -2.1126 C   0  0  0  0  0  0  0  0  0  0  0  0
    1.7835    3.1741   -2.0670 C   0  0  0  0  0  0  0  0  0  0  0  0
    0.7968    2.2313   -1.8530 C   0  0  0  0  0  0  0  0  0  0  0  0
   -1.7046    0.2656   -3.6273 C   0  0  0  0  0  0  0  0  0  0  0  0
   -1.9938   -1.0194   -4.0835 C   0  0  0  0  0  0  0  0  0  0  0  0
   -3.0113   -1.2205   -4.9891 C   0  0  0  0  0  0  0  0  0  0  0  0
   -3.7570   -0.1444   -5.4610 C   0  0  0  0  0  0  0  0  0  0  0  0
   -5.0435   -0.5120   -6.6195 S   0  0  0  0  0  0  0  0  0  0  0  0
   -5.3413    1.0845   -7.4298 C   0  0  0  0  0  0  0  0  0  0  0  0
   -3.4745    1.1379   -5.0101 C   0  0  0  0  0  0  0  0  0  0  0  0
   -2.4493    1.3396   -4.1069 C   0  0  0  0  0  0  0  0  0  0  0  0
    0.7288   -0.6438   -1.0021 C   0  0  0  0  0  0  0  0  0  0  0  0
    2.3567   -0.1958   -1.3634 S   0  0  0  0  0  0  0  0  0  0  0  0
   -2.9491   -1.0727   -1.3172 C   0  0  0  0  0  0  0  0  0  0  0  0
   -3.5125   -2.3021   -1.6940 C   0  0  0  0  0  0  0  0  0  0  0  0
   -4.7248   -2.3874   -2.3352 C   0  0  0  0  0  0  0  0  0  0  0  0
   -5.4703   -1.2359   -2.6335 C   0  0  0  0  0  0  0  0  0  0  0  0
   -5.0022   -0.0256   -2.1045 C   0  0  0  0  0  0  0  0  0  0  0  0
   -5.5665    1.3045   -2.1414 C   0  0  0  0  0  0  0  0  0  0  0  0
   -6.8486    1.5889   -2.4938 C   0  0  0  0  0  0  0  0  0  0  0  0
   -7.5131    2.8304   -2.7183 C   0  0  0  0  0  0  0  0  0  0  0  0
   -6.9541    4.1439   -2.7766 C   0  0  0  0  0  0  0  0  0  0  0  0
   -7.8689    5.0867   -3.0825 C   0  0  0  0  0  0  0  0  0  0  0  0
   -9.4474    4.4206   -3.3189 S   0  0  0  0  0  0  0  0  0  0  0  0
   -8.8651    2.8568   -3.0002 C   0  0  0  0  0  0  0  0  0  0  0  0
   -4.5551    2.1818   -1.5049 C   0  0  0  0  0  0  0  0  0  0  0  0
   -4.5667    3.3798   -1.3050 O   0  0  0  0  0  0  0  0  0  0  0  0
   -3.5329    1.3608   -1.0724 N   0  0  0  0  0  0  0  0  0  0  0  0
   -2.5467    1.8394   -0.1351 C   0  0  0  0  0  0  0  0  0  0  0  0
   -2.7960    1.3011    1.2711 C   0  0  0  0  0  0  0  0  0  0  0  0
   -3.7602    0.0503   -1.4476 C   0  0  0  0  0  0  0  0  0  0  0  0
   -6.5452   -1.2333   -3.5889 C   0  0  0  0  0  0  0  0  0  0  0  0
   -7.4586   -2.1909   -3.8845 C   0  0  0  0  0  0  0  0  0  0  0  0
   -7.7209   -3.4593   -3.1535 C   0  0  0  0  0  0  0  0  0  0  0  0
   -7.3008   -3.7962   -2.0681 O   0  0  0  0  0  0  0  0  0  0  0  0
   -8.6551   -4.2211   -4.0054 C   0  0  0  0  0  0  0  0  0  0  0  0
   -9.1353   -5.5088   -3.7719 C   0  0  0  0  0  0  0  0  0  0  0  0
   -9.9828   -5.9762   -4.7467 C   0  0  0  0  0  0  0  0  0  0  0  0
  -10.3242   -5.2215   -5.8779 C   0  0  0  0  0  0  0  0  0  0  0  0
   -9.8641   -3.9499   -6.1185 C   0  0  0  0  0  0  0  0  0  0  0  0
   -9.0080   -3.4496   -5.1309 C   0  0  0  0  0  0  0  0  0  0  0  0
   -8.3649   -2.1453   -5.0230 C   0  0  0  0  0  0  0  0  0  0  0  0
   -8.6307   -1.0622   -5.8183 C   0  0  0  0  0  0  0  0  0  0  0  0
   -9.4968   -1.0829   -6.9327 C   0  0  0  0  0  0  0  0  0  0  0  0
  -10.1788   -1.0179   -7.8540 N   0  0  0  0  0  0  0  0  0  0  0  0
   -8.1594    0.2515   -5.6234 C   0  0  0  0  0  0  0  0  0  0  0  0
   -7.8888    1.3655   -5.5278 N   0  0  0  0  0  0  0  0  0  0  0  0
  -11.2102   -6.3075   -6.4346 C   0  0  0  0  0  0  0  0  0  0  0  0
  -12.7312   -6.1049   -6.2694 C   0  0  0  0  0  0  0  0  0  0  0  0
  -13.3029   -7.4919   -6.4541 C   0  0  0  0  0  0  0  0  0  0  0  0
  -12.9828   -8.2061   -5.3825 C   0  0  0  0  0  0  0  0  0  0  0  0
  -12.1896   -7.3135   -4.4553 C   0  0  0  0  0  0  0  0  0  0  0  0
  -12.8627   -5.9661   -4.7472 C   0  0  0  0  0  0  0  0  0  0  0  0
  -10.8327   -7.1478   -5.1725 C   0  0  0  0  0  0  0  0  0  0  0  0
   10.3428    1.5728    1.2060 H   0  0  0  0  0  0  0  0  0  0  0  0
   12.9803    4.4956    4.8065 H   0  0  0  0  0  0  0  0  0  0  0  0
    8.0731    5.2331    5.8282 H   0  0  0  0  0  0  0  0  0  0  0  0
   10.0323    6.1242    8.5209 H   0  0  0  0  0  0  0  0  0  0  0  0
    9.3033    8.4087    7.8477 H   0  0  0  0  0  0  0  0  0  0  0  0
    9.6209    8.5545    5.2570 H   0  0  0  0  0  0  0  0  0  0  0  0
   12.2008    8.2239    4.7155 H   0  0  0  0  0  0  0  0  0  0  0  0
   13.4732    7.8766    6.9738 H   0  0  0  0  0  0  0  0  0  0  0  0
   11.6730    9.5921    7.8829 H   0  0  0  0  0  0  0  0  0  0  0  0
   11.7289    8.2042    8.9984 H   0  0  0  0  0  0  0  0  0  0  0  0
   12.5438    5.8105    8.0067 H   0  0  0  0  0  0  0  0  0  0  0  0
    7.5336   -0.3344    4.2439 H   0  0  0  0  0  0  0  0  0  0  0  0
    8.3003    1.2540    4.2246 H   0  0  0  0  0  0  0  0  0  0  0  0
    5.9605    2.2883    4.2702 H   0  0  0  0  0  0  0  0  0  0  0  0
    5.3013    0.6634    4.4131 H   0  0  0  0  0  0  0  0  0  0  0  0
    6.3361    1.3094    5.6884 H   0  0  0  0  0  0  0  0  0  0  0  0
    5.1891   -0.3665   -1.4384 H   0  0  0  0  0  0  0  0  0  0  0  0
    1.0873   -4.5433    3.1994 H   0  0  0  0  0  0  0  0  0  0  0  0
   -0.7814   -4.5580    4.7631 H   0  0  0  0  0  0  0  0  0  0  0  0
   -3.0927   -4.6237    5.2496 H   0  0  0  0  0  0  0  0  0  0  0  0
   -3.7756   -4.0075    6.7704 H   0  0  0  0  0  0  0  0  0  0  0  0
   -2.0611   -4.4683    6.7104 H   0  0  0  0  0  0  0  0  0  0  0  0
   -1.2464   -0.3361    4.2541 H   0  0  0  0  0  0  0  0  0  0  0  0
    0.6668   -0.3207    2.6989 H   0  0  0  0  0  0  0  0  0  0  0  0
    3.5029   -3.6559    0.0349 H   0  0  0  0  0  0  0  0  0  0  0  0
    5.5398   -4.9720    0.4273 H   0  0  0  0  0  0  0  0  0  0  0  0
    8.1316   -6.4150    4.6060 H   0  0  0  0  0  0  0  0  0  0  0  0
    7.4206   -4.8147    4.9054 H   0  0  0  0  0  0  0  0  0  0  0  0
    6.3948   -6.2860    4.9598 H   0  0  0  0  0  0  0  0  0  0  0  0
    5.1580   -4.3020    4.6349 H   0  0  0  0  0  0  0  0  0  0  0  0
    3.1573   -2.9742    4.2415 H   0  0  0  0  0  0  0  0  0  0  0  0
    0.2559    1.2604   -5.0418 H   0  0  0  0  0  0  0  0  0  0  0  0
    2.0021    2.9526   -5.4247 H   0  0  0  0  0  0  0  0  0  0  0  0
    3.6785    5.4530   -1.4823 H   0  0  0  0  0  0  0  0  0  0  0  0
    4.5662    3.9025   -1.6380 H   0  0  0  0  0  0  0  0  0  0  0  0
    5.2372    5.3957   -2.3278 H   0  0  0  0  0  0  0  0  0  0  0  0
    2.1888    3.7025   -1.2197 H   0  0  0  0  0  0  0  0  0  0  0  0
    0.4637    2.0539   -0.8413 H   0  0  0  0  0  0  0  0  0  0  0  0
   -1.4073   -1.8554   -3.7336 H   0  0  0  0  0  0  0  0  0  0  0  0
   -3.2335   -2.2129   -5.3500 H   0  0  0  0  0  0  0  0  0  0  0  0
   -5.9247    0.8606   -8.3179 H   0  0  0  0  0  0  0  0  0  0  0  0
   -4.3905    1.5277   -7.7085 H   0  0  0  0  0  0  0  0  0  0  0  0
   -5.9143    1.7357   -6.7740 H   0  0  0  0  0  0  0  0  0  0  0  0
   -4.0540    1.9838   -5.3435 H   0  0  0  0  0  0  0  0  0  0  0  0
   -2.2290    2.3377   -3.7580 H   0  0  0  0  0  0  0  0  0  0  0  0
   -2.9297   -3.1976   -1.5359 H   0  0  0  0  0  0  0  0  0  0  0  0
   -5.0686   -3.3459   -2.6838 H   0  0  0  0  0  0  0  0  0  0  0  0
   -7.4927    0.7288   -2.6463 H   0  0  0  0  0  0  0  0  0  0  0  0
   -5.9204    4.3497   -2.5755 H   0  0  0  0  0  0  0  0  0  0  0  0
   -7.7278    6.1436   -3.1904 H   0  0  0  0  0  0  0  0  0  0  0  0
   -9.5369    2.0215   -3.0365 H   0  0  0  0  0  0  0  0  0  0  0  0
   -2.6337    2.9296   -0.1419 H   0  0  0  0  0  0  0  0  0  0  0  0
   -1.5492    1.5619   -0.4731 H   0  0  0  0  0  0  0  0  0  0  0  0
   -2.0537    1.7051    1.9544 H   0  0  0  0  0  0  0  0  0  0  0  0
   -3.7840    1.5947    1.6176 H   0  0  0  0  0  0  0  0  0  0  0  0
   -2.7304    0.2154    1.2900 H   0  0  0  0  0  0  0  0  0  0  0  0
   -6.5500   -0.3479   -4.2136 H   0  0  0  0  0  0  0  0  0  0  0  0
   -8.8395   -6.0577   -2.8914 H   0  0  0  0  0  0  0  0  0  0  0  0
  -10.1310   -3.3851   -6.9958 H   0  0  0  0  0  0  0  0  0  0  0  0
  -10.9351   -6.6886   -7.4161 H   0  0  0  0  0  0  0  0  0  0  0  0
  -13.1539   -5.3145   -6.8836 H   0  0  0  0  0  0  0  0  0  0  0  0
  -13.8163   -7.8161   -7.3402 H   0  0  0  0  0  0  0  0  0  0  0  0
  -13.1752   -9.2461   -5.1950 H   0  0  0  0  0  0  0  0  0  0  0  0
  -12.1210   -7.6251   -3.4165 H   0  0  0  0  0  0  0  0  0  0  0  0
  -13.9022   -5.9470   -4.4241 H   0  0  0  0  0  0  0  0  0  0  0  0
  -12.3371   -5.1080   -4.3324 H   0  0  0  0  0  0  0  0  0  0  0  0
  -10.3072   -8.0908   -5.3119 H   0  0  0  0  0  0  0  0  0  0  0  0
  1  2  2  0  0  0  0
  2  3  1  0  0  0  0
  3  4  2  0  0  0  0
  3  5  1  0  0  0  0
  5  6  2  0  0  0  0
  6  7  1  0  0  0  0
  7  8  2  0  0  0  0
  8  9  1  0  0  0  0
  9 10  2  0  0  0  0
 10 11  1  0  0  0  0
 11 12  2  0  0  0  0
 12 13  1  0  0  0  0
 13 14  3  0  0  0  0
 12 15  1  0  0  0  0
 15 16  3  0  0  0  0
  8 17  1  0  0  0  0
 17 18  1  0  0  0  0
 18 19  1  0  0  0  0
 19 20  2  0  0  0  0
 20 21  1  0  0  0  0
 21 22  1  0  0  0  0
 21 23  1  0  0  0  0
  1 24  1  0  0  0  0
 24 25  2  0  0  0  0
 25 26  1  0  0  0  0
 26 27  1  0  0  0  0
 25 28  1  0  0  0  0
 28 29  2  0  0  0  0
 29 30  1  0  0  0  0
 29 31  1  0  0  0  0
 31 32  2  0  0  0  0
 32 33  1  0  0  0  0
 32 34  1  0  0  0  0
 34 35  2  0  0  0  0
 35 36  1  0  0  0  0
 36 37  1  0  0  0  0
 37 38  2  0  0  0  0
 38 39  1  0  0  0  0
 39 40  2  0  0  0  0
 40 41  1  0  0  0  0
 41 42  1  0  0  0  0
 40 43  1  0  0  0  0
 43 44  2  0  0  0  0
 36 45  1  0  0  0  0
 45 46  2  0  0  0  0
 46 47  1  0  0  0  0
 47 48  2  0  0  0  0
 48 49  1  0  0  0  0
 49 50  1  0  0  0  0
 48 51  1  0  0  0  0
 51 52  2  0  0  0  0
 35 53  1  0  0  0  0
 53 54  1  0  0  0  0
 54 55  1  0  0  0  0
 55 56  2  0  0  0  0
 56 57  1  0  0  0  0
 57 58  1  0  0  0  0
 58 59  2  0  0  0  0
 59 60  1  0  0  0  0
 60 61  2  0  0  0  0
 61 62  1  0  0  0  0
 62 63  1  0  0  0  0
 61 64  1  0  0  0  0
 64 65  2  0  0  0  0
 57 66  1  0  0  0  0
 66 67  2  0  0  0  0
 67 68  1  0  0  0  0
 68 69  2  0  0  0  0
 69 70  1  0  0  0  0
 70 71  1  0  0  0  0
 69 72  1  0  0  0  0
 72 73  2  0  0  0  0
 56 74  1  0  0  0  0
 74 75  1  0  0  0  0
 55 76  1  0  0  0  0
 76 77  2  0  0  0  0
 77 78  1  0  0  0  0
 78 79  2  0  0  0  0
 79 80  1  0  0  0  0
 80 81  1  0  0  0  0
 81 82  2  0  0  0  0
 82 83  1  0  0  0  0
 83 84  1  0  0  0  0
 84 85  2  0  0  0  0
 85 86  1  0  0  0  0
 86 87  1  0  0  0  0
 81 88  1  0  0  0  0
 88 89  2  0  0  0  0
 88 90  1  0  0  0  0
 90 91  1  0  0  0  0
 91 92  1  0  0  0  0
 90 93  1  0  0  0  0
 79 94  1  0  0  0  0
 94 95  2  0  0  0  0
 95 96  1  0  0  0  0
 96 97  2  0  0  0  0
 96 98  1  0  0  0  0
 98 99  2  0  0  0  0
 99100  1  0  0  0  0
100101  2  0  0  0  0
101102  1  0  0  0  0
102103  2  0  0  0  0
103104  1  0  0  0  0
104105  2  0  0  0  0
105106  1  0  0  0  0
106107  3  0  0  0  0
105108  1  0  0  0  0
108109  3  0  0  0  0
101110  1  0  0  0  0
110111  1  0  0  0  0
111112  1  0  0  0  0
112113  2  0  0  0  0
113114  1  0  0  0  0
114115  1  0  0  0  0
114116  1  0  0  0  0
 11  2  1  0  0  0  0
 23 17  1  0  0  0  0
 30 24  1  0  0  0  0
 75 34  1  0  0  0  0
 93 76  1  0  0  0  0
104 95  1  0  0  0  0
116110  1  0  0  0  0
 10  5  1  0  0  0  0
 22 18  1  0  0  0  0
 33 28  1  0  0  0  0
 44 37  1  0  0  0  0
 52 45  1  0  0  0  0
 74 53  2  0  0  0  0
 93 80  2  0  0  0  0
103 98  1  0  0  0  0
115111  1  0  0  0  0
 23  7  1  0  0  0  0
 65 58  1  0  0  0  0
 73 66  1  0  0  0  0
 87 83  2  0  0  0  0
116100  1  0  0  0  0
  1117  1  0  0  0  0
  6118  1  0  0  0  0
  9119  1  0  0  0  0
 17120  1  0  0  0  0
 18121  1  0  0  0  0
 19122  1  0  0  0  0
 20123  1  0  0  0  0
 21124  1  0  0  0  0
 22125  1  0  0  0  0
 22126  1  0  0  0  0
 23127  1  0  0  0  0
 26128  1  0  0  0  0
 26129  1  0  0  0  0
 27130  1  0  0  0  0
 27131  1  0  0  0  0
 27132  1  0  0  0  0
 31133  1  0  0  0  0
 38134  1  0  0  0  0
 39135  1  0  0  0  0
 42136  1  0  0  0  0
 42137  1  0  0  0  0
 42138  1  0  0  0  0
 43139  1  0  0  0  0
 44140  1  0  0  0  0
 46141  1  0  0  0  0
 47142  1  0  0  0  0
 50143  1  0  0  0  0
 50144  1  0  0  0  0
 50145  1  0  0  0  0
 51146  1  0  0  0  0
 52147  1  0  0  0  0
 59148  1  0  0  0  0
 60149  1  0  0  0  0
 63150  1  0  0  0  0
 63151  1  0  0  0  0
 63152  1  0  0  0  0
 64153  1  0  0  0  0
 65154  1  0  0  0  0
 67155  1  0  0  0  0
 68156  1  0  0  0  0
 71157  1  0  0  0  0
 71158  1  0  0  0  0
 71159  1  0  0  0  0
 72160  1  0  0  0  0
 73161  1  0  0  0  0
 77162  1  0  0  0  0
 78163  1  0  0  0  0
 82164  1  0  0  0  0
 84165  1  0  0  0  0
 85166  1  0  0  0  0
 87167  1  0  0  0  0
 91168  1  0  0  0  0
 91169  1  0  0  0  0
 92170  1  0  0  0  0
 92171  1  0  0  0  0
 92172  1  0  0  0  0
 94173  1  0  0  0  0
 99174  1  0  0  0  0
102175  1  0  0  0  0
110176  1  0  0  0  0
111177  1  0  0  0  0
112178  1  0  0  0  0
113179  1  0  0  0  0
114180  1  0  0  0  0
115181  1  0  0  0  0
115182  1  0  0  0  0
116183  1  0  0  0  0
M  END
