
  xtb     02082214113D
 energy: -351.654699678117 gnorm: 0.000865401704 xtb: 6.4.1 (unknown)
211230  0     0  0            999 V2000
   -0.3001   -5.7414    4.3744 C   0  0  0  0  0  0  0  0  0  0  0  0
    0.1169   -7.0396    4.1806 C   0  0  0  0  0  0  0  0  0  0  0  0
    0.5230   -7.6538    2.9166 C   0  0  0  0  0  0  0  0  0  0  0  0
    0.5895   -7.1271    1.8151 O   0  0  0  0  0  0  0  0  0  0  0  0
    0.8211   -9.0667    3.2190 C   0  0  0  0  0  0  0  0  0  0  0  0
    1.2787  -10.0447    2.3395 C   0  0  0  0  0  0  0  0  0  0  0  0
    1.4549  -11.2807    2.9142 C   0  0  0  0  0  0  0  0  0  0  0  0
    1.2035  -11.5276    4.2689 C   0  0  0  0  0  0  0  0  0  0  0  0
    0.7660  -10.5686    5.1519 C   0  0  0  0  0  0  0  0  0  0  0  0
    0.5728   -9.3068    4.5855 C   0  0  0  0  0  0  0  0  0  0  0  0
    0.1505   -8.0525    5.2084 C   0  0  0  0  0  0  0  0  0  0  0  0
   -0.1441   -7.8976    6.5424 C   0  0  0  0  0  0  0  0  0  0  0  0
   -0.4048   -6.6821    7.2014 C   0  0  0  0  0  0  0  0  0  0  0  0
   -0.5864   -5.7449    7.8441 N   0  0  0  0  0  0  0  0  0  0  0  0
   -0.2071   -8.9501    7.4777 C   0  0  0  0  0  0  0  0  0  0  0  0
   -0.3035   -9.7447    8.3022 N   0  0  0  0  0  0  0  0  0  0  0  0
    1.5798  -12.9836    4.1562 C   0  0  0  0  0  0  0  0  0  0  0  0
    0.4311  -14.0213    4.1076 C   0  0  0  0  0  0  0  0  0  0  0  0
   -0.7691  -13.3065    3.5383 C   0  0  0  0  0  0  0  0  0  0  0  0
   -0.5301  -13.0732    2.2547 C   0  0  0  0  0  0  0  0  0  0  0  0
    0.8365  -13.6260    1.9331 C   0  0  0  0  0  0  0  0  0  0  0  0
    0.8686  -14.8362    2.8801 C   0  0  0  0  0  0  0  0  0  0  0  0
    1.8611  -12.7082    2.6452 C   0  0  0  0  0  0  0  0  0  0  0  0
   -0.3825   -4.6631    3.4971 C   0  0  0  0  0  0  0  0  0  0  0  0
   -0.8139   -3.3752    3.9046 C   0  0  0  0  0  0  0  0  0  0  0  0
   -1.4428   -3.0741    5.0830 N   0  0  0  0  0  0  0  0  0  0  0  0
   -1.2772   -1.7772    5.6052 C   0  0  0  0  0  0  0  0  0  0  0  0
    0.0025   -1.2290    5.6977 C   0  0  0  0  0  0  0  0  0  0  0  0
    0.1744    0.0489    6.1795 C   0  0  0  0  0  0  0  0  0  0  0  0
   -0.9261    0.8032    6.5823 C   0  0  0  0  0  0  0  0  0  0  0  0
   -0.5870    2.4363    7.1576 S   0  0  0  0  0  0  0  0  0  0  0  0
   -2.1844    3.0237    7.7886 C   0  0  0  0  0  0  0  0  0  0  0  0
   -2.1995    0.2542    6.5037 C   0  0  0  0  0  0  0  0  0  0  0  0
   -2.3725   -1.0275    6.0202 C   0  0  0  0  0  0  0  0  0  0  0  0
   -2.3806   -3.9369    5.6722 C   0  0  0  0  0  0  0  0  0  0  0  0
   -2.5605   -3.9328    7.0515 C   0  0  0  0  0  0  0  0  0  0  0  0
   -3.4654   -4.7917    7.6449 C   0  0  0  0  0  0  0  0  0  0  0  0
   -4.1841   -5.6885    6.8690 C   0  0  0  0  0  0  0  0  0  0  0  0
   -5.3178   -6.8683    7.5282 S   0  0  0  0  0  0  0  0  0  0  0  0
   -4.8586   -6.9519    9.2820 C   0  0  0  0  0  0  0  0  0  0  0  0
   -4.0285   -5.6743    5.4833 C   0  0  0  0  0  0  0  0  0  0  0  0
   -3.1493   -4.8001    4.8890 C   0  0  0  0  0  0  0  0  0  0  0  0
   -0.5653   -2.4244    2.9008 C   0  0  0  0  0  0  0  0  0  0  0  0
   -0.7873   -0.7119    2.8100 S   0  0  0  0  0  0  0  0  0  0  0  0
   -0.3520   -0.7478    1.1110 C   0  0  0  0  0  0  0  0  0  0  0  0
    0.0561   -1.9982    0.6805 C   0  0  0  0  0  0  0  0  0  0  0  0
    0.5262   -2.2864   -0.5843 N   0  0  0  0  0  0  0  0  0  0  0  0
    0.3153   -3.6061   -1.0733 C   0  0  0  0  0  0  0  0  0  0  0  0
   -0.9236   -3.9644   -1.5893 C   0  0  0  0  0  0  0  0  0  0  0  0
   -1.1571   -5.2663   -1.9779 C   0  0  0  0  0  0  0  0  0  0  0  0
   -0.1521   -6.2201   -1.8523 C   0  0  0  0  0  0  0  0  0  0  0  0
   -0.5416   -7.8864   -2.2811 S   0  0  0  0  0  0  0  0  0  0  0  0
    0.5432   -8.8042   -1.1473 C   0  0  0  0  0  0  0  0  0  0  0  0
    1.1084   -5.8458   -1.4054 C   0  0  0  0  0  0  0  0  0  0  0  0
    1.3398   -4.5414   -1.0171 C   0  0  0  0  0  0  0  0  0  0  0  0
    1.3068   -1.4082   -1.3325 C   0  0  0  0  0  0  0  0  0  0  0  0
    1.2878   -1.4804   -2.7281 C   0  0  0  0  0  0  0  0  0  0  0  0
    2.0106   -0.5821   -3.4807 C   0  0  0  0  0  0  0  0  0  0  0  0
    2.7821    0.4014   -2.8649 C   0  0  0  0  0  0  0  0  0  0  0  0
    3.6173    1.5368   -3.9348 S   0  0  0  0  0  0  0  0  0  0  0  0
    4.5096    2.6299   -2.7966 C   0  0  0  0  0  0  0  0  0  0  0  0
    2.8603    0.4337   -1.4810 C   0  0  0  0  0  0  0  0  0  0  0  0
    2.1358   -0.4686   -0.7257 C   0  0  0  0  0  0  0  0  0  0  0  0
   -0.0831   -2.9612    1.7144 C   0  0  0  0  0  0  0  0  0  0  0  0
    0.1597   -4.6712    1.8157 S   0  0  0  0  0  0  0  0  0  0  0  0
   -0.5308    0.4114    0.2764 C   0  0  0  0  0  0  0  0  0  0  0  0
   -1.4847    0.5166   -0.7145 C   0  0  0  0  0  0  0  0  0  0  0  0
   -2.5044   -0.4146   -0.8811 N   0  0  0  0  0  0  0  0  0  0  0  0
   -3.1738   -0.8720    0.2664 C   0  0  0  0  0  0  0  0  0  0  0  0
   -3.4402    0.0052    1.3190 C   0  0  0  0  0  0  0  0  0  0  0  0
   -4.0734   -0.4372    2.4595 C   0  0  0  0  0  0  0  0  0  0  0  0
   -4.4629   -1.7672    2.5782 C   0  0  0  0  0  0  0  0  0  0  0  0
   -5.2510   -2.2546    4.0869 S   0  0  0  0  0  0  0  0  0  0  0  0
   -6.2881   -3.6526    3.5746 C   0  0  0  0  0  0  0  0  0  0  0  0
   -4.2080   -2.6453    1.5340 C   0  0  0  0  0  0  0  0  0  0  0  0
   -3.5765   -2.1998    0.3893 C   0  0  0  0  0  0  0  0  0  0  0  0
   -2.9302   -0.7560   -2.1668 C   0  0  0  0  0  0  0  0  0  0  0  0
   -4.2548   -1.1019   -2.4215 C   0  0  0  0  0  0  0  0  0  0  0  0
   -4.6655   -1.4323   -3.6983 C   0  0  0  0  0  0  0  0  0  0  0  0
   -3.7613   -1.4091   -4.7513 C   0  0  0  0  0  0  0  0  0  0  0  0
   -4.1694   -1.8023   -6.4237 S   0  0  0  0  0  0  0  0  0  0  0  0
   -5.9675   -2.0478   -6.3904 C   0  0  0  0  0  0  0  0  0  0  0  0
   -2.4361   -1.0594   -4.5019 C   0  0  0  0  0  0  0  0  0  0  0  0
   -2.0235   -0.7399   -3.2286 C   0  0  0  0  0  0  0  0  0  0  0  0
   -1.3258    1.7194   -1.4475 C   0  0  0  0  0  0  0  0  0  0  0  0
   -2.0749    2.3993   -2.8465 S   0  0  0  0  0  0  0  0  0  0  0  0
   -1.0261    3.8054   -2.7531 C   0  0  0  0  0  0  0  0  0  0  0  0
   -0.1111    3.7166   -1.7164 C   0  0  0  0  0  0  0  0  0  0  0  0
    0.9372    4.5948   -1.4792 N   0  0  0  0  0  0  0  0  0  0  0  0
    1.3391    4.8021   -0.1521 C   0  0  0  0  0  0  0  0  0  0  0  0
    0.3878    4.8582    0.8638 C   0  0  0  0  0  0  0  0  0  0  0  0
    0.7672    4.9855    2.1855 C   0  0  0  0  0  0  0  0  0  0  0  0
    2.1125    5.0703    2.5163 C   0  0  0  0  0  0  0  0  0  0  0  0
    2.7172    5.2051    4.1671 S   0  0  0  0  0  0  0  0  0  0  0  0
    1.2525    4.8897    5.1902 C   0  0  0  0  0  0  0  0  0  0  0  0
    3.0664    5.0597    1.4992 C   0  0  0  0  0  0  0  0  0  0  0  0
    2.6882    4.9246    0.1830 C   0  0  0  0  0  0  0  0  0  0  0  0
    1.6273    5.1862   -2.5446 C   0  0  0  0  0  0  0  0  0  0  0  0
    2.1258    6.4843   -2.4329 C   0  0  0  0  0  0  0  0  0  0  0  0
    2.7272    7.0940   -3.5118 C   0  0  0  0  0  0  0  0  0  0  0  0
    2.8366    6.4232   -4.7253 C   0  0  0  0  0  0  0  0  0  0  0  0
    3.5529    7.3125   -6.0784 S   0  0  0  0  0  0  0  0  0  0  0  0
    3.0047    6.3744   -7.5330 C   0  0  0  0  0  0  0  0  0  0  0  0
    2.3971    5.1112   -4.8277 C   0  0  0  0  0  0  0  0  0  0  0  0
    1.8008    4.5001   -3.7450 C   0  0  0  0  0  0  0  0  0  0  0  0
   -0.3082    2.5279   -0.9690 C   0  0  0  0  0  0  0  0  0  0  0  0
    0.4667    1.8461    0.4152 S   0  0  0  0  0  0  0  0  0  0  0  0
   -1.0940    4.8382   -3.7577 C   0  0  0  0  0  0  0  0  0  0  0  0
   -0.8721    6.1797   -3.4231 C   0  0  0  0  0  0  0  0  0  0  0  0
   -0.7068    7.1337   -4.3972 C   0  0  0  0  0  0  0  0  0  0  0  0
   -0.7521    6.7814   -5.7537 C   0  0  0  0  0  0  0  0  0  0  0  0
   -1.1433    5.4682   -6.0769 C   0  0  0  0  0  0  0  0  0  0  0  0
   -1.3098    4.5164   -5.1024 C   0  0  0  0  0  0  0  0  0  0  0  0
   -0.4095    7.6441   -6.8458 C   0  0  0  0  0  0  0  0  0  0  0  0
    0.3818    8.7505   -6.9146 C   0  0  0  0  0  0  0  0  0  0  0  0
    1.2120    9.3881   -5.8569 C   0  0  0  0  0  0  0  0  0  0  0  0
    1.1088    9.3177   -4.6525 O   0  0  0  0  0  0  0  0  0  0  0  0
    2.2151   10.1941   -6.5858 C   0  0  0  0  0  0  0  0  0  0  0  0
    3.3068   10.8603   -6.0693 C   0  0  0  0  0  0  0  0  0  0  0  0
    4.1545   11.5160   -6.9574 C   0  0  0  0  0  0  0  0  0  0  0  0
    5.3521   12.2611   -6.4410 C   0  0  0  0  0  0  0  0  0  0  0  0
    5.4070   13.4593   -6.4233 O   0  0  0  0  0  0  0  0  0  0  0  0
    6.3812   11.5314   -5.9892 O   0  0  0  0  0  0  0  0  0  0  0  0
    6.3692   10.1182   -6.0834 C   0  0  0  0  0  0  0  0  0  0  0  0
    3.8712   11.5288   -8.3213 C   0  0  0  0  0  0  0  0  0  0  0  0
    2.7652   10.8692   -8.8363 C   0  0  0  0  0  0  0  0  0  0  0  0
    1.9335   10.1859   -7.9607 C   0  0  0  0  0  0  0  0  0  0  0  0
    0.7351    9.3842   -8.1822 C   0  0  0  0  0  0  0  0  0  0  0  0
    0.0460    9.2978   -9.3608 C   0  0  0  0  0  0  0  0  0  0  0  0
   -1.1670    8.6002   -9.5540 C   0  0  0  0  0  0  0  0  0  0  0  0
   -2.1594    8.0754   -9.7951 N   0  0  0  0  0  0  0  0  0  0  0  0
    0.4431    9.9376  -10.5551 C   0  0  0  0  0  0  0  0  0  0  0  0
    0.7174   10.4184  -11.5603 N   0  0  0  0  0  0  0  0  0  0  0  0
   -0.5998   -5.4976    5.3859 H   0  0  0  0  0  0  0  0  0  0  0  0
    1.4749   -9.8196    1.3032 H   0  0  0  0  0  0  0  0  0  0  0  0
    0.5873  -10.7718    6.1944 H   0  0  0  0  0  0  0  0  0  0  0  0
    2.4098  -13.3126    4.7782 H   0  0  0  0  0  0  0  0  0  0  0  0
    0.2715  -14.5612    5.0370 H   0  0  0  0  0  0  0  0  0  0  0  0
   -1.6172  -13.0016    4.1228 H   0  0  0  0  0  0  0  0  0  0  0  0
   -1.1397  -12.5349    1.5526 H   0  0  0  0  0  0  0  0  0  0  0  0
    1.0464  -13.8075    0.8821 H   0  0  0  0  0  0  0  0  0  0  0  0
    1.8578  -15.2800    2.9838 H   0  0  0  0  0  0  0  0  0  0  0  0
    0.1474  -15.6046    2.6058 H   0  0  0  0  0  0  0  0  0  0  0  0
    2.8759  -12.8570    2.2809 H   0  0  0  0  0  0  0  0  0  0  0  0
    0.8572   -1.8148    5.3940 H   0  0  0  0  0  0  0  0  0  0  0  0
    1.1620    0.4773    6.2531 H   0  0  0  0  0  0  0  0  0  0  0  0
   -2.5530    2.3414    8.5486 H   0  0  0  0  0  0  0  0  0  0  0  0
   -1.9843    3.9950    8.2303 H   0  0  0  0  0  0  0  0  0  0  0  0
   -2.8943    3.1294    6.9734 H   0  0  0  0  0  0  0  0  0  0  0  0
   -3.0693    0.8156    6.8037 H   0  0  0  0  0  0  0  0  0  0  0  0
   -3.3653   -1.4436    5.9434 H   0  0  0  0  0  0  0  0  0  0  0  0
   -1.9787   -3.2640    7.6655 H   0  0  0  0  0  0  0  0  0  0  0  0
   -3.5788   -4.7658    8.7157 H   0  0  0  0  0  0  0  0  0  0  0  0
   -3.7842   -7.0852    9.3670 H   0  0  0  0  0  0  0  0  0  0  0  0
   -5.3744   -7.8198    9.6808 H   0  0  0  0  0  0  0  0  0  0  0  0
   -5.1892   -6.0573    9.8019 H   0  0  0  0  0  0  0  0  0  0  0  0
   -4.6076   -6.3633    4.8866 H   0  0  0  0  0  0  0  0  0  0  0  0
   -3.0346   -4.7915    3.8151 H   0  0  0  0  0  0  0  0  0  0  0  0
   -1.6940   -3.2148   -1.6843 H   0  0  0  0  0  0  0  0  0  0  0  0
   -2.1198   -5.5610   -2.3668 H   0  0  0  0  0  0  0  0  0  0  0  0
    0.5670   -8.2716   -0.2001 H   0  0  0  0  0  0  0  0  0  0  0  0
    1.5379   -8.9065   -1.5731 H   0  0  0  0  0  0  0  0  0  0  0  0
    0.0927   -9.7849   -1.0266 H   0  0  0  0  0  0  0  0  0  0  0  0
    1.9084   -6.5649   -1.3440 H   0  0  0  0  0  0  0  0  0  0  0  0
    2.3118   -4.2464   -0.6512 H   0  0  0  0  0  0  0  0  0  0  0  0
    0.6996   -2.2437   -3.2151 H   0  0  0  0  0  0  0  0  0  0  0  0
    1.9788   -0.6263   -4.5587 H   0  0  0  0  0  0  0  0  0  0  0  0
    5.2612    2.0656   -2.2520 H   0  0  0  0  0  0  0  0  0  0  0  0
    3.8073    3.1095   -2.1213 H   0  0  0  0  0  0  0  0  0  0  0  0
    4.9868    3.3791   -3.4210 H   0  0  0  0  0  0  0  0  0  0  0  0
    3.4779    1.1539   -0.9691 H   0  0  0  0  0  0  0  0  0  0  0  0
    2.2207   -0.4448    0.3504 H   0  0  0  0  0  0  0  0  0  0  0  0
   -3.1468    1.0412    1.2375 H   0  0  0  0  0  0  0  0  0  0  0  0
   -4.2726    0.2447    3.2714 H   0  0  0  0  0  0  0  0  0  0  0  0
   -6.9657   -3.8367    4.4023 H   0  0  0  0  0  0  0  0  0  0  0  0
   -5.6795   -4.5344    3.4027 H   0  0  0  0  0  0  0  0  0  0  0  0
   -6.8467   -3.3770    2.6852 H   0  0  0  0  0  0  0  0  0  0  0  0
   -4.4913   -3.6841    1.6028 H   0  0  0  0  0  0  0  0  0  0  0  0
   -3.3910   -2.8974   -0.4124 H   0  0  0  0  0  0  0  0  0  0  0  0
   -4.9731   -1.1044   -1.6151 H   0  0  0  0  0  0  0  0  0  0  0  0
   -5.6987   -1.6964   -3.8560 H   0  0  0  0  0  0  0  0  0  0  0  0
   -6.2557   -2.2299   -7.4210 H   0  0  0  0  0  0  0  0  0  0  0  0
   -6.2168   -2.9119   -5.7812 H   0  0  0  0  0  0  0  0  0  0  0  0
   -6.4560   -1.1496   -6.0239 H   0  0  0  0  0  0  0  0  0  0  0  0
   -1.7327   -1.0457   -5.3200 H   0  0  0  0  0  0  0  0  0  0  0  0
   -0.9913   -0.4825   -3.0463 H   0  0  0  0  0  0  0  0  0  0  0  0
   -0.6619    4.8004    0.6147 H   0  0  0  0  0  0  0  0  0  0  0  0
    0.0034    5.0197    2.9449 H   0  0  0  0  0  0  0  0  0  0  0  0
    0.8015    3.9435    4.9077 H   0  0  0  0  0  0  0  0  0  0  0  0
    1.6133    4.8287    6.2120 H   0  0  0  0  0  0  0  0  0  0  0  0
    0.5471    5.7107    5.0992 H   0  0  0  0  0  0  0  0  0  0  0  0
    4.1104    5.1428    1.7596 H   0  0  0  0  0  0  0  0  0  0  0  0
    3.4387    4.9057   -0.5937 H   0  0  0  0  0  0  0  0  0  0  0  0
    2.0143    7.0235   -1.5047 H   0  0  0  0  0  0  0  0  0  0  0  0
    3.0850    8.1073   -3.4300 H   0  0  0  0  0  0  0  0  0  0  0  0
    1.9389    6.1788   -7.4538 H   0  0  0  0  0  0  0  0  0  0  0  0
    3.2075    7.0091   -8.3907 H   0  0  0  0  0  0  0  0  0  0  0  0
    3.5682    5.4501   -7.6209 H   0  0  0  0  0  0  0  0  0  0  0  0
    2.5158    4.5486   -5.7394 H   0  0  0  0  0  0  0  0  0  0  0  0
    1.4628    3.4796   -3.8383 H   0  0  0  0  0  0  0  0  0  0  0  0
   -0.8244    6.4658   -2.3835 H   0  0  0  0  0  0  0  0  0  0  0  0
   -0.5236    8.1547   -4.1132 H   0  0  0  0  0  0  0  0  0  0  0  0
   -1.2636    5.1928   -7.1151 H   0  0  0  0  0  0  0  0  0  0  0  0
   -1.5576    3.4991   -5.3687 H   0  0  0  0  0  0  0  0  0  0  0  0
   -0.7650    7.2699   -7.8010 H   0  0  0  0  0  0  0  0  0  0  0  0
    3.4860   10.8650   -5.0049 H   0  0  0  0  0  0  0  0  0  0  0  0
    5.6877    9.6715   -5.3565 H   0  0  0  0  0  0  0  0  0  0  0  0
    6.0871    9.7834   -7.0841 H   0  0  0  0  0  0  0  0  0  0  0  0
    7.3880    9.8031   -5.8653 H   0  0  0  0  0  0  0  0  0  0  0  0
    4.5320   12.0620   -8.9883 H   0  0  0  0  0  0  0  0  0  0  0  0
    2.5769   10.8889   -9.8973 H   0  0  0  0  0  0  0  0  0  0  0  0
  1  2  2  0  0  0  0
  2  3  1  0  0  0  0
  3  4  2  0  0  0  0
  3  5  1  0  0  0  0
  5  6  2  0  0  0  0
  6  7  1  0  0  0  0
  7  8  2  0  0  0  0
  8  9  1  0  0  0  0
  9 10  2  0  0  0  0
 10 11  1  0  0  0  0
 11 12  2  0  0  0  0
 12 13  1  0  0  0  0
 13 14  3  0  0  0  0
 12 15  1  0  0  0  0
 15 16  3  0  0  0  0
  8 17  1  0  0  0  0
 17 18  1  0  0  0  0
 18 19  1  0  0  0  0
 19 20  2  0  0  0  0
 20 21  1  0  0  0  0
 21 22  1  0  0  0  0
 21 23  1  0  0  0  0
  1 24  1  0  0  0  0
 24 25  2  0  0  0  0
 25 26  1  0  0  0  0
 26 27  1  0  0  0  0
 27 28  2  0  0  0  0
 28 29  1  0  0  0  0
 29 30  2  0  0  0  0
 30 31  1  0  0  0  0
 31 32  1  0  0  0  0
 30 33  1  0  0  0  0
 33 34  2  0  0  0  0
 26 35  1  0  0  0  0
 35 36  2  0  0  0  0
 36 37  1  0  0  0  0
 37 38  2  0  0  0  0
 38 39  1  0  0  0  0
 39 40  1  0  0  0  0
 38 41  1  0  0  0  0
 41 42  2  0  0  0  0
 25 43  1  0  0  0  0
 43 44  1  0  0  0  0
 44 45  1  0  0  0  0
 45 46  2  0  0  0  0
 46 47  1  0  0  0  0
 47 48  1  0  0  0  0
 48 49  2  0  0  0  0
 49 50  1  0  0  0  0
 50 51  2  0  0  0  0
 51 52  1  0  0  0  0
 52 53  1  0  0  0  0
 51 54  1  0  0  0  0
 54 55  2  0  0  0  0
 47 56  1  0  0  0  0
 56 57  2  0  0  0  0
 57 58  1  0  0  0  0
 58 59  2  0  0  0  0
 59 60  1  0  0  0  0
 60 61  1  0  0  0  0
 59 62  1  0  0  0  0
 62 63  2  0  0  0  0
 46 64  1  0  0  0  0
 64 65  1  0  0  0  0
 45 66  1  0  0  0  0
 66 67  2  0  0  0  0
 67 68  1  0  0  0  0
 68 69  1  0  0  0  0
 69 70  2  0  0  0  0
 70 71  1  0  0  0  0
 71 72  2  0  0  0  0
 72 73  1  0  0  0  0
 73 74  1  0  0  0  0
 72 75  1  0  0  0  0
 75 76  2  0  0  0  0
 68 77  1  0  0  0  0
 77 78  2  0  0  0  0
 78 79  1  0  0  0  0
 79 80  2  0  0  0  0
 80 81  1  0  0  0  0
 81 82  1  0  0  0  0
 80 83  1  0  0  0  0
 83 84  2  0  0  0  0
 67 85  1  0  0  0  0
 85 86  1  0  0  0  0
 86 87  1  0  0  0  0
 87 88  2  0  0  0  0
 88 89  1  0  0  0  0
 89 90  1  0  0  0  0
 90 91  2  0  0  0  0
 91 92  1  0  0  0  0
 92 93  2  0  0  0  0
 93 94  1  0  0  0  0
 94 95  1  0  0  0  0
 93 96  1  0  0  0  0
 96 97  2  0  0  0  0
 89 98  1  0  0  0  0
 98 99  2  0  0  0  0
 99100  1  0  0  0  0
100101  2  0  0  0  0
101102  1  0  0  0  0
102103  1  0  0  0  0
101104  1  0  0  0  0
104105  2  0  0  0  0
 88106  1  0  0  0  0
106107  1  0  0  0  0
 87108  1  0  0  0  0
108109  2  0  0  0  0
109110  1  0  0  0  0
110111  2  0  0  0  0
111112  1  0  0  0  0
112113  2  0  0  0  0
111114  1  0  0  0  0
114115  2  0  0  0  0
115116  1  0  0  0  0
116117  2  0  0  0  0
116118  1  0  0  0  0
118119  2  0  0  0  0
119120  1  0  0  0  0
120121  1  0  0  0  0
121122  2  0  0  0  0
121123  1  0  0  0  0
123124  1  0  0  0  0
120125  2  0  0  0  0
125126  1  0  0  0  0
126127  2  0  0  0  0
127128  1  0  0  0  0
128129  2  0  0  0  0
129130  1  0  0  0  0
130131  3  0  0  0  0
129132  1  0  0  0  0
132133  3  0  0  0  0
 11  2  1  0  0  0  0
 23 17  1  0  0  0  0
 65 24  1  0  0  0  0
107 66  1  0  0  0  0
113108  1  0  0  0  0
128115  1  0  0  0  0
 10  5  1  0  0  0  0
 22 18  1  0  0  0  0
 34 27  1  0  0  0  0
 42 35  1  0  0  0  0
 64 43  2  0  0  0  0
 76 69  1  0  0  0  0
 84 77  1  0  0  0  0
106 85  2  0  0  0  0
127118  1  0  0  0  0
 23  7  1  0  0  0  0
 55 48  1  0  0  0  0
 63 56  1  0  0  0  0
 97 90  1  0  0  0  0
105 98  1  0  0  0  0
  1134  1  0  0  0  0
  6135  1  0  0  0  0
  9136  1  0  0  0  0
 17137  1  0  0  0  0
 18138  1  0  0  0  0
 19139  1  0  0  0  0
 20140  1  0  0  0  0
 21141  1  0  0  0  0
 22142  1  0  0  0  0
 22143  1  0  0  0  0
 23144  1  0  0  0  0
 28145  1  0  0  0  0
 29146  1  0  0  0  0
 32147  1  0  0  0  0
 32148  1  0  0  0  0
 32149  1  0  0  0  0
 33150  1  0  0  0  0
 34151  1  0  0  0  0
 36152  1  0  0  0  0
 37153  1  0  0  0  0
 40154  1  0  0  0  0
 40155  1  0  0  0  0
 40156  1  0  0  0  0
 41157  1  0  0  0  0
 42158  1  0  0  0  0
 49159  1  0  0  0  0
 50160  1  0  0  0  0
 53161  1  0  0  0  0
 53162  1  0  0  0  0
 53163  1  0  0  0  0
 54164  1  0  0  0  0
 55165  1  0  0  0  0
 57166  1  0  0  0  0
 58167  1  0  0  0  0
 61168  1  0  0  0  0
 61169  1  0  0  0  0
 61170  1  0  0  0  0
 62171  1  0  0  0  0
 63172  1  0  0  0  0
 70173  1  0  0  0  0
 71174  1  0  0  0  0
 74175  1  0  0  0  0
 74176  1  0  0  0  0
 74177  1  0  0  0  0
 75178  1  0  0  0  0
 76179  1  0  0  0  0
 78180  1  0  0  0  0
 79181  1  0  0  0  0
 82182  1  0  0  0  0
 82183  1  0  0  0  0
 82184  1  0  0  0  0
 83185  1  0  0  0  0
 84186  1  0  0  0  0
 91187  1  0  0  0  0
 92188  1  0  0  0  0
 95189  1  0  0  0  0
 95190  1  0  0  0  0
 95191  1  0  0  0  0
 96192  1  0  0  0  0
 97193  1  0  0  0  0
 99194  1  0  0  0  0
100195  1  0  0  0  0
103196  1  0  0  0  0
103197  1  0  0  0  0
103198  1  0  0  0  0
104199  1  0  0  0  0
105200  1  0  0  0  0
109201  1  0  0  0  0
110202  1  0  0  0  0
112203  1  0  0  0  0
113204  1  0  0  0  0
114205  1  0  0  0  0
119206  1  0  0  0  0
124207  1  0  0  0  0
124208  1  0  0  0  0
124209  1  0  0  0  0
125210  1  0  0  0  0
126211  1  0  0  0  0
M  END
