
  xtb     02072221303D
 energy: -353.589360714545 gnorm: 0.000642470951 xtb: 6.4.1 (unknown)
215234  0     0  0            999 V2000
    5.9198   -3.8896   -1.9629 C   0  0  0  0  0  0  0  0  0  0  0  0
    7.1504   -3.4019   -2.3373 C   0  0  0  0  0  0  0  0  0  0  0  0
    7.6255   -2.0205   -2.2195 C   0  0  0  0  0  0  0  0  0  0  0  0
    6.9664   -1.0155   -2.0062 O   0  0  0  0  0  0  0  0  0  0  0  0
    9.0862   -2.0720   -2.4184 C   0  0  0  0  0  0  0  0  0  0  0  0
    9.9848   -1.0115   -2.3462 C   0  0  0  0  0  0  0  0  0  0  0  0
   11.2931   -1.3691   -2.5693 C   0  0  0  0  0  0  0  0  0  0  0  0
   11.6813   -2.6852   -2.8488 C   0  0  0  0  0  0  0  0  0  0  0  0
   10.8035   -3.7411   -2.9290 C   0  0  0  0  0  0  0  0  0  0  0  0
    9.4692   -3.3992   -2.6990 C   0  0  0  0  0  0  0  0  0  0  0  0
    8.2693   -4.2328   -2.7128 C   0  0  0  0  0  0  0  0  0  0  0  0
    8.2303   -5.5659   -3.0448 C   0  0  0  0  0  0  0  0  0  0  0  0
    7.0594   -6.3205   -3.2436 C   0  0  0  0  0  0  0  0  0  0  0  0
    6.1645   -7.0075   -3.4687 N   0  0  0  0  0  0  0  0  0  0  0  0
    9.3605   -6.3753   -3.2678 C   0  0  0  0  0  0  0  0  0  0  0  0
   10.2189   -7.1222   -3.4297 N   0  0  0  0  0  0  0  0  0  0  0  0
   13.1409   -2.3180   -2.9479 C   0  0  0  0  0  0  0  0  0  0  0  0
   14.0550   -2.6671   -1.7473 C   0  0  0  0  0  0  0  0  0  0  0  0
   13.1683   -2.6974   -0.5272 C   0  0  0  0  0  0  0  0  0  0  0  0
   12.8005   -1.4507   -0.2630 C   0  0  0  0  0  0  0  0  0  0  0  0
   13.4317   -0.5550   -1.3001 C   0  0  0  0  0  0  0  0  0  0  0  0
   14.7479   -1.3100   -1.5451 C   0  0  0  0  0  0  0  0  0  0  0  0
   12.7076   -0.8505   -2.6371 C   0  0  0  0  0  0  0  0  0  0  0  0
    4.8047   -3.2334   -1.4418 C   0  0  0  0  0  0  0  0  0  0  0  0
    3.6906   -3.8985   -0.8673 C   0  0  0  0  0  0  0  0  0  0  0  0
    3.6133   -5.2487   -0.6193 N   0  0  0  0  0  0  0  0  0  0  0  0
    4.7571   -5.9827   -0.2517 C   0  0  0  0  0  0  0  0  0  0  0  0
    5.7002   -5.4215    0.6122 C   0  0  0  0  0  0  0  0  0  0  0  0
    6.8800   -6.0800    0.8682 C   0  0  0  0  0  0  0  0  0  0  0  0
    7.1358   -7.3239    0.2893 C   0  0  0  0  0  0  0  0  0  0  0  0
    8.7162   -8.0380    0.6081 S   0  0  0  0  0  0  0  0  0  0  0  0
    8.8487   -9.3534   -0.6345 C   0  0  0  0  0  0  0  0  0  0  0  0
    6.1593   -7.9245   -0.4928 C   0  0  0  0  0  0  0  0  0  0  0  0
    4.9824   -7.2550   -0.7683 C   0  0  0  0  0  0  0  0  0  0  0  0
    2.3869   -5.9119   -0.7633 C   0  0  0  0  0  0  0  0  0  0  0  0
    2.0613   -6.9864    0.0648 C   0  0  0  0  0  0  0  0  0  0  0  0
    0.8959   -7.6883   -0.1377 C   0  0  0  0  0  0  0  0  0  0  0  0
    0.0158   -7.3201   -1.1535 C   0  0  0  0  0  0  0  0  0  0  0  0
   -1.4284   -8.3201   -1.3533 S   0  0  0  0  0  0  0  0  0  0  0  0
   -2.3802   -7.4744   -2.6447 C   0  0  0  0  0  0  0  0  0  0  0  0
    0.3161   -6.2295   -1.9555 C   0  0  0  0  0  0  0  0  0  0  0  0
    1.4966   -5.5389   -1.7664 C   0  0  0  0  0  0  0  0  0  0  0  0
    2.6800   -2.9842   -0.5302 C   0  0  0  0  0  0  0  0  0  0  0  0
    1.1201   -3.1088    0.2327 S   0  0  0  0  0  0  0  0  0  0  0  0
    0.9502   -1.3569    0.2121 C   0  0  0  0  0  0  0  0  0  0  0  0
    2.0111   -0.7424   -0.4487 C   0  0  0  0  0  0  0  0  0  0  0  0
    2.0862    0.6149   -0.7578 N   0  0  0  0  0  0  0  0  0  0  0  0
    1.0039    1.2492   -1.3641 C   0  0  0  0  0  0  0  0  0  0  0  0
    0.7456    2.6020   -1.1266 C   0  0  0  0  0  0  0  0  0  0  0  0
   -0.4001    3.1874   -1.6171 C   0  0  0  0  0  0  0  0  0  0  0  0
   -1.3075    2.4460   -2.3690 C   0  0  0  0  0  0  0  0  0  0  0  0
   -2.8047    3.2479   -2.8706 S   0  0  0  0  0  0  0  0  0  0  0  0
   -3.2831    2.3184   -4.3588 C   0  0  0  0  0  0  0  0  0  0  0  0
   -1.0310    1.1164   -2.6541 C   0  0  0  0  0  0  0  0  0  0  0  0
    0.1127    0.5257   -2.1544 C   0  0  0  0  0  0  0  0  0  0  0  0
    3.3118    1.2479   -0.5190 C   0  0  0  0  0  0  0  0  0  0  0  0
    4.0415    0.9034    0.6181 C   0  0  0  0  0  0  0  0  0  0  0  0
    5.3145    1.3955    0.8030 C   0  0  0  0  0  0  0  0  0  0  0  0
    5.8681    2.2550   -0.1351 C   0  0  0  0  0  0  0  0  0  0  0  0
    7.5415    2.7894    0.0874 S   0  0  0  0  0  0  0  0  0  0  0  0
    8.1720    2.5329   -1.6022 C   0  0  0  0  0  0  0  0  0  0  0  0
    5.1176    2.6609   -1.2295 C   0  0  0  0  0  0  0  0  0  0  0  0
    3.8502    2.1543   -1.4273 C   0  0  0  0  0  0  0  0  0  0  0  0
    3.0040   -1.6653   -0.8271 C   0  0  0  0  0  0  0  0  0  0  0  0
    4.5897   -1.4825   -1.4777 S   0  0  0  0  0  0  0  0  0  0  0  0
   -0.0966   -0.6276    0.8459 C   0  0  0  0  0  0  0  0  0  0  0  0
   -1.4449   -0.8874    1.0416 C   0  0  0  0  0  0  0  0  0  0  0  0
   -2.1359   -2.0419    0.6845 N   0  0  0  0  0  0  0  0  0  0  0  0
   -3.3909   -1.8267    0.0893 C   0  0  0  0  0  0  0  0  0  0  0  0
   -3.5084   -0.8107   -0.8588 C   0  0  0  0  0  0  0  0  0  0  0  0
   -4.7354   -0.4775   -1.3903 C   0  0  0  0  0  0  0  0  0  0  0  0
   -5.8737   -1.1682   -0.9983 C   0  0  0  0  0  0  0  0  0  0  0  0
   -7.4794   -0.8057   -1.6406 S   0  0  0  0  0  0  0  0  0  0  0  0
   -7.3833    0.9789   -1.9716 C   0  0  0  0  0  0  0  0  0  0  0  0
   -5.7563   -2.2125   -0.0860 C   0  0  0  0  0  0  0  0  0  0  0  0
   -4.5324   -2.5346    0.4614 C   0  0  0  0  0  0  0  0  0  0  0  0
   -1.7651   -3.2851    1.1962 C   0  0  0  0  0  0  0  0  0  0  0  0
   -0.9815   -3.3794    2.3485 C   0  0  0  0  0  0  0  0  0  0  0  0
   -0.6394   -4.6116    2.8607 C   0  0  0  0  0  0  0  0  0  0  0  0
   -1.0862   -5.7779    2.2498 C   0  0  0  0  0  0  0  0  0  0  0  0
   -0.6160   -7.3100    2.9912 S   0  0  0  0  0  0  0  0  0  0  0  0
   -1.9013   -8.4584    2.4136 C   0  0  0  0  0  0  0  0  0  0  0  0
   -1.8585   -5.6922    1.0989 C   0  0  0  0  0  0  0  0  0  0  0  0
   -2.1816   -4.4596    0.5714 C   0  0  0  0  0  0  0  0  0  0  0  0
   -2.1103    0.2497    1.5692 C   0  0  0  0  0  0  0  0  0  0  0  0
   -3.7665    0.6228    1.8905 S   0  0  0  0  0  0  0  0  0  0  0  0
   -3.3403    2.2845    2.2749 C   0  0  0  0  0  0  0  0  0  0  0  0
   -1.9820    2.5378    2.1287 C   0  0  0  0  0  0  0  0  0  0  0  0
   -1.3879    3.7857    2.1265 N   0  0  0  0  0  0  0  0  0  0  0  0
   -2.0757    4.8943    1.6124 C   0  0  0  0  0  0  0  0  0  0  0  0
   -1.8475    6.1620    2.1483 C   0  0  0  0  0  0  0  0  0  0  0  0
   -2.5523    7.2496    1.6833 C   0  0  0  0  0  0  0  0  0  0  0  0
   -3.5038    7.0996    0.6738 C   0  0  0  0  0  0  0  0  0  0  0  0
   -4.3974    8.5522    0.2124 S   0  0  0  0  0  0  0  0  0  0  0  0
   -5.5542    7.9638   -1.0551 C   0  0  0  0  0  0  0  0  0  0  0  0
   -3.7027    5.8487    0.1085 C   0  0  0  0  0  0  0  0  0  0  0  0
   -2.9884    4.7604    0.5707 C   0  0  0  0  0  0  0  0  0  0  0  0
   -0.0146    3.8831    2.3835 C   0  0  0  0  0  0  0  0  0  0  0  0
    0.8022    4.6936    1.5918 C   0  0  0  0  0  0  0  0  0  0  0  0
    2.1620    4.7202    1.7963 C   0  0  0  0  0  0  0  0  0  0  0  0
    2.7461    3.9451    2.7978 C   0  0  0  0  0  0  0  0  0  0  0  0
    4.5013    4.0423    2.9301 S   0  0  0  0  0  0  0  0  0  0  0  0
    4.9156    2.7447    4.1284 C   0  0  0  0  0  0  0  0  0  0  0  0
    1.9342    3.1751    3.6186 C   0  0  0  0  0  0  0  0  0  0  0  0
    0.5672    3.1467    3.4124 C   0  0  0  0  0  0  0  0  0  0  0  0
   -1.2959    1.3473    1.7844 C   0  0  0  0  0  0  0  0  0  0  0  0
    0.3519    0.9693    1.4626 S   0  0  0  0  0  0  0  0  0  0  0  0
   -4.4116    3.1646    2.5906 C   0  0  0  0  0  0  0  0  0  0  0  0
   -5.9813    2.8794    1.9135 S   0  0  0  0  0  0  0  0  0  0  0  0
   -6.6553    4.2263    2.7803 C   0  0  0  0  0  0  0  0  0  0  0  0
   -5.6630    4.8746    3.5245 C   0  0  0  0  0  0  0  0  0  0  0  0
   -4.4029    4.2580    3.4436 C   0  0  0  0  0  0  0  0  0  0  0  0
   -3.2891    4.5865    4.1656 O   0  0  0  0  0  0  0  0  0  0  0  0
   -3.5533    5.1224    5.4487 C   0  0  0  0  0  0  0  0  0  0  0  0
   -3.8935    6.6151    5.4323 C   0  0  0  0  0  0  0  0  0  0  0  0
   -4.9159    6.9406    4.3391 C   0  0  0  0  0  0  0  0  0  0  0  0
   -5.9666    5.9914    4.2445 O   0  0  0  0  0  0  0  0  0  0  0  0
   -8.0013    4.6456    2.8197 C   0  0  0  0  0  0  0  0  0  0  0  0
   -9.1398    4.0790    2.3361 C   0  0  0  0  0  0  0  0  0  0  0  0
   -9.1541    2.8621    1.5524 C   0  0  0  0  0  0  0  0  0  0  0  0
   -8.1676    2.3860    1.0079 O   0  0  0  0  0  0  0  0  0  0  0  0
  -10.3824    2.2197    1.3851 N   0  0  0  0  0  0  0  0  0  0  0  0
  -10.4006    1.0651    0.4883 C   0  0  0  0  0  0  0  0  0  0  0  0
   -9.8927   -0.1923    1.1806 C   0  0  0  0  0  0  0  0  0  0  0  0
  -11.5339    2.4846    2.0874 C   0  0  0  0  0  0  0  0  0  0  0  0
  -12.5407    1.8393    1.9367 O   0  0  0  0  0  0  0  0  0  0  0  0
  -11.4228    3.6262    3.0974 C   0  0  0  0  0  0  0  0  0  0  0  0
  -12.7274    4.1679    3.3998 C   0  0  0  0  0  0  0  0  0  0  0  0
  -13.7383    4.6398    3.6432 N   0  0  0  0  0  0  0  0  0  0  0  0
  -10.4741    4.7254    2.5923 C   0  0  0  0  0  0  0  0  0  0  0  0
  -11.0214    5.3926    1.3268 C   0  0  0  0  0  0  0  0  0  0  0  0
    5.8053   -4.9631   -2.0347 H   0  0  0  0  0  0  0  0  0  0  0  0
    9.6486   -0.0104   -2.1282 H   0  0  0  0  0  0  0  0  0  0  0  0
   11.1151   -4.7496   -3.1456 H   0  0  0  0  0  0  0  0  0  0  0  0
   13.6193   -2.5165   -3.9051 H   0  0  0  0  0  0  0  0  0  0  0  0
   14.6895   -3.5358   -1.9013 H   0  0  0  0  0  0  0  0  0  0  0  0
   12.8618   -3.6003   -0.0323 H   0  0  0  0  0  0  0  0  0  0  0  0
   12.1252   -1.1034    0.4969 H   0  0  0  0  0  0  0  0  0  0  0  0
   13.4994    0.4999   -1.0464 H   0  0  0  0  0  0  0  0  0  0  0  0
   15.2895   -0.9638   -2.4244 H   0  0  0  0  0  0  0  0  0  0  0  0
   15.4074   -1.2987   -0.6786 H   0  0  0  0  0  0  0  0  0  0  0  0
   12.9031   -0.0911   -3.3920 H   0  0  0  0  0  0  0  0  0  0  0  0
    5.5134   -4.4529    1.0514 H   0  0  0  0  0  0  0  0  0  0  0  0
    7.6245   -5.6383    1.5126 H   0  0  0  0  0  0  0  0  0  0  0  0
    8.1781  -10.1723   -0.3905 H   0  0  0  0  0  0  0  0  0  0  0  0
    9.8783   -9.6944   -0.5891 H   0  0  0  0  0  0  0  0  0  0  0  0
    8.6400   -8.9481   -1.6202 H   0  0  0  0  0  0  0  0  0  0  0  0
    6.3127   -8.8994   -0.9246 H   0  0  0  0  0  0  0  0  0  0  0  0
    4.2514   -7.7091   -1.4186 H   0  0  0  0  0  0  0  0  0  0  0  0
    2.7307   -7.2723    0.8613 H   0  0  0  0  0  0  0  0  0  0  0  0
    0.6596   -8.5323    0.4908 H   0  0  0  0  0  0  0  0  0  0  0  0
   -2.5885   -6.4528   -2.3401 H   0  0  0  0  0  0  0  0  0  0  0  0
   -3.3084   -8.0304   -2.7356 H   0  0  0  0  0  0  0  0  0  0  0  0
   -1.8394   -7.5055   -3.5861 H   0  0  0  0  0  0  0  0  0  0  0  0
   -0.3442   -5.9184   -2.7485 H   0  0  0  0  0  0  0  0  0  0  0  0
    1.7423   -4.7183   -2.4238 H   0  0  0  0  0  0  0  0  0  0  0  0
    1.4339    3.1743   -0.5241 H   0  0  0  0  0  0  0  0  0  0  0  0
   -0.6163    4.2241   -1.4079 H   0  0  0  0  0  0  0  0  0  0  0  0
   -4.0495    2.9117   -4.8481 H   0  0  0  0  0  0  0  0  0  0  0  0
   -2.4209    2.2144   -5.0102 H   0  0  0  0  0  0  0  0  0  0  0  0
   -3.6873    1.3453   -4.0927 H   0  0  0  0  0  0  0  0  0  0  0  0
   -1.7002    0.5279   -3.2626 H   0  0  0  0  0  0  0  0  0  0  0  0
    0.3099   -0.5142   -2.3698 H   0  0  0  0  0  0  0  0  0  0  0  0
    3.6077    0.2234    1.3374 H   0  0  0  0  0  0  0  0  0  0  0  0
    5.9005    1.1029    1.6603 H   0  0  0  0  0  0  0  0  0  0  0  0
    9.2543    2.4980   -1.5220 H   0  0  0  0  0  0  0  0  0  0  0  0
    7.8815    3.3563   -2.2481 H   0  0  0  0  0  0  0  0  0  0  0  0
    7.7789    1.5901   -1.9724 H   0  0  0  0  0  0  0  0  0  0  0  0
    5.5299    3.3546   -1.9457 H   0  0  0  0  0  0  0  0  0  0  0  0
    3.2826    2.4377   -2.3012 H   0  0  0  0  0  0  0  0  0  0  0  0
   -2.6263   -0.2625   -1.1566 H   0  0  0  0  0  0  0  0  0  0  0  0
   -4.7971    0.3301   -2.1016 H   0  0  0  0  0  0  0  0  0  0  0  0
   -7.1270    1.4986   -1.0525 H   0  0  0  0  0  0  0  0  0  0  0  0
   -8.3751    1.2677   -2.3066 H   0  0  0  0  0  0  0  0  0  0  0  0
   -6.6685    1.1861   -2.7619 H   0  0  0  0  0  0  0  0  0  0  0  0
   -6.6425   -2.7509    0.2126 H   0  0  0  0  0  0  0  0  0  0  0  0
   -4.4636   -3.3138    1.2052 H   0  0  0  0  0  0  0  0  0  0  0  0
   -0.6585   -2.4802    2.8512 H   0  0  0  0  0  0  0  0  0  0  0  0
   -0.0359   -4.6819    3.7525 H   0  0  0  0  0  0  0  0  0  0  0  0
   -1.7933   -9.3510    3.0218 H   0  0  0  0  0  0  0  0  0  0  0  0
   -1.7541   -8.7066    1.3664 H   0  0  0  0  0  0  0  0  0  0  0  0
   -2.8779   -8.0134    2.5770 H   0  0  0  0  0  0  0  0  0  0  0  0
   -2.2101   -6.5839    0.6074 H   0  0  0  0  0  0  0  0  0  0  0  0
   -2.7695   -4.3996   -0.3326 H   0  0  0  0  0  0  0  0  0  0  0  0
   -1.1267    6.2797    2.9429 H   0  0  0  0  0  0  0  0  0  0  0  0
   -2.3838    8.2307    2.1024 H   0  0  0  0  0  0  0  0  0  0  0  0
   -6.2007    7.1964   -0.6388 H   0  0  0  0  0  0  0  0  0  0  0  0
   -5.0049    7.5933   -1.9157 H   0  0  0  0  0  0  0  0  0  0  0  0
   -6.1428    8.8309   -1.3382 H   0  0  0  0  0  0  0  0  0  0  0  0
   -4.4011    5.6983   -0.6978 H   0  0  0  0  0  0  0  0  0  0  0  0
   -3.1433    3.8001    0.1036 H   0  0  0  0  0  0  0  0  0  0  0  0
    0.3632    5.2859    0.8033 H   0  0  0  0  0  0  0  0  0  0  0  0
    2.7972    5.3293    1.1712 H   0  0  0  0  0  0  0  0  0  0  0  0
    5.9996    2.6867    4.1289 H   0  0  0  0  0  0  0  0  0  0  0  0
    4.5612    3.0186    5.1181 H   0  0  0  0  0  0  0  0  0  0  0  0
    4.4912    1.8002    3.8023 H   0  0  0  0  0  0  0  0  0  0  0  0
    2.3506    2.5913    4.4234 H   0  0  0  0  0  0  0  0  0  0  0  0
   -0.0606    2.5492    4.0569 H   0  0  0  0  0  0  0  0  0  0  0  0
   -2.6402    4.9533    6.0250 H   0  0  0  0  0  0  0  0  0  0  0  0
   -4.3726    4.5619    5.9180 H   0  0  0  0  0  0  0  0  0  0  0  0
   -4.2848    6.8817    6.4146 H   0  0  0  0  0  0  0  0  0  0  0  0
   -2.9971    7.2045    5.2393 H   0  0  0  0  0  0  0  0  0  0  0  0
   -4.4079    7.0153    3.3703 H   0  0  0  0  0  0  0  0  0  0  0  0
   -5.4070    7.8929    4.5532 H   0  0  0  0  0  0  0  0  0  0  0  0
   -8.1212    5.5593    3.3938 H   0  0  0  0  0  0  0  0  0  0  0  0
   -9.7634    1.3035   -0.3633 H   0  0  0  0  0  0  0  0  0  0  0  0
  -11.4319    0.9303    0.1589 H   0  0  0  0  0  0  0  0  0  0  0  0
   -8.8702   -0.0458    1.5202 H   0  0  0  0  0  0  0  0  0  0  0  0
   -9.9079   -1.0198    0.4773 H   0  0  0  0  0  0  0  0  0  0  0  0
  -10.5249   -0.4385    2.0307 H   0  0  0  0  0  0  0  0  0  0  0  0
  -11.0198    3.1915    4.0238 H   0  0  0  0  0  0  0  0  0  0  0  0
  -10.3704    5.4895    3.3700 H   0  0  0  0  0  0  0  0  0  0  0  0
  -11.1422    4.6696    0.5225 H   0  0  0  0  0  0  0  0  0  0  0  0
  -11.9886    5.8476    1.5294 H   0  0  0  0  0  0  0  0  0  0  0  0
  -10.3344    6.1670    0.9930 H   0  0  0  0  0  0  0  0  0  0  0  0
  1  2  2  0  0  0  0
  2  3  1  0  0  0  0
  3  4  2  0  0  0  0
  3  5  1  0  0  0  0
  5  6  2  0  0  0  0
  6  7  1  0  0  0  0
  7  8  2  0  0  0  0
  8  9  1  0  0  0  0
  9 10  2  0  0  0  0
 10 11  1  0  0  0  0
 11 12  2  0  0  0  0
 12 13  1  0  0  0  0
 13 14  3  0  0  0  0
 12 15  1  0  0  0  0
 15 16  3  0  0  0  0
  8 17  1  0  0  0  0
 17 18  1  0  0  0  0
 18 19  1  0  0  0  0
 19 20  2  0  0  0  0
 20 21  1  0  0  0  0
 21 22  1  0  0  0  0
 21 23  1  0  0  0  0
  1 24  1  0  0  0  0
 24 25  2  0  0  0  0
 25 26  1  0  0  0  0
 26 27  1  0  0  0  0
 27 28  2  0  0  0  0
 28 29  1  0  0  0  0
 29 30  2  0  0  0  0
 30 31  1  0  0  0  0
 31 32  1  0  0  0  0
 30 33  1  0  0  0  0
 33 34  2  0  0  0  0
 26 35  1  0  0  0  0
 35 36  2  0  0  0  0
 36 37  1  0  0  0  0
 37 38  2  0  0  0  0
 38 39  1  0  0  0  0
 39 40  1  0  0  0  0
 38 41  1  0  0  0  0
 41 42  2  0  0  0  0
 25 43  1  0  0  0  0
 43 44  1  0  0  0  0
 44 45  1  0  0  0  0
 45 46  2  0  0  0  0
 46 47  1  0  0  0  0
 47 48  1  0  0  0  0
 48 49  2  0  0  0  0
 49 50  1  0  0  0  0
 50 51  2  0  0  0  0
 51 52  1  0  0  0  0
 52 53  1  0  0  0  0
 51 54  1  0  0  0  0
 54 55  2  0  0  0  0
 47 56  1  0  0  0  0
 56 57  2  0  0  0  0
 57 58  1  0  0  0  0
 58 59  2  0  0  0  0
 59 60  1  0  0  0  0
 60 61  1  0  0  0  0
 59 62  1  0  0  0  0
 62 63  2  0  0  0  0
 46 64  1  0  0  0  0
 64 65  1  0  0  0  0
 45 66  1  0  0  0  0
 66 67  2  0  0  0  0
 67 68  1  0  0  0  0
 68 69  1  0  0  0  0
 69 70  2  0  0  0  0
 70 71  1  0  0  0  0
 71 72  2  0  0  0  0
 72 73  1  0  0  0  0
 73 74  1  0  0  0  0
 72 75  1  0  0  0  0
 75 76  2  0  0  0  0
 68 77  1  0  0  0  0
 77 78  2  0  0  0  0
 78 79  1  0  0  0  0
 79 80  2  0  0  0  0
 80 81  1  0  0  0  0
 81 82  1  0  0  0  0
 80 83  1  0  0  0  0
 83 84  2  0  0  0  0
 67 85  1  0  0  0  0
 85 86  1  0  0  0  0
 86 87  1  0  0  0  0
 87 88  2  0  0  0  0
 88 89  1  0  0  0  0
 89 90  1  0  0  0  0
 90 91  2  0  0  0  0
 91 92  1  0  0  0  0
 92 93  2  0  0  0  0
 93 94  1  0  0  0  0
 94 95  1  0  0  0  0
 93 96  1  0  0  0  0
 96 97  2  0  0  0  0
 89 98  1  0  0  0  0
 98 99  2  0  0  0  0
 99100  1  0  0  0  0
100101  2  0  0  0  0
101102  1  0  0  0  0
102103  1  0  0  0  0
101104  1  0  0  0  0
104105  2  0  0  0  0
 88106  1  0  0  0  0
106107  1  0  0  0  0
 87108  1  0  0  0  0
108109  1  0  0  0  0
109110  1  0  0  0  0
110111  2  0  0  0  0
111112  1  0  0  0  0
112113  1  0  0  0  0
113114  1  0  0  0  0
114115  1  0  0  0  0
115116  1  0  0  0  0
116117  1  0  0  0  0
110118  1  0  0  0  0
118119  2  0  0  0  0
119120  1  0  0  0  0
120121  2  0  0  0  0
120122  1  0  0  0  0
122123  1  0  0  0  0
123124  1  0  0  0  0
122125  1  0  0  0  0
125126  2  0  0  0  0
125127  1  0  0  0  0
127128  1  0  0  0  0
128129  3  0  0  0  0
127130  1  0  0  0  0
130131  1  0  0  0  0
 11  2  1  0  0  0  0
 23 17  1  0  0  0  0
 65 24  1  0  0  0  0
107 66  1  0  0  0  0
112108  2  0  0  0  0
130119  1  0  0  0  0
 10  5  1  0  0  0  0
 22 18  1  0  0  0  0
 34 27  1  0  0  0  0
 42 35  1  0  0  0  0
 64 43  2  0  0  0  0
 76 69  1  0  0  0  0
 84 77  1  0  0  0  0
106 85  2  0  0  0  0
117111  1  0  0  0  0
 23  7  1  0  0  0  0
 55 48  1  0  0  0  0
 63 56  1  0  0  0  0
 97 90  1  0  0  0  0
105 98  1  0  0  0  0
  1132  1  0  0  0  0
  6133  1  0  0  0  0
  9134  1  0  0  0  0
 17135  1  0  0  0  0
 18136  1  0  0  0  0
 19137  1  0  0  0  0
 20138  1  0  0  0  0
 21139  1  0  0  0  0
 22140  1  0  0  0  0
 22141  1  0  0  0  0
 23142  1  0  0  0  0
 28143  1  0  0  0  0
 29144  1  0  0  0  0
 32145  1  0  0  0  0
 32146  1  0  0  0  0
 32147  1  0  0  0  0
 33148  1  0  0  0  0
 34149  1  0  0  0  0
 36150  1  0  0  0  0
 37151  1  0  0  0  0
 40152  1  0  0  0  0
 40153  1  0  0  0  0
 40154  1  0  0  0  0
 41155  1  0  0  0  0
 42156  1  0  0  0  0
 49157  1  0  0  0  0
 50158  1  0  0  0  0
 53159  1  0  0  0  0
 53160  1  0  0  0  0
 53161  1  0  0  0  0
 54162  1  0  0  0  0
 55163  1  0  0  0  0
 57164  1  0  0  0  0
 58165  1  0  0  0  0
 61166  1  0  0  0  0
 61167  1  0  0  0  0
 61168  1  0  0  0  0
 62169  1  0  0  0  0
 63170  1  0  0  0  0
 70171  1  0  0  0  0
 71172  1  0  0  0  0
 74173  1  0  0  0  0
 74174  1  0  0  0  0
 74175  1  0  0  0  0
 75176  1  0  0  0  0
 76177  1  0  0  0  0
 78178  1  0  0  0  0
 79179  1  0  0  0  0
 82180  1  0  0  0  0
 82181  1  0  0  0  0
 82182  1  0  0  0  0
 83183  1  0  0  0  0
 84184  1  0  0  0  0
 91185  1  0  0  0  0
 92186  1  0  0  0  0
 95187  1  0  0  0  0
 95188  1  0  0  0  0
 95189  1  0  0  0  0
 96190  1  0  0  0  0
 97191  1  0  0  0  0
 99192  1  0  0  0  0
100193  1  0  0  0  0
103194  1  0  0  0  0
103195  1  0  0  0  0
103196  1  0  0  0  0
104197  1  0  0  0  0
105198  1  0  0  0  0
114199  1  0  0  0  0
114200  1  0  0  0  0
115201  1  0  0  0  0
115202  1  0  0  0  0
116203  1  0  0  0  0
116204  1  0  0  0  0
118205  1  0  0  0  0
123206  1  0  0  0  0
123207  1  0  0  0  0
124208  1  0  0  0  0
124209  1  0  0  0  0
124210  1  0  0  0  0
127211  1  0  0  0  0
130212  1  0  0  0  0
131213  1  0  0  0  0
131214  1  0  0  0  0
131215  1  0  0  0  0
M  END
