
  xtb     02062212183D
 energy: -322.077688939616 gnorm: 0.000473811486 xtb: 6.4.1 (unknown)
188207  0     0  0            999 V2000
   -6.5845    3.6456   -1.3250 C   0  0  0  0  0  0  0  0  0  0  0  0
   -7.1726    4.8386   -1.5500 C   0  0  0  0  0  0  0  0  0  0  0  0
   -6.5026    6.0872   -2.0142 C   0  0  0  0  0  0  0  0  0  0  0  0
   -5.4006    6.1862   -2.5013 O   0  0  0  0  0  0  0  0  0  0  0  0
   -7.5142    7.1501   -1.8632 C   0  0  0  0  0  0  0  0  0  0  0  0
   -7.3249    8.5179   -2.0505 C   0  0  0  0  0  0  0  0  0  0  0  0
   -8.4466    9.2760   -1.8163 C   0  0  0  0  0  0  0  0  0  0  0  0
   -9.6718    8.7169   -1.4243 C   0  0  0  0  0  0  0  0  0  0  0  0
   -9.8767    7.3709   -1.2450 C   0  0  0  0  0  0  0  0  0  0  0  0
   -8.7475    6.5784   -1.4832 C   0  0  0  0  0  0  0  0  0  0  0  0
   -8.5910    5.1322   -1.3951 C   0  0  0  0  0  0  0  0  0  0  0  0
   -9.5974    4.2188   -1.2341 C   0  0  0  0  0  0  0  0  0  0  0  0
   -9.4450    2.8165   -1.2280 C   0  0  0  0  0  0  0  0  0  0  0  0
   -9.4354    1.6671   -1.2306 N   0  0  0  0  0  0  0  0  0  0  0  0
  -10.9628    4.5548   -1.1068 C   0  0  0  0  0  0  0  0  0  0  0  0
  -12.0882    4.7528   -0.9979 N   0  0  0  0  0  0  0  0  0  0  0  0
  -10.3543   10.0602   -1.3562 C   0  0  0  0  0  0  0  0  0  0  0  0
  -11.2892   10.4193   -2.5305 C   0  0  0  0  0  0  0  0  0  0  0  0
  -11.4200   11.9227   -2.4414 C   0  0  0  0  0  0  0  0  0  0  0  0
  -10.2617   12.4514   -2.8149 C   0  0  0  0  0  0  0  0  0  0  0  0
   -9.3283   11.3143   -3.1630 C   0  0  0  0  0  0  0  0  0  0  0  0
  -10.3383   10.3079   -3.7293 C   0  0  0  0  0  0  0  0  0  0  0  0
   -8.9902   10.6827   -1.7955 C   0  0  0  0  0  0  0  0  0  0  0  0
   -5.1794    3.3384   -1.2857 C   0  0  0  0  0  0  0  0  0  0  0  0
   -4.1983    4.1406   -0.7312 C   0  0  0  0  0  0  0  0  0  0  0  0
   -4.5079    5.3237   -0.1891 F   0  0  0  0  0  0  0  0  0  0  0  0
   -2.8855    3.6823   -0.5580 C   0  0  0  0  0  0  0  0  0  0  0  0
   -2.0215    4.4934    0.0756 F   0  0  0  0  0  0  0  0  0  0  0  0
   -2.4977    2.3956   -0.8845 C   0  0  0  0  0  0  0  0  0  0  0  0
   -3.4630    1.5742   -1.5380 C   0  0  0  0  0  0  0  0  0  0  0  0
   -3.1186    0.3480   -1.9656 N   0  0  0  0  0  0  0  0  0  0  0  0
   -4.0276   -0.4151   -2.5232 C   0  0  0  0  0  0  0  0  0  0  0  0
   -3.5661   -1.7642   -2.9854 C   0  0  0  0  0  0  0  0  0  0  0  0
   -3.1103   -1.7027   -4.4453 C   0  0  0  0  0  0  0  0  0  0  0  0
   -5.3607    0.0517   -2.7003 C   0  0  0  0  0  0  0  0  0  0  0  0
   -5.7008    1.2533   -2.3037 N   0  0  0  0  0  0  0  0  0  0  0  0
   -4.7846    2.0393   -1.7184 C   0  0  0  0  0  0  0  0  0  0  0  0
   -6.4614   -0.7625   -3.3094 C   0  0  0  0  0  0  0  0  0  0  0  0
   -7.3407   -1.3609   -2.2086 C   0  0  0  0  0  0  0  0  0  0  0  0
   -1.2298    1.8364   -0.4818 C   0  0  0  0  0  0  0  0  0  0  0  0
   -1.0493    0.6170    0.1556 C   0  0  0  0  0  0  0  0  0  0  0  0
   -2.0494   -0.2212    0.6155 N   0  0  0  0  0  0  0  0  0  0  0  0
   -3.2994    0.2748    1.0058 C   0  0  0  0  0  0  0  0  0  0  0  0
   -3.4153    1.5036    1.6583 C   0  0  0  0  0  0  0  0  0  0  0  0
   -4.6566    2.0313    1.9324 C   0  0  0  0  0  0  0  0  0  0  0  0
   -5.8136    1.3407    1.5773 C   0  0  0  0  0  0  0  0  0  0  0  0
   -7.3484    2.1552    1.8915 S   0  0  0  0  0  0  0  0  0  0  0  0
   -8.5782    0.8264    1.7540 C   0  0  0  0  0  0  0  0  0  0  0  0
   -5.7046    0.0866    0.9921 C   0  0  0  0  0  0  0  0  0  0  0  0
   -4.4582   -0.4416    0.7169 C   0  0  0  0  0  0  0  0  0  0  0  0
   -1.7497   -1.5812    0.7646 C   0  0  0  0  0  0  0  0  0  0  0  0
   -1.0032   -2.2435   -0.2080 C   0  0  0  0  0  0  0  0  0  0  0  0
   -0.5485   -3.5288    0.0089 C   0  0  0  0  0  0  0  0  0  0  0  0
   -0.8327   -4.1664    1.2073 C   0  0  0  0  0  0  0  0  0  0  0  0
   -0.1380   -5.7403    1.6306 S   0  0  0  0  0  0  0  0  0  0  0  0
    1.4574   -5.6945    0.7583 C   0  0  0  0  0  0  0  0  0  0  0  0
   -1.6689   -3.5517    2.1349 C   0  0  0  0  0  0  0  0  0  0  0  0
   -2.1283   -2.2717    1.9158 C   0  0  0  0  0  0  0  0  0  0  0  0
    0.3278    0.3626    0.3670 C   0  0  0  0  0  0  0  0  0  0  0  0
    1.1961   -0.9181    1.1498 S   0  0  0  0  0  0  0  0  0  0  0  0
    2.7101   -0.1547    0.7184 C   0  0  0  0  0  0  0  0  0  0  0  0
    2.5388    1.1346    0.1969 C   0  0  0  0  0  0  0  0  0  0  0  0
    3.5384    2.0711    0.0977 N   0  0  0  0  0  0  0  0  0  0  0  0
    3.4720    3.0797   -0.8694 C   0  0  0  0  0  0  0  0  0  0  0  0
    2.9725    2.8067   -2.1398 C   0  0  0  0  0  0  0  0  0  0  0  0
    2.8899    3.8028   -3.0925 C   0  0  0  0  0  0  0  0  0  0  0  0
    3.3133    5.0900   -2.7901 C   0  0  0  0  0  0  0  0  0  0  0  0
    3.2616    6.4398   -3.9226 S   0  0  0  0  0  0  0  0  0  0  0  0
    2.2963    5.7978   -5.3197 C   0  0  0  0  0  0  0  0  0  0  0  0
    3.8346    5.3609   -1.5249 C   0  0  0  0  0  0  0  0  0  0  0  0
    3.9122    4.3706   -0.5736 C   0  0  0  0  0  0  0  0  0  0  0  0
    4.6292    2.0130    0.9869 C   0  0  0  0  0  0  0  0  0  0  0  0
    5.9249    2.2459    0.5347 C   0  0  0  0  0  0  0  0  0  0  0  0
    7.0084    2.0192    1.3605 C   0  0  0  0  0  0  0  0  0  0  0  0
    6.8133    1.5516    2.6544 C   0  0  0  0  0  0  0  0  0  0  0  0
    8.1234    1.0806    3.7325 S   0  0  0  0  0  0  0  0  0  0  0  0
    9.5193    0.8298    2.5993 C   0  0  0  0  0  0  0  0  0  0  0  0
    5.5125    1.4229    3.1425 C   0  0  0  0  0  0  0  0  0  0  0  0
    4.4336    1.6580    2.3226 C   0  0  0  0  0  0  0  0  0  0  0  0
    1.1653    1.3864   -0.0501 C   0  0  0  0  0  0  0  0  0  0  0  0
    0.2711    2.7108   -0.7149 S   0  0  0  0  0  0  0  0  0  0  0  0
    3.9073   -0.8962    0.9163 C   0  0  0  0  0  0  0  0  0  0  0  0
    5.0757   -0.7247    0.1757 C   0  0  0  0  0  0  0  0  0  0  0  0
    5.0688    0.0589   -0.9224 F   0  0  0  0  0  0  0  0  0  0  0  0
    6.2385   -1.4223    0.4778 C   0  0  0  0  0  0  0  0  0  0  0  0
    7.3379   -1.1733   -0.2587 F   0  0  0  0  0  0  0  0  0  0  0  0
    6.2970   -2.4158    1.4484 C   0  0  0  0  0  0  0  0  0  0  0  0
    5.0991   -2.6788    2.1718 C   0  0  0  0  0  0  0  0  0  0  0  0
    5.0822   -3.5857    3.1605 N   0  0  0  0  0  0  0  0  0  0  0  0
    3.9577   -3.8488    3.7753 C   0  0  0  0  0  0  0  0  0  0  0  0
    4.0378   -4.7070    4.8194 O   0  0  0  0  0  0  0  0  0  0  0  0
    3.3430   -5.9463    4.7122 C   0  0  0  0  0  0  0  0  0  0  0  0
    4.0400   -6.8939    3.7450 C   0  0  0  0  0  0  0  0  0  0  0  0
    2.7461   -3.1676    3.4333 C   0  0  0  0  0  0  0  0  0  0  0  0
    2.7882   -2.2253    2.5269 N   0  0  0  0  0  0  0  0  0  0  0  0
    3.9272   -1.9464    1.8813 C   0  0  0  0  0  0  0  0  0  0  0  0
    1.4390   -3.3913    4.1148 C   0  0  0  0  0  0  0  0  0  0  0  0
    7.5141   -3.1314    1.7024 C   0  0  0  0  0  0  0  0  0  0  0  0
    7.5858   -4.4689    1.9183 C   0  0  0  0  0  0  0  0  0  0  0  0
    6.5213   -5.4420    1.5595 C   0  0  0  0  0  0  0  0  0  0  0  0
    5.4305   -5.2189    1.0738 O   0  0  0  0  0  0  0  0  0  0  0  0
    7.1092   -6.7749    1.7871 C   0  0  0  0  0  0  0  0  0  0  0  0
    6.4955   -8.0061    1.5633 C   0  0  0  0  0  0  0  0  0  0  0  0
    7.2883   -9.0904    1.8485 C   0  0  0  0  0  0  0  0  0  0  0  0
    8.6047   -8.9635    2.3130 C   0  0  0  0  0  0  0  0  0  0  0  0
    9.2267   -7.7575    2.5285 C   0  0  0  0  0  0  0  0  0  0  0  0
    8.4344   -6.6394    2.2480 C   0  0  0  0  0  0  0  0  0  0  0  0
    8.7543   -5.2192    2.3428 C   0  0  0  0  0  0  0  0  0  0  0  0
    9.9317   -4.6915    2.8031 C   0  0  0  0  0  0  0  0  0  0  0  0
   10.2155   -3.3158    2.9303 C   0  0  0  0  0  0  0  0  0  0  0  0
   10.5371   -2.2224    3.0727 N   0  0  0  0  0  0  0  0  0  0  0  0
   11.0418   -5.4543    3.2237 C   0  0  0  0  0  0  0  0  0  0  0  0
   11.9854   -6.0078    3.5722 N   0  0  0  0  0  0  0  0  0  0  0  0
    8.8133  -10.4560    2.3682 C   0  0  0  0  0  0  0  0  0  0  0  0
    9.6379  -11.1107    1.2322 C   0  0  0  0  0  0  0  0  0  0  0  0
    9.4838  -10.2229    0.0222 C   0  0  0  0  0  0  0  0  0  0  0  0
    8.2369  -10.3445   -0.4133 C   0  0  0  0  0  0  0  0  0  0  0  0
    7.5250  -11.3166    0.4949 C   0  0  0  0  0  0  0  0  0  0  0  0
    8.6879  -12.2569    0.8495 C   0  0  0  0  0  0  0  0  0  0  0  0
    7.3455  -10.5974    1.8548 C   0  0  0  0  0  0  0  0  0  0  0  0
   -7.2064    2.7789   -1.1481 H   0  0  0  0  0  0  0  0  0  0  0  0
   -6.3622    8.9076   -2.3414 H   0  0  0  0  0  0  0  0  0  0  0  0
  -10.8213    6.9555   -0.9354 H   0  0  0  0  0  0  0  0  0  0  0  0
  -10.7641   10.3345   -0.3861 H   0  0  0  0  0  0  0  0  0  0  0  0
  -12.2127    9.8483   -2.5677 H   0  0  0  0  0  0  0  0  0  0  0  0
  -12.2940   12.4281   -2.0746 H   0  0  0  0  0  0  0  0  0  0  0  0
   -9.9749   13.4866   -2.8222 H   0  0  0  0  0  0  0  0  0  0  0  0
   -8.4661   11.5594   -3.7771 H   0  0  0  0  0  0  0  0  0  0  0  0
  -10.7967   10.6602   -4.6518 H   0  0  0  0  0  0  0  0  0  0  0  0
   -9.9323    9.3098   -3.8827 H   0  0  0  0  0  0  0  0  0  0  0  0
   -8.4904   11.3741   -1.1197 H   0  0  0  0  0  0  0  0  0  0  0  0
   -2.7250   -2.0669   -2.3609 H   0  0  0  0  0  0  0  0  0  0  0  0
   -4.3646   -2.4983   -2.8733 H   0  0  0  0  0  0  0  0  0  0  0  0
   -2.7673   -2.6813   -4.7719 H   0  0  0  0  0  0  0  0  0  0  0  0
   -3.9230   -1.3846   -5.0949 H   0  0  0  0  0  0  0  0  0  0  0  0
   -2.2927   -0.9937   -4.5482 H   0  0  0  0  0  0  0  0  0  0  0  0
   -7.0754   -0.0970   -3.9176 H   0  0  0  0  0  0  0  0  0  0  0  0
   -6.0618   -1.5526   -3.9434 H   0  0  0  0  0  0  0  0  0  0  0  0
   -8.1249   -1.9716   -2.6484 H   0  0  0  0  0  0  0  0  0  0  0  0
   -6.7506   -1.9822   -1.5370 H   0  0  0  0  0  0  0  0  0  0  0  0
   -7.8042   -0.5601   -1.6391 H   0  0  0  0  0  0  0  0  0  0  0  0
   -2.5255    2.0424    1.9470 H   0  0  0  0  0  0  0  0  0  0  0  0
   -4.7463    2.9877    2.4246 H   0  0  0  0  0  0  0  0  0  0  0  0
   -9.4953    1.2338    2.1684 H   0  0  0  0  0  0  0  0  0  0  0  0
   -8.2550   -0.0290    2.3389 H   0  0  0  0  0  0  0  0  0  0  0  0
   -8.7375    0.5683    0.7105 H   0  0  0  0  0  0  0  0  0  0  0  0
   -6.5832   -0.4777    0.7256 H   0  0  0  0  0  0  0  0  0  0  0  0
   -4.3771   -1.4101    0.2449 H   0  0  0  0  0  0  0  0  0  0  0  0
   -0.7506   -1.7268   -1.1217 H   0  0  0  0  0  0  0  0  0  0  0  0
    0.0458   -4.0146   -0.7485 H   0  0  0  0  0  0  0  0  0  0  0  0
    1.3210   -5.9217   -0.2948 H   0  0  0  0  0  0  0  0  0  0  0  0
    2.0748   -6.4602    1.2169 H   0  0  0  0  0  0  0  0  0  0  0  0
    1.9136   -4.7179    0.8903 H   0  0  0  0  0  0  0  0  0  0  0  0
   -1.9226   -4.0735    3.0449 H   0  0  0  0  0  0  0  0  0  0  0  0
   -2.7414   -1.7797    2.6560 H   0  0  0  0  0  0  0  0  0  0  0  0
    2.6684    1.8012   -2.3880 H   0  0  0  0  0  0  0  0  0  0  0  0
    2.5044    3.5572   -4.0685 H   0  0  0  0  0  0  0  0  0  0  0  0
    2.1481    6.6426   -5.9852 H   0  0  0  0  0  0  0  0  0  0  0  0
    1.3370    5.4334   -4.9647 H   0  0  0  0  0  0  0  0  0  0  0  0
    2.8516    5.0190   -5.8346 H   0  0  0  0  0  0  0  0  0  0  0  0
    4.1673    6.3622   -1.2989 H   0  0  0  0  0  0  0  0  0  0  0  0
    4.3037    4.5894    0.4085 H   0  0  0  0  0  0  0  0  0  0  0  0
    6.0842    2.5601   -0.4857 H   0  0  0  0  0  0  0  0  0  0  0  0
    8.0012    2.1858    0.9755 H   0  0  0  0  0  0  0  0  0  0  0  0
   10.2349    0.2196    3.1410 H   0  0  0  0  0  0  0  0  0  0  0  0
    9.1774    0.2934    1.7197 H   0  0  0  0  0  0  0  0  0  0  0  0
    9.9645    1.7836    2.3306 H   0  0  0  0  0  0  0  0  0  0  0  0
    5.3641    1.1174    4.1666 H   0  0  0  0  0  0  0  0  0  0  0  0
    3.4315    1.5350    2.7052 H   0  0  0  0  0  0  0  0  0  0  0  0
    3.3531   -6.3511    5.7268 H   0  0  0  0  0  0  0  0  0  0  0  0
    2.3058   -5.7933    4.3986 H   0  0  0  0  0  0  0  0  0  0  0  0
    4.1001   -6.4381    2.7590 H   0  0  0  0  0  0  0  0  0  0  0  0
    3.4838   -7.8253    3.6787 H   0  0  0  0  0  0  0  0  0  0  0  0
    5.0506   -7.1046    4.0860 H   0  0  0  0  0  0  0  0  0  0  0  0
    0.8209   -2.5073    3.9802 H   0  0  0  0  0  0  0  0  0  0  0  0
    0.9106   -4.2352    3.6700 H   0  0  0  0  0  0  0  0  0  0  0  0
    1.5886   -3.5887    5.1741 H   0  0  0  0  0  0  0  0  0  0  0  0
    8.4219   -2.5413    1.6875 H   0  0  0  0  0  0  0  0  0  0  0  0
    5.4826   -8.0636    1.1968 H   0  0  0  0  0  0  0  0  0  0  0  0
   10.2427   -7.6765    2.8770 H   0  0  0  0  0  0  0  0  0  0  0  0
    9.0545  -10.8685    3.3458 H   0  0  0  0  0  0  0  0  0  0  0  0
   10.6555  -11.3737    1.5076 H   0  0  0  0  0  0  0  0  0  0  0  0
   10.2566   -9.5746   -0.3470 H   0  0  0  0  0  0  0  0  0  0  0  0
    7.7598   -9.8176   -1.2188 H   0  0  0  0  0  0  0  0  0  0  0  0
    6.6188  -11.7682    0.0995 H   0  0  0  0  0  0  0  0  0  0  0  0
    8.4651  -12.9303    1.6761 H   0  0  0  0  0  0  0  0  0  0  0  0
    9.0421  -12.8295   -0.0062 H   0  0  0  0  0  0  0  0  0  0  0  0
    6.6267  -11.1002    2.4992 H   0  0  0  0  0  0  0  0  0  0  0  0
  1  2  2  0  0  0  0
  2  3  1  0  0  0  0
  3  4  2  0  0  0  0
  3  5  1  0  0  0  0
  5  6  2  0  0  0  0
  6  7  1  0  0  0  0
  7  8  2  0  0  0  0
  8  9  1  0  0  0  0
  9 10  2  0  0  0  0
 10 11  1  0  0  0  0
 11 12  2  0  0  0  0
 12 13  1  0  0  0  0
 13 14  3  0  0  0  0
 12 15  1  0  0  0  0
 15 16  3  0  0  0  0
  8 17  1  0  0  0  0
 17 18  1  0  0  0  0
 18 19  1  0  0  0  0
 19 20  2  0  0  0  0
 20 21  1  0  0  0  0
 21 22  1  0  0  0  0
 21 23  1  0  0  0  0
  1 24  1  0  0  0  0
 24 25  2  0  0  0  0
 25 26  1  0  0  0  0
 25 27  1  0  0  0  0
 27 28  1  0  0  0  0
 27 29  2  0  0  0  0
 29 30  1  0  0  0  0
 30 31  2  0  0  0  0
 31 32  1  0  0  0  0
 32 33  1  0  0  0  0
 33 34  1  0  0  0  0
 32 35  2  0  0  0  0
 35 36  1  0  0  0  0
 36 37  2  0  0  0  0
 35 38  1  0  0  0  0
 38 39  1  0  0  0  0
 29 40  1  0  0  0  0
 40 41  2  0  0  0  0
 41 42  1  0  0  0  0
 42 43  1  0  0  0  0
 43 44  2  0  0  0  0
 44 45  1  0  0  0  0
 45 46  2  0  0  0  0
 46 47  1  0  0  0  0
 47 48  1  0  0  0  0
 46 49  1  0  0  0  0
 49 50  2  0  0  0  0
 42 51  1  0  0  0  0
 51 52  2  0  0  0  0
 52 53  1  0  0  0  0
 53 54  2  0  0  0  0
 54 55  1  0  0  0  0
 55 56  1  0  0  0  0
 54 57  1  0  0  0  0
 57 58  2  0  0  0  0
 41 59  1  0  0  0  0
 59 60  1  0  0  0  0
 60 61  1  0  0  0  0
 61 62  2  0  0  0  0
 62 63  1  0  0  0  0
 63 64  1  0  0  0  0
 64 65  2  0  0  0  0
 65 66  1  0  0  0  0
 66 67  2  0  0  0  0
 67 68  1  0  0  0  0
 68 69  1  0  0  0  0
 67 70  1  0  0  0  0
 70 71  2  0  0  0  0
 63 72  1  0  0  0  0
 72 73  2  0  0  0  0
 73 74  1  0  0  0  0
 74 75  2  0  0  0  0
 75 76  1  0  0  0  0
 76 77  1  0  0  0  0
 75 78  1  0  0  0  0
 78 79  2  0  0  0  0
 62 80  1  0  0  0  0
 80 81  1  0  0  0  0
 61 82  1  0  0  0  0
 82 83  2  0  0  0  0
 83 84  1  0  0  0  0
 83 85  1  0  0  0  0
 85 86  1  0  0  0  0
 85 87  2  0  0  0  0
 87 88  1  0  0  0  0
 88 89  2  0  0  0  0
 89 90  1  0  0  0  0
 90 91  1  0  0  0  0
 91 92  1  0  0  0  0
 92 93  1  0  0  0  0
 90 94  2  0  0  0  0
 94 95  1  0  0  0  0
 95 96  2  0  0  0  0
 94 97  1  0  0  0  0
 87 98  1  0  0  0  0
 98 99  2  0  0  0  0
 99100  1  0  0  0  0
100101  2  0  0  0  0
100102  1  0  0  0  0
102103  2  0  0  0  0
103104  1  0  0  0  0
104105  2  0  0  0  0
105106  1  0  0  0  0
106107  2  0  0  0  0
107108  1  0  0  0  0
108109  2  0  0  0  0
109110  1  0  0  0  0
110111  3  0  0  0  0
109112  1  0  0  0  0
112113  3  0  0  0  0
105114  1  0  0  0  0
114115  1  0  0  0  0
115116  1  0  0  0  0
116117  2  0  0  0  0
117118  1  0  0  0  0
118119  1  0  0  0  0
118120  1  0  0  0  0
 11  2  1  0  0  0  0
 23 17  1  0  0  0  0
 37 24  1  0  0  0  0
 81 40  1  0  0  0  0
 96 82  1  0  0  0  0
108 99  1  0  0  0  0
120114  1  0  0  0  0
 10  5  1  0  0  0  0
 22 18  1  0  0  0  0
 37 30  1  0  0  0  0
 50 43  1  0  0  0  0
 58 51  1  0  0  0  0
 80 59  2  0  0  0  0
 96 88  1  0  0  0  0
107102  1  0  0  0  0
119115  1  0  0  0  0
 23  7  1  0  0  0  0
 71 64  1  0  0  0  0
 79 72  1  0  0  0  0
120104  1  0  0  0  0
  1121  1  0  0  0  0
  6122  1  0  0  0  0
  9123  1  0  0  0  0
 17124  1  0  0  0  0
 18125  1  0  0  0  0
 19126  1  0  0  0  0
 20127  1  0  0  0  0
 21128  1  0  0  0  0
 22129  1  0  0  0  0
 22130  1  0  0  0  0
 23131  1  0  0  0  0
 33132  1  0  0  0  0
 33133  1  0  0  0  0
 34134  1  0  0  0  0
 34135  1  0  0  0  0
 34136  1  0  0  0  0
 38137  1  0  0  0  0
 38138  1  0  0  0  0
 39139  1  0  0  0  0
 39140  1  0  0  0  0
 39141  1  0  0  0  0
 44142  1  0  0  0  0
 45143  1  0  0  0  0
 48144  1  0  0  0  0
 48145  1  0  0  0  0
 48146  1  0  0  0  0
 49147  1  0  0  0  0
 50148  1  0  0  0  0
 52149  1  0  0  0  0
 53150  1  0  0  0  0
 56151  1  0  0  0  0
 56152  1  0  0  0  0
 56153  1  0  0  0  0
 57154  1  0  0  0  0
 58155  1  0  0  0  0
 65156  1  0  0  0  0
 66157  1  0  0  0  0
 69158  1  0  0  0  0
 69159  1  0  0  0  0
 69160  1  0  0  0  0
 70161  1  0  0  0  0
 71162  1  0  0  0  0
 73163  1  0  0  0  0
 74164  1  0  0  0  0
 77165  1  0  0  0  0
 77166  1  0  0  0  0
 77167  1  0  0  0  0
 78168  1  0  0  0  0
 79169  1  0  0  0  0
 92170  1  0  0  0  0
 92171  1  0  0  0  0
 93172  1  0  0  0  0
 93173  1  0  0  0  0
 93174  1  0  0  0  0
 97175  1  0  0  0  0
 97176  1  0  0  0  0
 97177  1  0  0  0  0
 98178  1  0  0  0  0
103179  1  0  0  0  0
106180  1  0  0  0  0
114181  1  0  0  0  0
115182  1  0  0  0  0
116183  1  0  0  0  0
117184  1  0  0  0  0
118185  1  0  0  0  0
119186  1  0  0  0  0
119187  1  0  0  0  0
120188  1  0  0  0  0
M  END
