232

C         -7.08650        3.23970       -1.80640
C         -8.33350        2.76080       -2.10840
C         -9.47870        3.67220       -1.88430
O         -9.45940        4.88670       -1.87590
C        -10.61940        2.78470       -1.58240
C        -11.88880        3.15740       -1.14920
C        -12.73140        2.09850       -0.90510
C        -12.34240        0.76320       -1.07160
C        -11.09400        0.37890       -1.50280
C        -10.22570        1.44020       -1.75950
C         -8.85560        1.42930       -2.26890
C         -8.27930        0.41190       -2.99250
C         -8.74730       -0.91230       -3.01600
N         -9.03810       -2.02480       -3.01620
C         -7.19970        0.62640       -3.87500
N         -6.40030        0.77160       -4.68760
C        -13.68710        0.23390       -0.64060
C        -14.64820       -0.27480       -1.74300
C        -14.28250        0.46630       -3.00520
C        -14.65230        1.73090       -2.85340
C        -15.27440        1.86780       -1.48580
C        -15.92490        0.48240       -1.34440
C        -14.12270        1.72230       -0.46040
C         -5.93360        2.57190       -1.37490
C         -4.81400        3.16770       -0.75440
N         -4.73510        4.49380       -0.40040
C         -5.89480        5.14510        0.07820
C         -6.24290        6.40500       -0.39690
C         -7.45160        6.96850       -0.03950
C         -8.32040        6.28160        0.79950
S         -9.91680        6.90210        1.22120
C        -10.40680        7.71080       -0.33190
C         -7.93340        5.06050        1.34330
C         -6.72970        4.49550        0.98610
C         -3.48230        5.10430       -0.28410
C         -3.21690        5.97370        0.77290
C         -1.94870        6.49140        0.93400
C         -0.94140        6.14360        0.04700
S          0.72840        6.68580        0.36780
C          1.16130        5.38200        1.56200
C         -1.21200        5.33850       -1.04680
C         -2.48220        4.82570       -1.21610
C         -3.82360        2.20760       -0.46580
S         -2.22480        2.22400        0.20580
C         -2.04940        0.48720       -0.05040
C         -3.19750       -0.06900       -0.58070
N         -3.34780       -1.38730       -1.07990
C         -4.45060       -2.11360       -0.61790
C         -4.73000       -3.36310       -1.17610
C         -5.83830       -4.07970       -0.78190
C         -6.69490       -3.56280        0.18050
S         -8.16650       -4.42530        0.67740
C         -8.88020       -4.84690       -0.94100
C         -6.38170       -2.36290        0.79980
C         -5.26510       -1.65110        0.41500
C         -3.10120       -1.36980       -2.48800
C         -1.82150       -1.07890       -2.95300
C         -1.58200       -0.95020       -4.30500
C         -2.61880       -1.09610       -5.22220
S         -2.22980       -0.87510       -6.92910
C         -3.85540       -0.57800       -7.68200
C         -3.89490       -1.39360       -4.76420
C         -4.13170       -1.51720       -3.41060
C         -4.18520        0.91080       -0.79970
S         -5.77330        0.81940       -1.44740
C         -0.75230       -0.05980        0.14970
C         -0.30250       -1.36410        0.34060
N         -1.05460       -2.49130        0.60560
C         -0.51120       -3.72010        0.16500
C         -0.24500       -4.75260        1.06440
C          0.28470       -5.94060        0.61610
C          0.56820       -6.12430       -0.73710
S          1.22830       -7.69650       -1.18900
C          1.51740       -7.55760       -2.97560
C          0.31630       -5.09450       -1.63240
C         -0.22130       -3.90330       -1.18170
C         -2.12900       -2.51630        1.49810
C         -2.36110       -1.48670        2.41000
C         -3.41660       -1.56180        3.29210
C         -4.26020       -2.67000        3.30440
S         -5.58850       -2.64440        4.46340
C         -6.46620       -4.20430        4.17220
C         -4.02240       -3.70800        2.41430
C         -2.97990       -3.62200        1.51570
C          1.11560       -1.41600        0.26920
S          2.28440       -2.67590        0.46980
C          3.60050       -1.53960        0.22400
C          3.14370       -0.23090        0.09470
N          3.90620        0.92710        0.00600
C          3.41840        1.94880       -0.82510
C          3.45360        3.28540       -0.43650
C          2.95520        4.27410       -1.26190
C          2.39480        3.94060       -2.48800
S          1.69350        5.11820       -3.60150
C          2.32710        6.71060       -3.00320
C          2.35080        2.60460       -2.88030
C          2.86430        1.62210       -2.06480
C          5.00520        1.15300        0.84520
C          6.03930        1.99560        0.43150
C          7.12040        2.22880        1.25020
C          7.20590        1.61470        2.49520
S          8.60770        1.99880        3.49500
C          8.73850        0.54620        4.57690
C          6.18800        0.76860        2.90870
C          5.09920        0.54090        2.09140
C          1.72950       -0.18830        0.09930
S          0.57740        1.09480        0.00310
C          4.94910       -2.03010        0.15460
C          5.25910       -3.31460        0.65930
O          4.21510       -4.03540        1.16250
C          4.09890       -5.42110        0.85300
C          4.17550       -5.69430       -0.64070
C          6.58060       -3.75100        0.68000
O          6.90550       -4.98300        1.21110
C          7.38240       -4.94490        2.54810
C          7.88640       -6.33140        2.90830
C          7.61230       -2.92860        0.19070
C          7.27640       -1.71230       -0.40830
C          5.97520       -1.28300       -0.43770
C          8.97450       -3.39350        0.27090
C         10.03420       -2.61990        0.61570
C          9.91640       -1.28620        1.26480
O          8.89890       -0.68580        1.54300
C         11.28580       -0.90010        1.64080
C         11.66870        0.27570        2.28350
C         13.01310        0.34940        2.55390
C         13.91310       -0.66970        2.21130
C         13.54980       -1.82880        1.56840
C         12.18380       -1.92750        1.28370
C         11.43750       -2.99890        0.63220
C         11.97360       -4.13780        0.09190
C         11.23990       -5.14290       -0.57350
N         10.72120       -6.00180       -1.13210
C         13.34510       -4.46700        0.11620
N         14.44330       -4.80170        0.10320
C         15.08900        0.05930        2.81150
C         15.60140       -0.41930        4.19290
C         14.42550       -1.05690        4.89030
C         13.57390       -0.09210        5.21140
C         14.15820        1.21550        4.73710
C         15.65550        0.92790        4.93130
C         14.08660        1.19510        3.18980
H         -7.04400        4.32170       -1.75990
H        -12.15190        4.19630       -1.02550
H        -10.79620       -0.65070       -1.61920
H        -13.68730       -0.40700        0.23890
H        -14.71140       -1.35680       -1.82310
H        -13.75610        0.02160       -3.82940
H        -14.49680        2.55410       -3.52610
H        -15.90900        2.73670       -1.33170
H        -16.74320        0.32750       -2.04600
H        -16.26150        0.26250       -0.33210
H        -14.41070        2.05240        0.53590
H         -5.57750        6.92240       -1.07230
H         -7.72170        7.93390       -0.43590
H        -11.48390        7.83400       -0.27930
H         -9.93210        8.68320       -0.42430
H        -10.13840        7.05370       -1.15360
H         -8.59560        4.55290        2.02750
H         -6.44250        3.53190        1.38070
H         -3.99910        6.21490        1.47710
H         -1.73050        7.14820        1.76270
H          1.08700        4.41350        1.07450
H          0.48750        5.43780        2.41200
H          2.18160        5.57090        1.87840
H         -0.43320        5.10280       -1.75510
H         -2.70180        4.19790       -2.06660
H         -4.07000       -3.76570       -1.93010
H         -6.03890       -5.04030       -1.23110
H         -8.33520       -5.67260       -1.38870
H         -8.85460       -3.96930       -1.58070
H         -9.90620       -5.14450       -0.74950
H         -7.02370       -1.98000        1.57840
H         -5.02920       -0.73450        0.93210
H         -1.01910       -0.91700       -2.25040
H         -0.59110       -0.71480       -4.66250
H         -4.40890       -1.50930       -7.76320
H         -4.39890        0.15240       -7.09030
H         -3.65410       -0.18370       -8.67320
H         -4.72330       -1.50430       -5.44360
H         -5.13810       -1.71230       -3.07130
H         -0.45490       -4.61280        2.11400
H          0.48850       -6.74410        1.30760
H          0.57640       -7.39840       -3.49390
H          1.94540       -8.50880       -3.27630
H          2.22260       -6.75660       -3.17670
H          0.52300       -5.20480       -2.68470
H         -0.42830       -3.11200       -1.88580
H         -1.70440       -0.63150        2.44530
H         -3.59410       -0.76000        3.99300
H         -5.80670       -5.04300        4.37490
H         -7.29230       -4.20740        4.87660
H         -6.85060       -4.23650        3.15650
H         -4.65320       -4.58110        2.39350
H         -2.82670       -4.42750        0.81470
H          3.86760        3.55050        0.52510
H          2.98880        5.29900       -0.93020
H          2.04640        7.43740       -3.75910
H          3.40850        6.66010       -2.92010
H          1.86710        6.97040       -2.05350
H          1.91670        2.35070       -3.83510
H          2.84200        0.58980       -2.38290
H          5.99400        2.45940       -0.54300
H          7.91780        2.88000        0.92670
H          9.72680        0.58800        5.02450
H          8.63820       -0.34350        3.96290
H          7.98190        0.58110        5.35560
H          6.22490        0.28630        3.87240
H          4.30870       -0.11130        2.43150
H          4.86320       -5.99750        1.38080
H          3.11060       -5.68470        1.23900
H          3.44400       -5.08260       -1.16570
H          5.16920       -5.46630       -1.01980
H          3.96270       -6.74340       -0.82210
H          8.19270       -4.20600        2.63350
H          6.56840       -4.63850        3.22230
H          7.07770       -7.05380        2.83720
H          8.27520       -6.33040        3.92260
H          8.67480       -6.62920        2.22200
H          8.04910       -1.12170       -0.87340
H          5.73540       -0.36790       -0.95020
H          9.11750       -4.44980        0.07760
H         10.94460        1.03820        2.52610
H         14.25370       -2.60300        1.31240
H         15.90120        0.30040        2.12890
H         16.51400       -1.00810        4.15630
H         14.31110       -2.11690        5.02350
H         12.60570       -0.18610        5.66810
H         13.75610        2.11510        5.19540
H         16.30360        1.66000        4.45170
H         15.93190        0.82250        5.97930
H         14.24170        2.18000        2.75440
