225

C          6.98010        0.99130        3.86950
C          7.65980        2.10690        4.30300
C          7.33590        3.50390        4.00890
O          6.34750        3.94180        3.43950
C          8.45360        4.30780        4.53740
C          8.60320        5.69150        4.47450
C          9.74920        6.15920        5.07200
C         10.68050        5.31420        5.68800
C         10.54780        3.94700        5.75340
C          9.39010        3.45040        5.14850
C          8.90160        2.07640        5.03890
C          9.52350        0.97240        5.57160
C          8.99640       -0.33180        5.61440
N          8.64030       -1.41850        5.74210
C         10.78620        0.98390        6.19680
N         11.81660        0.89380        6.69710
C         11.58200        6.45890        6.07880
C         12.85040        6.66310        5.22400
C         13.25830        8.08880        5.51760
C         12.37690        8.88940        4.93210
C         11.35830        8.01840        4.23280
C         12.25410        6.84270        3.82190
C         10.54390        7.40180        5.38980
C          5.79580        0.86850        3.14520
C          5.24690       -0.38150        2.76390
N          5.85380       -1.60380        2.88780
C          7.22310       -1.80390        2.66730
C          7.91150       -2.77800        3.38530
C          9.27000       -2.95190        3.20630
C          9.96490       -2.14020        2.32160
S         11.71070       -2.22640        2.08330
C         12.28750       -3.10080        3.56650
C          9.26880       -1.19880        1.56300
C          7.91260       -1.03780        1.72440
C          5.04170       -2.70650        3.22400
C          4.17750       -2.61370        4.31380
C          3.39980       -3.69200        4.66990
C          3.45380       -4.87710        3.93510
S          2.41200       -6.18580        4.48510
C          2.50380       -7.40680        3.14860
C          4.31180       -4.96690        2.84610
C          5.10430       -3.89060        2.49880
C          3.95770       -0.22260        2.22580
S          2.80290       -1.31290        1.53170
C          1.74840        0.03310        1.15050
C          2.28700        1.25930        1.50030
N          1.73990        2.50260        1.23970
C          0.92120        2.73520        0.13300
C         -0.18280        3.58330        0.23850
C         -1.07230        3.69940       -0.80550
C         -0.87960        2.97730       -1.98090
S         -2.13020        3.11440       -3.21970
C         -1.89560        1.65460       -4.26820
C          0.26790        2.21150       -2.13020
C          1.16190        2.09870       -1.08370
C          2.00210        3.52010        2.16990
C          1.96080        3.23880        3.53480
C          2.34330        4.19450        4.45240
C          2.77250        5.43880        4.01450
S          3.38870        6.60460        5.20220
C          4.98950        6.98350        4.42050
C          2.74760        5.74740        2.66100
C          2.36420        4.79410        1.74140
C          3.54760        1.09940        2.13040
S          4.73200        2.21170        2.72010
C          0.48730       -0.17830        0.46910
C          0.40760       -0.86640       -0.72800
F          1.51550       -1.41170       -1.25840
C         -0.76860       -0.93370       -1.47480
F         -0.68680       -1.44180       -2.72200
C         -1.96520       -0.39790       -1.02070
C         -1.89840        0.35650        0.18400
N         -2.99860        0.99760        0.59520
C         -2.96310        1.72070        1.68700
C         -4.21510        2.46830        2.02330
C         -4.16880        3.86500        1.39920
C         -1.76850        1.78570        2.45930
N         -0.68690        1.14940        2.07970
C         -0.70100        0.45150        0.93080
C         -1.67560        2.53140        3.75610
C         -2.01030        1.60530        4.92790
C         -3.21560       -0.55080       -1.70260
C         -3.62830       -1.62320       -2.49280
N         -2.99010       -2.83910       -2.63010
C         -2.23480       -3.38030       -1.58380
C         -2.58120       -3.13630       -0.25610
C         -1.73840       -3.50740        0.77100
C         -0.53390       -4.13780        0.48760
S          0.66350       -4.51200        1.72910
C          0.25040       -3.32830        3.03910
C         -0.23680       -4.48350       -0.82820
C         -1.07870       -4.11470       -1.85380
C         -3.17380       -3.54260       -3.83250
C         -3.49870       -4.89450       -3.82210
C         -3.78310       -5.55500       -5.00160
C         -3.73790       -4.87130       -6.20990
S         -4.15220       -5.58380       -7.76860
C         -4.87720       -7.19180       -7.33170
C         -3.34690       -3.53350       -6.22810
C         -3.07480       -2.87230       -5.05230
C         -4.89050       -1.35180       -3.06550
S         -5.91100       -2.23450       -4.13740
C         -7.14180       -0.97000       -4.03940
C         -6.78080        0.04240       -3.13500
N         -7.54020        1.12630       -2.79100
C         -8.93670        1.05950       -2.73920
C         -9.56970       -0.08480       -2.25380
C        -10.94310       -0.20180       -2.30640
C        -11.70770        0.83050       -2.83650
S        -13.45620        0.69540       -3.03470
C        -13.63460       -1.06900       -3.44240
C        -11.08620        2.01060       -3.23600
C         -9.71400        2.12610       -3.19130
C         -6.90210        2.35710       -2.53520
C         -7.26780        3.11400       -1.42450
C         -6.63520        4.31020       -1.17290
C         -5.63600        4.77410       -2.02830
S         -4.86570        6.29410       -1.57670
C         -3.62360        6.56550       -2.87060
C         -5.30000        4.03720       -3.15630
C         -5.92310        2.82990       -3.40190
C         -5.46330       -0.15940       -2.65290
S         -4.45080        0.67680       -1.51940
C         -8.29270       -1.10000       -4.83210
C         -8.40080       -1.79300       -6.00850
C         -9.71750       -2.29730       -6.44830
O        -10.80110       -2.03720       -5.96250
C         -9.41940       -3.23930       -7.55010
C        -10.28710       -4.07290       -8.22520
C         -9.75840       -4.91480       -9.20600
O        -10.48410       -5.78280       -9.94870
C        -11.87710       -5.85040       -9.74600
C         -8.38180       -4.89820       -9.46820
C         -7.52090       -4.05080       -8.79860
C         -8.04280       -3.20400       -7.83070
C         -7.41280       -2.20590       -6.97540
C         -6.21410       -1.58720       -7.23650
C         -5.40490       -1.90210       -8.34570
N         -4.71360       -2.09320       -9.24270
C         -5.71230       -0.48340       -6.52260
N         -5.26710        0.44290       -6.00580
H          7.43190        0.04180        4.12780
H          7.86360        6.31180        3.99320
H         11.27210        3.31000        6.23270
H         11.76400        6.57600        7.14550
H         13.61270        5.89940        5.35080
H         14.08620        8.35860        6.14660
H         12.32150        9.96150        4.97450
H         10.76230        8.49000        3.45600
H         13.00520        7.13400        3.08950
H         11.70790        5.97450        3.45790
H         10.03560        8.14840        5.99760
H          7.38580       -3.38680        4.10350
H          9.77580       -3.70660        3.78490
H         11.84190       -2.64940        4.44800
H         12.04810       -4.15830        3.49950
H         13.36480       -2.96910        3.58560
H          9.80900       -0.59650        0.84880
H          7.38100       -0.30430        1.13700
H          4.13570       -1.69740        4.88410
H          2.75080       -3.63730        5.53140
H          2.22080       -6.93330        2.21330
H          1.78420       -8.17710        3.40780
H          3.50010       -7.83660        3.09980
H          4.37130       -5.86880        2.26000
H          5.77560       -3.96360        1.65630
H         -0.35380        4.12040        1.15960
H         -1.94200        4.33080       -0.71150
H         -1.05010        1.79830       -4.93500
H         -1.75670        0.77940       -3.64260
H         -2.81020        1.55500       -4.84630
H          0.47280        1.69620       -3.05560
H          2.05400        1.50270       -1.20710
H          1.65830        2.25470        3.86150
H          2.33700        3.97650        5.50920
H          4.86180        7.72290        3.63490
H          5.39950        6.05860        4.02410
H          5.62610        7.38240        5.20420
H          3.05090        6.72600        2.32280
H          2.36990        5.02000        0.68530
H         -5.05830        1.92340        1.59760
H         -4.34510        2.54160        3.10290
H         -3.29800        4.41910        1.74250
H         -5.06130        4.42440        1.66530
H         -4.12500        3.77940        0.31710
H         -0.65210        2.89120        3.86930
H         -2.34920        3.38740        3.75550
H         -3.02570        1.22310        4.84420
H         -1.32500        0.76120        4.94200
H         -1.91850        2.14470        5.86710
H         -3.50630       -2.62890       -0.02560
H         -2.02700       -3.29170        1.78740
H         -0.60290       -3.68100        3.61150
H          0.05590       -2.35620        2.59480
H          1.12690       -3.27590        3.67690
H          0.68300       -5.00570       -1.04040
H         -0.81850       -4.33670       -2.87740
H         -3.54900       -5.42350       -2.88150
H         -4.04990       -6.59870       -4.96200
H         -5.24980       -7.60580       -8.26330
H         -5.69900       -7.04710       -6.63670
H         -4.11800       -7.84860       -6.91710
H         -3.26850       -3.02210       -7.17460
H         -2.78990       -1.83080       -5.06770
H         -8.97470       -0.89300       -1.85420
H        -11.41150       -1.10210       -1.94250
H        -12.85230       -1.35360       -4.14040
H        -13.59980       -1.67420       -2.54100
H        -14.60880       -1.16880       -3.91050
H        -11.68990        2.82010       -3.61550
H         -9.23180        3.02590       -3.54190
H         -8.04150        2.75430       -0.76270
H         -6.90300        4.89980       -0.30990
H         -4.11410        6.72180       -3.82660
H         -2.93960        5.72290       -2.91080
H         -3.09080        7.46500       -2.57810
H         -4.55650        4.38910       -3.85050
H         -5.66030        2.25340       -4.27650
H         -9.22300       -0.68760       -4.45960
H        -11.33720       -4.05130       -7.98120
H        -12.35890       -4.88990       -9.95200
H        -12.11880       -6.16900       -8.72730
H        -12.24050       -6.59480      -10.45230
H         -8.00830       -5.57350      -10.22160
H         -6.46520       -4.07250       -9.01750
