220

C         -6.47740        3.16820        1.03330
C         -6.96440        3.99800        2.01180
C         -6.22690        4.51100        3.17030
O         -5.16370        4.10960        3.61470
C         -7.03240        5.62660        3.70420
C         -6.71410        6.47050        4.76610
C         -7.66360        7.42980        5.02600
C         -8.84900        7.54240        4.28900
C         -9.17800        6.71610        3.24040
C         -8.22150        5.73830        2.95480
C         -8.22120        4.70420        1.92310
C         -9.23440        4.47720        1.02410
C        -10.38970        5.27220        0.89000
N        -11.34730        5.87310        0.68460
C         -9.29260        3.41410        0.10310
N         -9.45070        2.57490       -0.66760
C         -9.32910        8.72760        5.08900
C         -9.18790       10.11180        4.42100
C         -9.27290       11.08150        5.57740
C         -8.14960       10.97610        6.27580
C         -7.28650        9.93320        5.60300
C         -7.68090       10.16900        4.13930
C         -8.00610        8.60280        5.91100
C         -5.22170        2.57380        0.88230
C         -4.75450        2.05400       -0.34570
N         -5.35230        2.23610       -1.56630
C         -5.11880        1.29690       -2.58780
C         -4.81150        1.72290       -3.87950
C         -4.57090        0.80110       -4.87210
C         -4.63330       -0.56570       -4.60000
S         -4.28300       -1.65100       -5.94290
C         -4.74400       -3.28650       -5.30990
C         -4.95410       -0.99310       -3.31830
C         -5.19830       -0.06710       -2.32320
C         -6.14600        3.36090       -1.86400
C         -5.81700        4.62360       -1.36590
C         -6.65810        5.68980       -1.58090
C         -7.83510        5.52760       -2.31260
S         -8.88980        6.93470       -2.45060
C        -10.48630        6.21340       -2.92260
C         -8.11690        4.29450       -2.88360
C         -7.28220        3.21750       -2.65370
C         -3.52830        1.38740       -0.16790
S         -2.47320        0.53470       -1.23990
C         -1.32470        0.28970        0.06870
C         -1.78910        0.76110        1.28540
N         -1.15260        0.52060        2.48750
C         -0.42770       -0.67400        2.65410
C         -0.90250       -1.87910        2.14730
C         -0.16270       -3.03920        2.26710
C          1.06870       -3.01210        2.90540
S          2.13040       -4.41540        3.05720
C          1.28380       -5.70020        2.09470
C          1.52000       -1.82040        3.47080
C          0.77930       -0.66450        3.35170
C         -1.43010        1.30310        3.61910
C         -1.60250        0.69920        4.86480
C         -1.94050        1.45930        5.96210
C         -2.12010        2.83320        5.83660
S         -2.63350        3.73600        7.26500
C         -3.62930        5.05760        6.50980
C         -1.89490        3.44590        4.61300
C         -1.55170        2.68520        3.51310
C         -3.04060        1.41990        1.13360
S         -4.06770        2.32380        2.18990
C         -0.07150       -0.35060       -0.23270
C          1.20010        0.18860       -0.15820
N          1.48570        1.48790        0.22060
C          0.59980        2.51890       -0.12500
C          0.34300        3.55930        0.76750
C         -0.56530        4.54290        0.44240
C         -1.23680        4.51210       -0.77860
S         -2.42670        5.78690       -1.06170
C         -2.86010        5.59390       -2.81340
C         -0.95390        3.50270       -1.68660
C         -0.03620        2.52280       -1.36290
C          2.71440        1.79090        0.82630
C          3.36800        2.98620        0.54010
C          4.57920        3.28900        1.13110
C          5.16940        2.39260        2.01220
S          6.70970        2.66290        2.82680
C          7.27640        4.26100        2.17720
C          4.52150        1.19290        2.29730
C          3.30870        0.89670        1.71740
C          2.17600       -0.74720       -0.58950
S          3.89790       -0.69200       -0.73610
C          3.90240       -2.31740       -1.38850
C          2.63550       -2.90080       -1.40660
N          2.40530       -4.24420       -1.64440
C          3.33300       -5.19060       -1.16350
C          3.66900       -6.30880       -1.92530
C          4.59310       -7.21810       -1.45580
C          5.20000       -7.03180       -0.21630
S          6.38210       -8.23830        0.29950
C          6.38750       -8.06000        2.10730
C          4.86570       -5.92080        0.54870
C          3.94310       -5.01140        0.07590
C          1.20670       -4.67000       -2.21930
C          0.64400       -5.89360       -1.85840
C         -0.53630       -6.32790       -2.42660
C         -1.18570       -5.54360       -3.37010
S         -2.70170       -6.00100       -4.15370
C         -2.93590       -7.73710       -3.68300
C         -0.63470       -4.31670       -3.73160
C          0.54550       -3.88600       -3.16780
C          1.65400       -1.96670       -0.99260
S         -0.07100       -1.98260       -0.89260
C          5.14350       -2.95160       -1.71940
C          6.27330       -2.74220       -0.88770
C          7.38350       -3.65370       -0.90480
N          8.26870       -3.19930       -0.04250
O          7.74130       -2.09810        0.48960
N          6.53330       -1.81150        0.00310
C          7.39270       -4.76310       -1.78230
C          6.39260       -4.79520       -2.77580
O          6.49980       -5.85190       -3.59900
C          5.96550       -5.91350       -4.91410
C          6.66200       -4.93270       -5.84900
C          5.29220       -3.88250       -2.74890
O          4.34640       -4.00180       -3.73380
C          3.90910       -2.81100       -4.38090
C          3.21570       -3.21580       -5.67180
C          8.36640       -5.80010       -1.76830
C          9.03300       -6.29740       -0.69190
C          8.75170       -6.00350        0.72560
O          7.81620       -5.39510        1.19530
C          9.82130       -6.69260        1.48970
C         10.09340       -6.62580        2.84410
Cl         9.06620       -5.78570        3.91940
C         11.25290       -7.25230        3.32060
Cl        11.61770       -7.21770        4.99100
C         12.13180       -7.86510        2.42880
Cl        13.59160       -8.53370        3.01970
C         11.84870       -7.93210        1.05550
Cl        13.05640       -8.54610        0.00420
C         10.64720       -7.40470        0.59800
C         10.04250       -7.34570       -0.73020
C         10.23340       -8.24360       -1.74510
C         10.91470       -9.47570       -1.62500
N         11.35170      -10.53640       -1.60060
C          9.64840       -8.16650       -3.02920
N          9.25540       -8.18560       -4.10830
H         -7.14650        2.98740        0.20210
H         -5.79270        6.35600        5.31470
H        -10.09360        6.81280        2.68120
H        -10.27790        8.59910        5.60630
H         -9.86090       10.28460        3.58570
H        -10.13560       11.68410        5.79310
H         -7.88680       11.47270        7.19140
H         -6.22700        9.94520        5.84500
H         -7.36650       11.14780        3.78090
H         -7.32800        9.40020        3.45440
H         -8.07320        8.39170        6.97670
H         -4.76670        2.78000       -4.09770
H         -4.32690        1.12560       -5.87190
H         -5.78170       -3.27540       -4.99050
H         -4.62030       -3.97060       -6.14330
H         -4.08120       -3.58120       -4.50210
H         -5.01680       -2.04220       -3.08040
H         -5.46040       -0.40190       -1.33050
H         -4.92100        4.75800       -0.77970
H         -6.41950        6.66100       -1.17500
H        -11.21810        7.00180       -2.77760
H        -10.47120        5.90970       -3.96550
H        -10.71320        5.37700       -2.26820
H         -8.99930        4.14850       -3.48400
H         -7.53110        2.25140       -3.06450
H         -1.85940       -1.91000        1.64700
H         -0.56140       -3.95130        1.85410
H          1.97410       -6.53720        2.05240
H          0.36780       -6.00020        2.59580
H          1.08390       -5.33740        1.09070
H          2.46500       -1.81190        3.99250
H          1.13190        0.25760        3.78910
H         -1.49690       -0.37110        4.96200
H         -2.09620        0.99200        6.92230
H         -4.14690        4.64620        5.64730
H         -4.33660        5.37330        7.27140
H         -2.99460        5.89370        6.22730
H         -1.99200        4.51350        4.50230
H         -1.37730        3.16440        2.56330
H          0.85950        3.58390        1.71550
H         -0.77670        5.34280        1.13580
H         -1.96670        5.68670       -3.42400
H         -3.35400        4.64020       -2.97600
H         -3.54950        6.40270       -3.03500
H         -1.44050        3.45870       -2.64740
H          0.18320        1.74480       -2.07910
H          2.92650        3.68500       -0.15530
H          5.05430        4.22480        0.88520
H          8.23900        4.44040        2.64590
H          7.39720        4.20180        1.09950
H          6.58010        5.04670        2.45590
H          4.98240        0.49610        2.97960
H          2.81090       -0.02950        1.95680
H          3.20500       -6.45420       -2.88900
H          4.86250       -8.07740       -2.04980
H          7.00130       -8.87310        2.48220
H          5.37200       -8.15430        2.47970
H          6.82100       -7.10570        2.38870
H          5.32580       -5.74370        1.50560
H          3.69490       -4.15250        0.68110
H          1.13510       -6.51460       -1.12370
H         -0.94120       -7.27750       -2.11590
H         -2.05790       -8.31390       -3.95830
H         -3.79610       -8.07910       -4.25010
H         -3.14380       -7.81440       -2.61960
H         -1.13630       -3.70810       -4.46830
H          0.96490       -2.94120       -3.47490
H          4.88490       -5.75940       -4.90960
H          6.18610       -6.93980       -5.21950
H          7.73420       -5.11410       -5.84260
H          6.29090       -5.06480       -6.86150
H          6.48120       -3.90640       -5.53710
H          4.77210       -2.16350       -4.58420
H          3.21540       -2.25260       -3.74230
H          2.82230       -2.33210       -6.16590
H          2.39510       -3.89370       -5.45050
H          3.91130       -3.71550       -6.33990
H          8.54060       -6.25700       -2.73300
