
  xtb     02132216353D
 energy: -442.957031337043 gnorm: 0.000295647589 xtb: 6.4.1 (unknown)
265289  0     0  0            999 V2000
    7.6094   -2.0498    3.7383 C   0  0  0  0  0  0  0  0  0  0  0  0
    8.8418   -2.5509    3.3822 C   0  0  0  0  0  0  0  0  0  0  0  0
    9.4026   -2.6323    2.0340 C   0  0  0  0  0  0  0  0  0  0  0  0
    8.8291   -2.4530    0.9695 O   0  0  0  0  0  0  0  0  0  0  0  0
   10.8250   -2.9871    2.1977 C   0  0  0  0  0  0  0  0  0  0  0  0
   11.7788   -3.1475    1.1951 C   0  0  0  0  0  0  0  0  0  0  0  0
   13.0282   -3.4849    1.6585 C   0  0  0  0  0  0  0  0  0  0  0  0
   13.3106   -3.6541    3.0195 C   0  0  0  0  0  0  0  0  0  0  0  0
   12.3793   -3.4991    4.0195 C   0  0  0  0  0  0  0  0  0  0  0  0
   11.1035   -3.1507    3.5694 C   0  0  0  0  0  0  0  0  0  0  0  0
    9.8704   -2.9263    4.3220 C   0  0  0  0  0  0  0  0  0  0  0  0
    9.7396   -3.0641    5.6833 C   0  0  0  0  0  0  0  0  0  0  0  0
    8.5286   -3.0283    6.3983 C   0  0  0  0  0  0  0  0  0  0  0  0
    7.5948   -3.0536    7.0698 N   0  0  0  0  0  0  0  0  0  0  0  0
   10.8044   -3.2862    6.5780 C   0  0  0  0  0  0  0  0  0  0  0  0
   11.6083   -3.4280    7.3868 N   0  0  0  0  0  0  0  0  0  0  0  0
   14.7595   -3.9849    2.7607 C   0  0  0  0  0  0  0  0  0  0  0  0
   15.7841   -2.8656    3.0412 C   0  0  0  0  0  0  0  0  0  0  0  0
   17.0072   -3.2917    2.2618 C   0  0  0  0  0  0  0  0  0  0  0  0
   16.7405   -3.1299    0.9721 C   0  0  0  0  0  0  0  0  0  0  0  0
   15.3324   -2.5916    0.8582 C   0  0  0  0  0  0  0  0  0  0  0  0
   15.2714   -1.7404    2.1330 C   0  0  0  0  0  0  0  0  0  0  0  0
   14.4449   -3.7947    1.2420 C   0  0  0  0  0  0  0  0  0  0  0  0
    6.5696   -1.5476    2.9594 C   0  0  0  0  0  0  0  0  0  0  0  0
    5.4192   -0.9117    3.4971 C   0  0  0  0  0  0  0  0  0  0  0  0
    5.2856   -0.4734    4.7863 N   0  0  0  0  0  0  0  0  0  0  0  0
    4.0071   -0.3015    5.3484 C   0  0  0  0  0  0  0  0  0  0  0  0
    3.0358   -1.2963    5.2417 C   0  0  0  0  0  0  0  0  0  0  0  0
    1.8015   -1.1241    5.8303 C   0  0  0  0  0  0  0  0  0  0  0  0
    1.5166    0.0412    6.5372 C   0  0  0  0  0  0  0  0  0  0  0  0
   -0.0696    0.1566    7.2987 S   0  0  0  0  0  0  0  0  0  0  0  0
   -0.2879    1.9445    7.5489 C   0  0  0  0  0  0  0  0  0  0  0  0
    2.4827    1.0340    6.6469 C   0  0  0  0  0  0  0  0  0  0  0  0
    3.7163    0.8629    6.0534 C   0  0  0  0  0  0  0  0  0  0  0  0
    6.3949   -0.0737    5.5593 C   0  0  0  0  0  0  0  0  0  0  0  0
    7.4499    0.6380    4.9849 C   0  0  0  0  0  0  0  0  0  0  0  0
    8.5743    0.9186    5.7258 C   0  0  0  0  0  0  0  0  0  0  0  0
    8.6596    0.5194    7.0603 C   0  0  0  0  0  0  0  0  0  0  0  0
   10.1816    0.8320    7.8942 S   0  0  0  0  0  0  0  0  0  0  0  0
   10.1259   -0.3147    9.3002 C   0  0  0  0  0  0  0  0  0  0  0  0
    7.5689   -0.0947    7.6597 C   0  0  0  0  0  0  0  0  0  0  0  0
    6.4478   -0.3975    6.9112 C   0  0  0  0  0  0  0  0  0  0  0  0
    4.4450   -0.7218    2.5029 C   0  0  0  0  0  0  0  0  0  0  0  0
    2.8398   -0.0642    2.4961 S   0  0  0  0  0  0  0  0  0  0  0  0
    2.7209   -0.3359    0.7587 C   0  0  0  0  0  0  0  0  0  0  0  0
    3.9063   -0.8223    0.2182 C   0  0  0  0  0  0  0  0  0  0  0  0
    4.1657   -1.0289   -1.1298 N   0  0  0  0  0  0  0  0  0  0  0  0
    5.0303   -2.1189   -1.3888 C   0  0  0  0  0  0  0  0  0  0  0  0
    6.2771   -1.9361   -1.9777 C   0  0  0  0  0  0  0  0  0  0  0  0
    7.1545   -2.9944   -2.0858 C   0  0  0  0  0  0  0  0  0  0  0  0
    6.7999   -4.2447   -1.5953 C   0  0  0  0  0  0  0  0  0  0  0  0
    7.9189   -5.6106   -1.6146 S   0  0  0  0  0  0  0  0  0  0  0  0
    9.5099   -4.7625   -1.3756 C   0  0  0  0  0  0  0  0  0  0  0  0
    5.5332   -4.4434   -1.0574 C   0  0  0  0  0  0  0  0  0  0  0  0
    4.6544   -3.3868   -0.9535 C   0  0  0  0  0  0  0  0  0  0  0  0
    3.9993   -0.0246   -2.0816 C   0  0  0  0  0  0  0  0  0  0  0  0
    3.7313    1.2983   -1.7251 C   0  0  0  0  0  0  0  0  0  0  0  0
    3.6022    2.2697   -2.6942 C   0  0  0  0  0  0  0  0  0  0  0  0
    3.7546    1.9505   -4.0380 C   0  0  0  0  0  0  0  0  0  0  0  0
    3.5426    3.2556   -5.2202 S   0  0  0  0  0  0  0  0  0  0  0  0
    4.5490    2.6958   -6.6245 C   0  0  0  0  0  0  0  0  0  0  0  0
    4.0062    0.6343   -4.4042 C   0  0  0  0  0  0  0  0  0  0  0  0
    4.1140   -0.3410   -3.4365 C   0  0  0  0  0  0  0  0  0  0  0  0
    4.8581   -1.0929    1.2294 C   0  0  0  0  0  0  0  0  0  0  0  0
    6.4668   -1.7239    1.2061 S   0  0  0  0  0  0  0  0  0  0  0  0
    1.4509   -0.1774    0.1528 C   0  0  0  0  0  0  0  0  0  0  0  0
    0.3116    0.2297    0.8283 C   0  0  0  0  0  0  0  0  0  0  0  0
    0.2995    0.7127    2.1460 N   0  0  0  0  0  0  0  0  0  0  0  0
    0.5917    2.0651    2.3637 C   0  0  0  0  0  0  0  0  0  0  0  0
    1.0255    2.4797    3.6246 C   0  0  0  0  0  0  0  0  0  0  0  0
    1.3118    3.8042    3.8598 C   0  0  0  0  0  0  0  0  0  0  0  0
    1.1845    4.7502    2.8419 C   0  0  0  0  0  0  0  0  0  0  0  0
    1.5426    6.4238    3.2759 S   0  0  0  0  0  0  0  0  0  0  0  0
    1.4171    7.3241    1.7064 C   0  0  0  0  0  0  0  0  0  0  0  0
    0.7811    4.3386    1.5797 C   0  0  0  0  0  0  0  0  0  0  0  0
    0.4888    3.0072    1.3449 C   0  0  0  0  0  0  0  0  0  0  0  0
   -0.4924   -0.0190    3.0452 C   0  0  0  0  0  0  0  0  0  0  0  0
   -1.3666    0.5916    3.9373 C   0  0  0  0  0  0  0  0  0  0  0  0
   -2.1345   -0.1657    4.8001 C   0  0  0  0  0  0  0  0  0  0  0  0
   -2.0417   -1.5502    4.7856 C   0  0  0  0  0  0  0  0  0  0  0  0
   -2.9669   -2.6117    5.8492 S   0  0  0  0  0  0  0  0  0  0  0  0
   -3.5577   -1.4958    7.1526 C   0  0  0  0  0  0  0  0  0  0  0  0
   -1.1858   -2.1668    3.8760 C   0  0  0  0  0  0  0  0  0  0  0  0
   -0.4218   -1.4120    3.0160 C   0  0  0  0  0  0  0  0  0  0  0  0
   -0.8380    0.1023    0.0327 C   0  0  0  0  0  0  0  0  0  0  0  0
   -2.4921    0.4577    0.3351 S   0  0  0  0  0  0  0  0  0  0  0  0
   -2.8702    0.0853   -1.3370 C   0  0  0  0  0  0  0  0  0  0  0  0
   -1.7839   -0.3844   -2.0516 C   0  0  0  0  0  0  0  0  0  0  0  0
   -1.9189   -0.8851   -3.3356 N   0  0  0  0  0  0  0  0  0  0  0  0
   -3.0706   -1.6574   -3.6075 C   0  0  0  0  0  0  0  0  0  0  0  0
   -3.8675   -1.3859   -4.7136 C   0  0  0  0  0  0  0  0  0  0  0  0
   -4.9759   -2.1620   -4.9925 C   0  0  0  0  0  0  0  0  0  0  0  0
   -5.2893   -3.2433   -4.1793 C   0  0  0  0  0  0  0  0  0  0  0  0
   -6.6188   -4.3614   -4.4961 S   0  0  0  0  0  0  0  0  0  0  0  0
   -7.6294   -3.5285   -5.7508 C   0  0  0  0  0  0  0  0  0  0  0  0
   -4.4934   -3.5143   -3.0677 C   0  0  0  0  0  0  0  0  0  0  0  0
   -3.4024   -2.7261   -2.7772 C   0  0  0  0  0  0  0  0  0  0  0  0
   -0.9466   -0.7160   -4.3178 C   0  0  0  0  0  0  0  0  0  0  0  0
   -0.8812   -1.5903   -5.4037 C   0  0  0  0  0  0  0  0  0  0  0  0
    0.0554   -1.4127   -6.3995 C   0  0  0  0  0  0  0  0  0  0  0  0
    0.9479   -0.3533   -6.3316 C   0  0  0  0  0  0  0  0  0  0  0  0
    2.1812   -0.0707   -7.5716 S   0  0  0  0  0  0  0  0  0  0  0  0
    1.3624   -0.6509   -9.0831 C   0  0  0  0  0  0  0  0  0  0  0  0
    0.9016    0.5079   -5.2450 C   0  0  0  0  0  0  0  0  0  0  0  0
   -0.0295    0.3295   -4.2465 C   0  0  0  0  0  0  0  0  0  0  0  0
   -0.6054   -0.3545   -1.2563 C   0  0  0  0  0  0  0  0  0  0  0  0
    1.0858   -0.6853   -1.4923 S   0  0  0  0  0  0  0  0  0  0  0  0
   -4.1966    0.3847   -1.8288 C   0  0  0  0  0  0  0  0  0  0  0  0
   -4.5394    1.5062   -2.5525 C   0  0  0  0  0  0  0  0  0  0  0  0
   -3.6422    2.5449   -2.8762 N   0  0  0  0  0  0  0  0  0  0  0  0
   -3.4168    3.5379   -1.9200 C   0  0  0  0  0  0  0  0  0  0  0  0
   -3.7217    3.3282   -0.5755 C   0  0  0  0  0  0  0  0  0  0  0  0
   -3.3971    4.2635    0.3882 C   0  0  0  0  0  0  0  0  0  0  0  0
   -2.7788    5.4493    0.0278 C   0  0  0  0  0  0  0  0  0  0  0  0
   -2.2440    6.6735    1.1876 S   0  0  0  0  0  0  0  0  0  0  0  0
   -2.2921    5.8025    2.7793 C   0  0  0  0  0  0  0  0  0  0  0  0
   -2.5837    5.7222   -1.3238 C   0  0  0  0  0  0  0  0  0  0  0  0
   -2.9098    4.7903   -2.2828 C   0  0  0  0  0  0  0  0  0  0  0  0
   -2.9856    2.5122   -4.1127 C   0  0  0  0  0  0  0  0  0  0  0  0
   -3.6170    1.9662   -5.2306 C   0  0  0  0  0  0  0  0  0  0  0  0
   -2.9622    1.8973   -6.4416 C   0  0  0  0  0  0  0  0  0  0  0  0
   -1.6688    2.3920   -6.5778 C   0  0  0  0  0  0  0  0  0  0  0  0
   -0.9160    2.2336   -8.1655 S   0  0  0  0  0  0  0  0  0  0  0  0
    0.6202    3.1877   -8.0197 C   0  0  0  0  0  0  0  0  0  0  0  0
   -1.0388    2.9501   -5.4755 C   0  0  0  0  0  0  0  0  0  0  0  0
   -1.6840    2.9884   -4.2555 C   0  0  0  0  0  0  0  0  0  0  0  0
   -5.9232    1.5351   -2.8273 C   0  0  0  0  0  0  0  0  0  0  0  0
   -6.9277    2.6416   -3.6813 S   0  0  0  0  0  0  0  0  0  0  0  0
   -8.3416    1.6193   -3.3651 C   0  0  0  0  0  0  0  0  0  0  0  0
   -8.0355    0.5533   -2.4772 C   0  0  0  0  0  0  0  0  0  0  0  0
   -8.9402   -0.1829   -1.7885 N   0  0  0  0  0  0  0  0  0  0  0  0
  -10.2804    0.2108   -1.6294 C   0  0  0  0  0  0  0  0  0  0  0  0
  -11.2954   -0.7348   -1.7852 C   0  0  0  0  0  0  0  0  0  0  0  0
  -12.6155   -0.3524   -1.6998 C   0  0  0  0  0  0  0  0  0  0  0  0
  -12.9544    0.9762   -1.4423 C   0  0  0  0  0  0  0  0  0  0  0  0
  -14.6669    1.3668   -1.4631 S   0  0  0  0  0  0  0  0  0  0  0  0
  -14.7262    3.1501   -1.1400 C   0  0  0  0  0  0  0  0  0  0  0  0
  -11.9412    1.9015   -1.2033 C   0  0  0  0  0  0  0  0  0  0  0  0
  -10.6194    1.5208   -1.3009 C   0  0  0  0  0  0  0  0  0  0  0  0
   -8.5696   -1.3865   -1.1478 C   0  0  0  0  0  0  0  0  0  0  0  0
   -7.9128   -2.3915   -1.8441 C   0  0  0  0  0  0  0  0  0  0  0  0
   -7.5973   -3.5816   -1.2199 C   0  0  0  0  0  0  0  0  0  0  0  0
   -7.9255   -3.7749    0.1158 C   0  0  0  0  0  0  0  0  0  0  0  0
   -7.5735   -5.2468    1.0116 S   0  0  0  0  0  0  0  0  0  0  0  0
   -6.5949   -6.2412   -0.1492 C   0  0  0  0  0  0  0  0  0  0  0  0
   -8.5934   -2.7666    0.8130 C   0  0  0  0  0  0  0  0  0  0  0  0
   -8.9199   -1.5856    0.1869 C   0  0  0  0  0  0  0  0  0  0  0  0
   -6.6362    0.4817   -2.2684 C   0  0  0  0  0  0  0  0  0  0  0  0
   -5.5847   -0.5981   -1.4130 S   0  0  0  0  0  0  0  0  0  0  0  0
   -9.5197    1.9496   -4.0195 C   0  0  0  0  0  0  0  0  0  0  0  0
  -10.5604    1.0721   -4.2908 C   0  0  0  0  0  0  0  0  0  0  0  0
  -10.3808   -0.3698   -4.4438 C   0  0  0  0  0  0  0  0  0  0  0  0
   -9.3542   -1.0190   -4.3203 O   0  0  0  0  0  0  0  0  0  0  0  0
  -11.6913   -0.8845   -4.9043 C   0  0  0  0  0  0  0  0  0  0  0  0
  -12.0621   -2.1804   -5.1842 C   0  0  0  0  0  0  0  0  0  0  0  0
  -13.3757   -2.4176   -5.5737 C   0  0  0  0  0  0  0  0  0  0  0  0
  -13.9166   -4.1913   -5.9509 Br  0  0  0  0  0  0  0  0  0  0  0  0
  -14.2823   -1.3653   -5.6791 C   0  0  0  0  0  0  0  0  0  0  0  0
  -16.0678   -1.6994   -6.2069 Br  0  0  0  0  0  0  0  0  0  0  0  0
  -13.9025   -0.0551   -5.4009 C   0  0  0  0  0  0  0  0  0  0  0  0
  -12.5985    0.1835   -5.0121 C   0  0  0  0  0  0  0  0  0  0  0  0
  -11.9117    1.4132   -4.6190 C   0  0  0  0  0  0  0  0  0  0  0  0
  -12.5046    2.6403   -4.4429 C   0  0  0  0  0  0  0  0  0  0  0  0
  -11.8501    3.7485   -3.8722 C   0  0  0  0  0  0  0  0  0  0  0  0
  -11.4029    4.6758   -3.3614 N   0  0  0  0  0  0  0  0  0  0  0  0
  -13.8557    2.9162   -4.7229 C   0  0  0  0  0  0  0  0  0  0  0  0
  -14.9492    3.2050   -4.9235 N   0  0  0  0  0  0  0  0  0  0  0  0
    7.4171   -2.0124    4.8025 H   0  0  0  0  0  0  0  0  0  0  0  0
   11.5257   -3.0116    0.1552 H   0  0  0  0  0  0  0  0  0  0  0  0
   12.6100   -3.6351    5.0629 H   0  0  0  0  0  0  0  0  0  0  0  0
   15.0917   -4.9624    3.1051 H   0  0  0  0  0  0  0  0  0  0  0  0
   15.9291   -2.6343    4.0928 H   0  0  0  0  0  0  0  0  0  0  0  0
   17.8907   -3.7059    2.7109 H   0  0  0  0  0  0  0  0  0  0  0  0
   17.3565   -3.3820    0.1289 H   0  0  0  0  0  0  0  0  0  0  0  0
   15.0673   -2.1100   -0.0794 H   0  0  0  0  0  0  0  0  0  0  0  0
   14.2729   -1.3880    2.3844 H   0  0  0  0  0  0  0  0  0  0  0  0
   15.9575   -0.8958    2.0971 H   0  0  0  0  0  0  0  0  0  0  0  0
   14.5691   -4.6455    0.5743 H   0  0  0  0  0  0  0  0  0  0  0  0
    3.2597   -2.2081    4.7093 H   0  0  0  0  0  0  0  0  0  0  0  0
    1.0474   -1.8916    5.7541 H   0  0  0  0  0  0  0  0  0  0  0  0
    0.3433    2.2955    8.3599 H   0  0  0  0  0  0  0  0  0  0  0  0
   -1.3309    2.0812    7.8169 H   0  0  0  0  0  0  0  0  0  0  0  0
   -0.0710    2.4678    6.6225 H   0  0  0  0  0  0  0  0  0  0  0  0
    2.2870    1.9424    7.1936 H   0  0  0  0  0  0  0  0  0  0  0  0
    4.4653    1.6359    6.1384 H   0  0  0  0  0  0  0  0  0  0  0  0
    7.3943    0.9382    3.9493 H   0  0  0  0  0  0  0  0  0  0  0  0
    9.4059    1.4428    5.2807 H   0  0  0  0  0  0  0  0  0  0  0  0
    9.4416    0.0506   10.0605 H   0  0  0  0  0  0  0  0  0  0  0  0
   11.1360   -0.3425    9.6963 H   0  0  0  0  0  0  0  0  0  0  0  0
    9.8400   -1.3026    8.9514 H   0  0  0  0  0  0  0  0  0  0  0  0
    7.5905   -0.3750    8.6996 H   0  0  0  0  0  0  0  0  0  0  0  0
    5.6216   -0.9174    7.3704 H   0  0  0  0  0  0  0  0  0  0  0  0
    6.5673   -0.9553   -2.3238 H   0  0  0  0  0  0  0  0  0  0  0  0
    8.1227   -2.8327   -2.5308 H   0  0  0  0  0  0  0  0  0  0  0  0
    9.3532   -3.9405   -0.6829 H   0  0  0  0  0  0  0  0  0  0  0  0
   10.1861   -5.4972   -0.9489 H   0  0  0  0  0  0  0  0  0  0  0  0
    9.9004   -4.4124   -2.3273 H   0  0  0  0  0  0  0  0  0  0  0  0
    5.2575   -5.4243   -0.7020 H   0  0  0  0  0  0  0  0  0  0  0  0
    3.6806   -3.5260   -0.5071 H   0  0  0  0  0  0  0  0  0  0  0  0
    3.6419    1.5750   -0.6855 H   0  0  0  0  0  0  0  0  0  0  0  0
    3.3956    3.2914   -2.4134 H   0  0  0  0  0  0  0  0  0  0  0  0
    5.5194    2.3757   -6.2584 H   0  0  0  0  0  0  0  0  0  0  0  0
    4.0454    1.8935   -7.1562 H   0  0  0  0  0  0  0  0  0  0  0  0
    4.6593    3.5592   -7.2732 H   0  0  0  0  0  0  0  0  0  0  0  0
    4.0967    0.3558   -5.4420 H   0  0  0  0  0  0  0  0  0  0  0  0
    4.2900   -1.3640   -3.7312 H   0  0  0  0  0  0  0  0  0  0  0  0
    1.1450    1.7430    4.4040 H   0  0  0  0  0  0  0  0  0  0  0  0
    1.6476    4.1279    4.8335 H   0  0  0  0  0  0  0  0  0  0  0  0
    1.6862    8.3498    1.9385 H   0  0  0  0  0  0  0  0  0  0  0  0
    0.3969    7.2867    1.3340 H   0  0  0  0  0  0  0  0  0  0  0  0
    2.1205    6.9108    0.9895 H   0  0  0  0  0  0  0  0  0  0  0  0
    0.6712    5.0437    0.7716 H   0  0  0  0  0  0  0  0  0  0  0  0
    0.1623    2.7069    0.3598 H   0  0  0  0  0  0  0  0  0  0  0  0
   -1.4566    1.6680    3.9497 H   0  0  0  0  0  0  0  0  0  0  0  0
   -2.8082    0.3366    5.4751 H   0  0  0  0  0  0  0  0  0  0  0  0
   -2.7177   -0.9318    7.5465 H   0  0  0  0  0  0  0  0  0  0  0  0
   -4.3341   -0.8415    6.7664 H   0  0  0  0  0  0  0  0  0  0  0  0
   -3.9708   -2.1382    7.9239 H   0  0  0  0  0  0  0  0  0  0  0  0
   -1.1244   -3.2443    3.8604 H   0  0  0  0  0  0  0  0  0  0  0  0
    0.2486   -1.8947    2.3206 H   0  0  0  0  0  0  0  0  0  0  0  0
   -3.6021   -0.5668   -5.3638 H   0  0  0  0  0  0  0  0  0  0  0  0
   -5.5800   -1.9205   -5.8522 H   0  0  0  0  0  0  0  0  0  0  0  0
   -7.0661   -3.4129   -6.6722 H   0  0  0  0  0  0  0  0  0  0  0  0
   -8.4717   -4.1922   -5.9223 H   0  0  0  0  0  0  0  0  0  0  0  0
   -7.9839   -2.5735   -5.3719 H   0  0  0  0  0  0  0  0  0  0  0  0
   -4.7277   -4.3634   -2.4451 H   0  0  0  0  0  0  0  0  0  0  0  0
   -2.7904   -2.9428   -1.9142 H   0  0  0  0  0  0  0  0  0  0  0  0
   -1.5652   -2.4230   -5.4658 H   0  0  0  0  0  0  0  0  0  0  0  0
    0.0843   -2.1093   -7.2226 H   0  0  0  0  0  0  0  0  0  0  0  0
    0.3483   -0.2632   -9.1017 H   0  0  0  0  0  0  0  0  0  0  0  0
    1.3748   -1.7361   -9.1271 H   0  0  0  0  0  0  0  0  0  0  0  0
    1.9348   -0.2449   -9.9113 H   0  0  0  0  0  0  0  0  0  0  0  0
    1.5866    1.3356   -5.1881 H   0  0  0  0  0  0  0  0  0  0  0  0
   -0.0649    1.0290   -3.4279 H   0  0  0  0  0  0  0  0  0  0  0  0
   -4.2164    2.4233   -0.2606 H   0  0  0  0  0  0  0  0  0  0  0  0
   -3.6315    4.0441    1.4174 H   0  0  0  0  0  0  0  0  0  0  0  0
   -3.3212    5.6564    3.0954 H   0  0  0  0  0  0  0  0  0  0  0  0
   -1.7647    4.8568    2.6912 H   0  0  0  0  0  0  0  0  0  0  0  0
   -1.7782    6.4478    3.4854 H   0  0  0  0  0  0  0  0  0  0  0  0
   -2.1724    6.6767   -1.6151 H   0  0  0  0  0  0  0  0  0  0  0  0
   -2.7737    5.0341   -3.3247 H   0  0  0  0  0  0  0  0  0  0  0  0
   -4.6303    1.6033   -5.1526 H   0  0  0  0  0  0  0  0  0  0  0  0
   -3.4541    1.4687   -7.3023 H   0  0  0  0  0  0  0  0  0  0  0  0
    0.3912    4.2073   -7.7252 H   0  0  0  0  0  0  0  0  0  0  0  0
    1.2915    2.7119   -7.3120 H   0  0  0  0  0  0  0  0  0  0  0  0
    1.0644    3.1785   -9.0103 H   0  0  0  0  0  0  0  0  0  0  0  0
   -0.0368    3.3409   -5.5420 H   0  0  0  0  0  0  0  0  0  0  0  0
   -1.1587    3.3848   -3.4000 H   0  0  0  0  0  0  0  0  0  0  0  0
  -11.0378   -1.7628   -1.9903 H   0  0  0  0  0  0  0  0  0  0  0  0
  -13.4039   -1.0746   -1.8456 H   0  0  0  0  0  0  0  0  0  0  0  0
  -14.3476    3.3605   -0.1440 H   0  0  0  0  0  0  0  0  0  0  0  0
  -15.7766    3.4172   -1.2013 H   0  0  0  0  0  0  0  0  0  0  0  0
  -14.1693    3.6904   -1.8997 H   0  0  0  0  0  0  0  0  0  0  0  0
  -12.1687    2.9237   -0.9500 H   0  0  0  0  0  0  0  0  0  0  0  0
   -9.8444    2.2517   -1.1265 H   0  0  0  0  0  0  0  0  0  0  0  0
   -7.6882   -2.2453   -2.8877 H   0  0  0  0  0  0  0  0  0  0  0  0
   -7.1179   -4.3534   -1.7972 H   0  0  0  0  0  0  0  0  0  0  0  0
   -5.6950   -5.7000   -0.4253 H   0  0  0  0  0  0  0  0  0  0  0  0
   -6.3303   -7.1440    0.3925 H   0  0  0  0  0  0  0  0  0  0  0  0
   -7.1885   -6.4960   -1.0220 H   0  0  0  0  0  0  0  0  0  0  0  0
   -8.8523   -2.9266    1.8481 H   0  0  0  0  0  0  0  0  0  0  0  0
   -9.4423   -0.8087    0.7252 H   0  0  0  0  0  0  0  0  0  0  0  0
   -9.5879    2.9621   -4.3991 H   0  0  0  0  0  0  0  0  0  0  0  0
  -11.3572   -2.9922   -5.0942 H   0  0  0  0  0  0  0  0  0  0  0  0
  -14.6287    0.7362   -5.4936 H   0  0  0  0  0  0  0  0  0  0  0  0
  1  2  2  0  0  0  0
  2  3  1  0  0  0  0
  3  4  2  0  0  0  0
  3  5  1  0  0  0  0
  5  6  2  0  0  0  0
  6  7  1  0  0  0  0
  7  8  2  0  0  0  0
  8  9  1  0  0  0  0
  9 10  2  0  0  0  0
 10 11  1  0  0  0  0
 11 12  2  0  0  0  0
 12 13  1  0  0  0  0
 13 14  3  0  0  0  0
 12 15  1  0  0  0  0
 15 16  3  0  0  0  0
  8 17  1  0  0  0  0
 17 18  1  0  0  0  0
 18 19  1  0  0  0  0
 19 20  2  0  0  0  0
 20 21  1  0  0  0  0
 21 22  1  0  0  0  0
 21 23  1  0  0  0  0
  1 24  1  0  0  0  0
 24 25  2  0  0  0  0
 25 26  1  0  0  0  0
 26 27  1  0  0  0  0
 27 28  2  0  0  0  0
 28 29  1  0  0  0  0
 29 30  2  0  0  0  0
 30 31  1  0  0  0  0
 31 32  1  0  0  0  0
 30 33  1  0  0  0  0
 33 34  2  0  0  0  0
 26 35  1  0  0  0  0
 35 36  2  0  0  0  0
 36 37  1  0  0  0  0
 37 38  2  0  0  0  0
 38 39  1  0  0  0  0
 39 40  1  0  0  0  0
 38 41  1  0  0  0  0
 41 42  2  0  0  0  0
 25 43  1  0  0  0  0
 43 44  1  0  0  0  0
 44 45  1  0  0  0  0
 45 46  2  0  0  0  0
 46 47  1  0  0  0  0
 47 48  1  0  0  0  0
 48 49  2  0  0  0  0
 49 50  1  0  0  0  0
 50 51  2  0  0  0  0
 51 52  1  0  0  0  0
 52 53  1  0  0  0  0
 51 54  1  0  0  0  0
 54 55  2  0  0  0  0
 47 56  1  0  0  0  0
 56 57  2  0  0  0  0
 57 58  1  0  0  0  0
 58 59  2  0  0  0  0
 59 60  1  0  0  0  0
 60 61  1  0  0  0  0
 59 62  1  0  0  0  0
 62 63  2  0  0  0  0
 46 64  1  0  0  0  0
 64 65  1  0  0  0  0
 45 66  1  0  0  0  0
 66 67  2  0  0  0  0
 67 68  1  0  0  0  0
 68 69  1  0  0  0  0
 69 70  2  0  0  0  0
 70 71  1  0  0  0  0
 71 72  2  0  0  0  0
 72 73  1  0  0  0  0
 73 74  1  0  0  0  0
 72 75  1  0  0  0  0
 75 76  2  0  0  0  0
 68 77  1  0  0  0  0
 77 78  2  0  0  0  0
 78 79  1  0  0  0  0
 79 80  2  0  0  0  0
 80 81  1  0  0  0  0
 81 82  1  0  0  0  0
 80 83  1  0  0  0  0
 83 84  2  0  0  0  0
 67 85  1  0  0  0  0
 85 86  1  0  0  0  0
 86 87  1  0  0  0  0
 87 88  2  0  0  0  0
 88 89  1  0  0  0  0
 89 90  1  0  0  0  0
 90 91  2  0  0  0  0
 91 92  1  0  0  0  0
 92 93  2  0  0  0  0
 93 94  1  0  0  0  0
 94 95  1  0  0  0  0
 93 96  1  0  0  0  0
 96 97  2  0  0  0  0
 89 98  1  0  0  0  0
 98 99  2  0  0  0  0
 99100  1  0  0  0  0
100101  2  0  0  0  0
101102  1  0  0  0  0
102103  1  0  0  0  0
101104  1  0  0  0  0
104105  2  0  0  0  0
 88106  1  0  0  0  0
106107  1  0  0  0  0
 87108  1  0  0  0  0
108109  2  0  0  0  0
109110  1  0  0  0  0
110111  1  0  0  0  0
111112  2  0  0  0  0
112113  1  0  0  0  0
113114  2  0  0  0  0
114115  1  0  0  0  0
115116  1  0  0  0  0
114117  1  0  0  0  0
117118  2  0  0  0  0
110119  1  0  0  0  0
119120  2  0  0  0  0
120121  1  0  0  0  0
121122  2  0  0  0  0
122123  1  0  0  0  0
123124  1  0  0  0  0
122125  1  0  0  0  0
125126  2  0  0  0  0
109127  1  0  0  0  0
127128  1  0  0  0  0
128129  1  0  0  0  0
129130  2  0  0  0  0
130131  1  0  0  0  0
131132  1  0  0  0  0
132133  2  0  0  0  0
133134  1  0  0  0  0
134135  2  0  0  0  0
135136  1  0  0  0  0
136137  1  0  0  0  0
135138  1  0  0  0  0
138139  2  0  0  0  0
131140  1  0  0  0  0
140141  2  0  0  0  0
141142  1  0  0  0  0
142143  2  0  0  0  0
143144  1  0  0  0  0
144145  1  0  0  0  0
143146  1  0  0  0  0
146147  2  0  0  0  0
130148  1  0  0  0  0
148149  1  0  0  0  0
129150  1  0  0  0  0
150151  2  0  0  0  0
151152  1  0  0  0  0
152153  2  0  0  0  0
152154  1  0  0  0  0
154155  2  0  0  0  0
155156  1  0  0  0  0
156157  1  0  0  0  0
156158  2  0  0  0  0
158159  1  0  0  0  0
158160  1  0  0  0  0
160161  2  0  0  0  0
161162  1  0  0  0  0
162163  2  0  0  0  0
163164  1  0  0  0  0
164165  3  0  0  0  0
163166  1  0  0  0  0
166167  3  0  0  0  0
 11  2  1  0  0  0  0
 23 17  1  0  0  0  0
 65 24  1  0  0  0  0
107 66  1  0  0  0  0
149108  1  0  0  0  0
162151  1  0  0  0  0
 10  5  1  0  0  0  0
 22 18  1  0  0  0  0
 34 27  1  0  0  0  0
 42 35  1  0  0  0  0
 64 43  2  0  0  0  0
 76 69  1  0  0  0  0
 84 77  1  0  0  0  0
106 85  2  0  0  0  0
118111  1  0  0  0  0
126119  1  0  0  0  0
148127  2  0  0  0  0
161154  1  0  0  0  0
 23  7  1  0  0  0  0
 55 48  1  0  0  0  0
 63 56  1  0  0  0  0
 97 90  1  0  0  0  0
105 98  1  0  0  0  0
139132  1  0  0  0  0
147140  1  0  0  0  0
  1168  1  0  0  0  0
  6169  1  0  0  0  0
  9170  1  0  0  0  0
 17171  1  0  0  0  0
 18172  1  0  0  0  0
 19173  1  0  0  0  0
 20174  1  0  0  0  0
 21175  1  0  0  0  0
 22176  1  0  0  0  0
 22177  1  0  0  0  0
 23178  1  0  0  0  0
 28179  1  0  0  0  0
 29180  1  0  0  0  0
 32181  1  0  0  0  0
 32182  1  0  0  0  0
 32183  1  0  0  0  0
 33184  1  0  0  0  0
 34185  1  0  0  0  0
 36186  1  0  0  0  0
 37187  1  0  0  0  0
 40188  1  0  0  0  0
 40189  1  0  0  0  0
 40190  1  0  0  0  0
 41191  1  0  0  0  0
 42192  1  0  0  0  0
 49193  1  0  0  0  0
 50194  1  0  0  0  0
 53195  1  0  0  0  0
 53196  1  0  0  0  0
 53197  1  0  0  0  0
 54198  1  0  0  0  0
 55199  1  0  0  0  0
 57200  1  0  0  0  0
 58201  1  0  0  0  0
 61202  1  0  0  0  0
 61203  1  0  0  0  0
 61204  1  0  0  0  0
 62205  1  0  0  0  0
 63206  1  0  0  0  0
 70207  1  0  0  0  0
 71208  1  0  0  0  0
 74209  1  0  0  0  0
 74210  1  0  0  0  0
 74211  1  0  0  0  0
 75212  1  0  0  0  0
 76213  1  0  0  0  0
 78214  1  0  0  0  0
 79215  1  0  0  0  0
 82216  1  0  0  0  0
 82217  1  0  0  0  0
 82218  1  0  0  0  0
 83219  1  0  0  0  0
 84220  1  0  0  0  0
 91221  1  0  0  0  0
 92222  1  0  0  0  0
 95223  1  0  0  0  0
 95224  1  0  0  0  0
 95225  1  0  0  0  0
 96226  1  0  0  0  0
 97227  1  0  0  0  0
 99228  1  0  0  0  0
100229  1  0  0  0  0
103230  1  0  0  0  0
103231  1  0  0  0  0
103232  1  0  0  0  0
104233  1  0  0  0  0
105234  1  0  0  0  0
112235  1  0  0  0  0
113236  1  0  0  0  0
116237  1  0  0  0  0
116238  1  0  0  0  0
116239  1  0  0  0  0
117240  1  0  0  0  0
118241  1  0  0  0  0
120242  1  0  0  0  0
121243  1  0  0  0  0
124244  1  0  0  0  0
124245  1  0  0  0  0
124246  1  0  0  0  0
125247  1  0  0  0  0
126248  1  0  0  0  0
133249  1  0  0  0  0
134250  1  0  0  0  0
137251  1  0  0  0  0
137252  1  0  0  0  0
137253  1  0  0  0  0
138254  1  0  0  0  0
139255  1  0  0  0  0
141256  1  0  0  0  0
142257  1  0  0  0  0
145258  1  0  0  0  0
145259  1  0  0  0  0
145260  1  0  0  0  0
146261  1  0  0  0  0
147262  1  0  0  0  0
150263  1  0  0  0  0
155264  1  0  0  0  0
160265  1  0  0  0  0
M  END
