151

C         -3.25760       -1.33640        2.95300
C         -3.96870       -0.22180        3.33550
C         -3.45680        1.15520        3.23000
O         -2.38680        1.51020        2.77110
C         -4.45440        2.00570        3.91010
C         -4.41870        3.38880        4.05260
C         -5.52490        3.91550        4.67710
C         -6.58290        3.12280        5.13810
C         -6.62010        1.75290        5.02390
C         -5.50920        1.20100        4.38420
C         -5.22520       -0.18660        4.03020
C         -6.08280       -1.25040        4.17440
C         -7.34430       -1.18780        4.79450
N         -8.38910       -1.21810        5.27230
C         -5.84390       -2.52920        3.63510
N         -5.75010       -3.57860        3.17540
C         -7.37030        4.31370        5.62200
C         -8.55340        4.79150        4.74380
C         -8.23530        4.38160        3.32680
C         -7.23490        5.14250        2.90250
C         -6.85460        6.07440        4.02610
C         -8.23170        6.29300        4.67240
C         -6.18770        5.19830        5.11550
C         -2.25330       -1.37060        1.97900
C         -2.00970       -0.55080        0.85860
N         -2.83280        0.41830        0.35820
C         -4.21180        0.45470        0.59840
C         -4.84110        1.67950        0.83690
C         -6.18250        1.72550        1.14090
C         -6.93520        0.55360        1.20620
S         -8.61520        0.73060        1.69730
C         -9.27590       -0.95750        1.66830
C         -6.32850       -0.66090        0.90280
C         -4.98150       -0.70670        0.60560
C         -2.28090        1.46340       -0.41240
C         -1.16440        2.16410        0.03900
C         -0.66160        3.20530       -0.70690
C         -1.25110        3.55690       -1.92110
S         -0.50580        4.89940       -2.79220
C         -1.50470        5.06240       -4.29790
C         -2.36570        2.86110       -2.36930
C         -2.87860        1.82380       -1.61430
C         -0.82070       -0.95290        0.19920
S          0.06980       -0.34320       -1.16120
C          1.20250       -1.66590       -1.02610
C          0.97460       -2.47210        0.08900
N          1.83790       -3.43450        0.57150
C          3.22650       -3.28000        0.44660
C          4.04240       -4.37790        0.18010
C          5.40030       -4.22050       -0.02410
C          5.97130       -2.95550        0.02540
S          7.67350       -2.61970       -0.28850
C          8.45110       -4.25480       -0.36370
C          5.16340       -1.85750        0.32870
C          3.81530       -2.01620        0.54800
C          1.30430       -4.56850        1.19970
C          1.92420       -5.11980        2.32130
C          1.37720       -6.22020        2.93960
C          0.19830       -6.79200        2.46000
S         -0.41200       -8.18900        3.34280
C         -2.03300       -8.50710        2.59020
C         -0.41200       -6.25420        1.33450
C          0.14030       -5.15410        0.70970
C         -0.21180       -2.07280        0.74980
S         -1.08020       -2.68900        2.10380
C          2.30200       -1.79500       -1.93210
C          2.81660       -3.03860       -2.28820
F          2.08780       -4.14530       -2.04900
C          4.07430       -3.19900       -2.86290
F          4.49160       -4.45300       -3.09840
C          4.89620       -2.11000       -3.12550
C          4.30440       -0.82720       -2.95840
N          5.01820        0.24520       -3.31290
C          4.52790        1.45200       -3.15630
C          5.37860        2.57910       -3.64890
C          5.11040        2.82050       -5.13740
C          3.22610        1.61600       -2.60370
N          2.51870        0.57410       -2.23340
C          3.01860       -0.65720       -2.39570
C          2.60090        2.95500       -2.37610
C          3.03950        3.52740       -1.02570
C          6.28320       -2.18110       -3.46440
C          7.08610       -3.29370       -3.58540
C          8.44420       -2.99630       -3.76330
C          9.41370       -4.09420       -3.96780
O          9.25350       -5.20630       -3.53470
O         10.45780       -3.72800       -4.72370
C         11.43860       -4.73330       -4.94560
C          8.68220       -1.63050       -3.78630
S          7.19930       -0.71920       -3.61390
C          9.91080       -0.90360       -3.85560
C         11.10140       -1.27850       -3.28040
C         11.23640       -2.40800       -2.45140
N         11.37220       -3.29320       -1.73340
C         12.26990       -0.50330       -3.43380
N         13.23380        0.10450       -3.56070
C          9.84830        0.35340       -4.50880
N          9.77600        1.36510       -5.04150
H         -3.44690       -2.27400        3.46240
H         -3.58690        3.96490        3.67760
H         -7.43670        1.15380        5.39120
H         -7.60720        4.33570        6.68380
H         -9.53380        4.50560        5.11460
H         -8.71760        3.56650        2.81850
H         -6.71400        5.10060        1.96310
H         -6.28680        6.95820        3.74650
H         -8.91710        6.84110        4.02770
H         -8.18150        6.77300        5.64870
H         -5.64390        5.78970        5.84980
H         -4.26120        2.58920        0.80650
H         -6.66100        2.66680        1.36060
H         -8.74210       -1.58260        2.37780
H        -10.31310       -0.86650        1.97530
H         -9.22140       -1.36020        0.66110
H         -6.88860       -1.58200        0.90840
H         -4.52210       -1.65900        0.38700
H         -0.73310        1.90820        0.99330
H          0.18460        3.77070       -0.35100
H         -2.52980        5.31210       -4.04010
H         -1.05780        5.87810       -4.85780
H         -1.45350        4.14570       -4.87810
H         -2.84650        3.11380       -3.30020
H         -3.75080        1.28820       -1.95930
H          3.60170       -5.36030        0.10150
H          5.99660       -5.08950       -0.24910
H          8.10380       -4.80430       -1.23340
H          9.51630       -4.06430       -0.46460
H          8.25350       -4.79230        0.55870
H          5.61490       -0.87950        0.39660
H          3.20630       -1.15860        0.79220
H          2.82780       -4.67240        2.70700
H          1.84910       -6.64690        3.81120
H         -2.47670       -9.30350        3.17970
H         -2.64850       -7.61470        2.65200
H         -1.91120       -8.83650        1.56230
H         -1.31120       -6.68600        0.92710
H         -0.32330       -4.75370       -0.17930
H          5.18370        3.48960       -3.08460
H          6.42440        2.29600       -3.52460
H          5.74160        3.62680       -5.49990
H          4.06920        3.08690       -5.30810
H          5.33660        1.92150       -5.70480
H          1.51950        2.82140       -2.36800
H          2.86750        3.64620       -3.17470
H          2.72150        2.86780       -0.22220
H          4.12110        3.63330       -0.97510
H          2.58920        4.50570       -0.87910
H          6.72850       -4.30640       -3.55280
H         11.89810       -5.01870       -3.99690
H         12.17560       -4.29590       -5.61380
H         10.98010       -5.61460       -5.39770
