219

C          5.18560       -4.44530        4.56470
C          4.85450       -5.60450        5.22380
C          3.50590       -6.06720        5.56700
O          2.48210       -5.40640        5.63150
C          3.62820       -7.50460        5.86330
C          2.59520       -8.39720        6.13940
C          3.01810       -9.68500        6.36740
C          4.36770      -10.05840        6.32610
C          5.39650       -9.18690        6.05380
C          4.98830       -7.87210        5.81400
C          5.77720       -6.68570        5.48720
C          7.14830       -6.62880        5.43990
C          8.00830       -7.73390        5.59380
N          8.78540       -8.57590        5.67840
C          7.90830       -5.45730        5.26510
N          8.61630       -4.55710        5.16010
C          4.05980      -11.50300        6.63440
C          4.10500      -12.48650        5.44570
C          3.31180      -13.67810        5.93190
C          2.03370      -13.32360        5.97080
C          1.94140      -11.88610        5.51210
C          3.08250      -11.86300        4.48680
C          2.55480      -11.08570        6.68060
C          4.36210       -3.44690        4.03560
C          4.78590       -2.49020        3.08130
N          6.01980       -2.45440        2.47900
C          6.73490       -3.62980        2.18460
C          6.06470       -4.77440        1.74650
C          6.75350       -5.95180        1.57170
C          8.12860       -6.00730        1.80200
S          8.89980       -7.58500        1.63910
C         10.46930       -7.37640        2.52490
C          8.81050       -4.84710        2.14230
C          8.11650       -3.66920        2.34230
C          6.52970       -1.21740        2.05220
C          6.38170       -0.08650        2.85070
C          6.85310        1.14070        2.42940
C          7.48940        1.25490        1.20040
S          8.12130        2.76800        0.55500
C          7.42620        4.03050        1.65930
C          7.66590        0.11790        0.41220
C          7.19080       -1.10410        0.82920
C          3.73780       -1.60760        2.75660
S          3.56240       -0.28360        1.64300
C          1.86040       -0.16970        2.03700
C          1.47780       -1.05050        3.02840
N          0.22870       -1.03600        3.62530
C         -0.27210       -2.25740        4.09390
C         -0.80150       -2.38240        5.37550
C         -1.15000       -3.62620        5.85960
C         -0.96930       -4.75730        5.07510
S         -1.29790       -6.37970        5.70910
C         -0.46390       -6.26060        7.32330
C         -0.51220       -4.62900        3.77080
C         -0.16610       -3.38720        3.28230
C         -0.34780        0.19150        3.96770
C          0.45900        1.28840        4.26850
C         -0.09460        2.50470        4.60240
C         -1.47370        2.64920        4.64810
S         -2.23880        4.16680        5.12580
C         -0.98960        5.41170        4.68490
C         -2.28900        1.55870        4.36210
C         -1.73260        0.34300        4.02110
C          2.55130       -1.88220        3.42450
S          2.66210       -3.24890        4.46530
C          0.92950        0.61360        1.25280
C         -0.17940       -0.05010        0.68360
N         -0.59470       -1.31830        0.80230
N         -1.62150       -1.39730        0.00340
C         -2.39240       -2.60270       -0.10410
C         -3.23310       -2.80620        1.15190
N         -1.93580       -0.32080       -0.65690
C         -1.03180        0.58570       -0.25910
C         -0.85010        1.92970       -0.64700
C          0.16620        2.59150        0.02030
C          1.04000        1.94870        0.91790
F          2.04460        2.68030        1.43830
F          0.40500        3.88760       -0.25880
C         -1.55140        2.45270       -1.79350
C         -2.09550        3.69890       -2.03830
N         -2.35330        4.66800       -1.08250
C         -2.98650        4.33930        0.12400
C         -3.01600        5.27670        1.15540
C         -3.74890        5.04880        2.30380
C         -4.44730        3.85940        2.46010
S         -5.47300        3.47900        3.84660
C         -5.68200        5.07330        4.68200
C         -4.35840        2.88850        1.46680
C         -3.64810        3.12410        0.31120
C         -2.43080        5.98870       -1.57700
C         -1.35360        6.49600       -2.29620
C         -1.43490        7.73250       -2.90510
C         -2.60230        8.47610       -2.80630
S         -2.82540       10.03420       -3.60230
C         -1.60190        9.96090       -4.94630
C         -3.66350        7.99500       -2.04370
C         -3.58270        6.76160       -1.43660
C         -2.51380        3.80700       -3.39150
S         -3.12050        5.10060       -4.35700
C         -3.32070        4.01090       -5.72620
C         -2.83640        2.71780       -5.44510
N         -2.83200        1.65170       -6.31230
C         -2.95760        0.36520       -5.75260
C         -2.09520       -0.66390       -6.11280
C         -2.18060       -1.89790       -5.49710
C         -3.12940       -2.11730       -4.50760
S         -3.29670       -3.62750       -3.60990
C         -1.92350       -4.65340       -4.20480
C         -4.02220       -1.10080       -4.17350
C         -3.94140        0.12510       -4.79220
C         -2.54560        1.78680       -7.67880
C         -1.65730        2.75680       -8.13520
C         -1.37900        2.87850       -9.48210
C         -1.97700        2.02210      -10.39850
S         -1.69420        2.07030      -12.13750
C         -0.61460        3.51060      -12.36980
C         -2.85640        1.04080       -9.94190
C         -3.14020        0.92390       -8.60020
C         -2.37560        2.63220       -4.11690
S         -1.67320        1.36680       -3.16760
C         -4.05180        4.35580       -6.87160
C         -4.55440        5.57850       -7.21950
S         -5.71260        5.74740       -8.53050
C         -5.89690        7.45540       -8.20200
C         -6.76420        8.20930       -8.95430
C         -6.96540        9.59480       -8.87100
N         -7.16250       10.72700       -8.87580
C         -7.53040        7.58040       -9.95720
N         -8.15640        7.07950      -10.77800
N         -5.07450        7.85510       -7.19830
C         -5.06930        9.17600       -6.59120
C         -6.15540        9.31100       -5.55030
C         -7.06170       10.36000       -5.59650
C         -8.04070       10.47670       -4.62460
C         -8.12310        9.54690       -3.60280
C         -7.21670        8.50150       -3.54990
C         -6.23520        8.38470       -4.51680
C         -4.26650        6.87020       -6.64510
O         -3.40210        7.13090       -5.82380
H          6.23700       -4.31530        4.34420
H          1.56690       -8.07290        6.15170
H          6.43030       -9.48870        6.02160
H          4.51750      -11.90430        7.53660
H          5.10010      -12.68570        5.05740
H          3.75360      -14.60750        6.24010
H          1.19470      -13.89750        6.31820
H          0.96550      -11.53790        5.18450
H          2.87870      -12.50320        3.63000
H          3.34870      -10.86600        4.14100
H          2.00860      -11.20920        7.61400
H          4.99870       -4.73900        1.57780
H          6.23720       -6.84720        1.26110
H         11.16190       -6.78450        1.93340
H         10.28170       -6.91970        3.49200
H         10.86300       -8.37860        2.66220
H          9.87780       -4.85210        2.28790
H          8.64580       -2.78170        2.65210
H          5.90030       -0.17250        3.81370
H          6.72400        1.99570        3.07240
H          6.34710        3.91940        1.70640
H          7.87730        3.95850        2.64490
H          7.68150        4.98490        1.20940
H          8.16950        0.21200       -0.53750
H          7.31560       -1.97710        0.20640
H         -0.90980       -1.50720        5.99900
H         -1.54060       -3.71390        6.86150
H         -0.37440       -7.27490        7.70010
H          0.51640       -5.81970        7.16640
H         -1.05430       -5.66750        8.01530
H         -0.40750       -5.51020        3.15700
H          0.21080       -3.27230        2.27740
H          1.53370        1.18680        4.26030
H          0.56020        3.32670        4.84330
H         -0.62630        5.21320        3.68110
H         -1.49690        6.37110        4.71380
H         -0.17830        5.41060        5.40700
H         -3.36080        1.67400        4.40680
H         -2.36890       -0.50000        3.79620
H         -1.70080       -3.43880       -0.22870
H         -3.02040       -2.50530       -0.99100
H         -2.58790       -2.89030        2.02390
H         -3.91340       -1.96960        1.29150
H         -3.81530       -3.71790        1.05800
H         -2.48040        6.20750        1.03990
H         -3.77030        5.80710        3.06930
H         -6.44840        4.91190        5.43370
H         -6.01430        5.81820        3.96520
H         -4.75150        5.36350        5.16090
H         -4.88450        1.95500        1.59650
H         -3.64250        2.36960       -0.45980
H         -0.45320        5.90600       -2.38220
H         -0.58680        8.09960       -3.45930
H         -1.68050        8.99300       -5.43330
H         -0.60110       10.12930       -4.55890
H         -1.86310       10.75940       -5.63450
H         -4.56150        8.58840       -1.96190
H         -4.42260        6.37600       -0.87780
H         -1.34160       -0.49110       -6.86660
H         -1.48970       -2.67170       -5.78960
H         -1.97280       -5.57100       -3.62670
H         -0.97930       -4.14940       -4.02050
H         -2.05430       -4.87740       -5.25940
H         -4.77330       -1.28430       -3.42120
H         -4.63120        0.91250       -4.52770
H         -1.18010        3.42000       -7.42930
H         -0.68430        3.63840       -9.80080
H         -1.10570        4.40500      -11.99800
H         -0.46540        3.59140      -13.44200
H          0.33990        3.34700      -11.87780
H         -3.31820        0.37770      -10.65670
H         -3.82890        0.16760       -8.25460
H         -4.30730        3.53220       -7.52790
H         -4.09500        9.26980       -6.10130
H         -5.16300        9.94050       -7.36230
H         -7.00600       11.08560       -6.39370
H         -8.74170       11.29640       -4.66950
H         -8.88930        9.63780       -2.84720
H         -7.27000        7.77540       -2.75160
H         -5.51950        7.57760       -4.45510
