
  xtb     02072223433D
 energy: -336.364030534703 gnorm: 0.000573257461 xtb: 6.4.1 (unknown)
192215  0     0  0            999 V2000
   -1.7505   -3.6159  -10.1996 C   0  0  0  0  0  0  0  0  0  0  0  0
   -3.0182   -4.0941  -10.3392 C   0  0  0  0  0  0  0  0  0  0  0  0
   -3.5548   -4.3588  -11.7027 C   0  0  0  0  0  0  0  0  0  0  0  0
   -3.0764   -3.9975  -12.7539 O   0  0  0  0  0  0  0  0  0  0  0  0
   -4.7569   -5.1910  -11.4953 C   0  0  0  0  0  0  0  0  0  0  0  0
   -5.5460   -5.7937  -12.4718 C   0  0  0  0  0  0  0  0  0  0  0  0
   -6.5916   -6.5318  -11.9705 C   0  0  0  0  0  0  0  0  0  0  0  0
   -6.8275   -6.6770  -10.5969 C   0  0  0  0  0  0  0  0  0  0  0  0
   -6.0603   -6.0849   -9.6221 C   0  0  0  0  0  0  0  0  0  0  0  0
   -5.0035   -5.3142  -10.1119 C   0  0  0  0  0  0  0  0  0  0  0  0
   -4.0196   -4.5114   -9.3895 C   0  0  0  0  0  0  0  0  0  0  0  0
   -4.1669   -4.0610   -8.1013 C   0  0  0  0  0  0  0  0  0  0  0  0
   -3.3537   -3.0886   -7.4920 C   0  0  0  0  0  0  0  0  0  0  0  0
   -2.7514   -2.2902   -6.9252 N   0  0  0  0  0  0  0  0  0  0  0  0
   -5.1924   -4.4694   -7.2261 C   0  0  0  0  0  0  0  0  0  0  0  0
   -5.9785   -4.7750   -6.4461 N   0  0  0  0  0  0  0  0  0  0  0  0
   -8.0356   -7.5529  -10.8156 C   0  0  0  0  0  0  0  0  0  0  0  0
   -9.4313   -6.9096  -10.6260 C   0  0  0  0  0  0  0  0  0  0  0  0
   -9.2630   -5.4354  -10.8996 C   0  0  0  0  0  0  0  0  0  0  0  0
   -9.0448   -5.2878  -12.1995 C   0  0  0  0  0  0  0  0  0  0  0  0
   -9.0615   -6.6592  -12.8282 C   0  0  0  0  0  0  0  0  0  0  0  0
  -10.1025   -7.3534  -11.9354 C   0  0  0  0  0  0  0  0  0  0  0  0
   -7.7790   -7.3826  -12.3462 C   0  0  0  0  0  0  0  0  0  0  0  0
   -0.9129   -3.6021   -9.0557 C   0  0  0  0  0  0  0  0  0  0  0  0
   -1.0180   -4.4694   -7.9479 C   0  0  0  0  0  0  0  0  0  0  0  0
   -0.1893   -4.3177   -6.7723 C   0  0  0  0  0  0  0  0  0  0  0  0
   -0.4694   -5.2345   -5.8460 N   0  0  0  0  0  0  0  0  0  0  0  0
   -1.6281   -6.1990   -6.3906 S   0  0  0  0  0  4  0  0  0  0  0  0
   -1.8498   -5.5071   -7.8249 N   0  0  0  0  0  0  0  0  0  0  0  0
    0.7653   -3.2912   -6.6251 C   0  0  0  0  0  0  0  0  0  0  0  0
    0.9544   -2.4977   -7.7772 C   0  0  0  0  0  0  0  0  0  0  0  0
    1.8390   -1.5089   -7.9264 N   0  0  0  0  0  0  0  0  0  0  0  0
    1.6826   -0.8777   -9.3914 S   0  0  0  0  0  0  0  0  0  0  0  0
    0.4863   -1.8036   -9.9222 N   0  0  0  0  0  0  0  0  0  0  0  0
    0.1492   -2.6733   -8.9689 C   0  0  0  0  0  0  0  0  0  0  0  0
    1.3986   -3.0451   -5.3812 C   0  0  0  0  0  0  0  0  0  0  0  0
    2.2273   -1.9957   -5.0643 C   0  0  0  0  0  0  0  0  0  0  0  0
    2.5698   -1.9454   -3.7018 C   0  0  0  0  0  0  0  0  0  0  0  0
    3.3314   -0.9542   -3.0472 C   0  0  0  0  0  0  0  0  0  0  0  0
    3.9940    0.0870   -3.8064 C   0  0  0  0  0  0  0  0  0  0  0  0
    3.7877    1.7683   -3.4150 S   0  0  0  0  0  0  0  0  0  0  0  0
    4.7928    2.2780   -4.7263 C   0  0  0  0  0  0  0  0  0  0  0  0
    5.0139    3.7211   -5.0174 C   0  0  0  0  0  0  0  0  0  0  0  0
    3.9230    4.2648   -5.9436 C   0  0  0  0  0  0  0  0  0  0  0  0
    5.2512    1.1978   -5.4209 C   0  0  0  0  0  0  0  0  0  0  0  0
    6.2803    1.3082   -6.7891 Cl  0  0  0  0  0  0  0  0  0  0  0  0
    4.8029   -0.0454   -4.9031 C   0  0  0  0  0  0  0  0  0  0  0  0
    5.3105   -1.5494   -5.5535 Cl  0  0  0  0  0  0  0  0  0  0  0  0
    3.3359   -0.9923   -1.6630 C   0  0  0  0  0  0  0  0  0  0  0  0
    2.6769   -2.0011   -0.9176 C   0  0  0  0  0  0  0  0  0  0  0  0
    2.0123   -3.0580   -1.5739 C   0  0  0  0  0  0  0  0  0  0  0  0
    1.3781   -4.1141   -0.8147 C   0  0  0  0  0  0  0  0  0  0  0  0
    1.8471   -4.7417    0.3059 C   0  0  0  0  0  0  0  0  0  0  0  0
    0.9707   -5.7256    0.8037 C   0  0  0  0  0  0  0  0  0  0  0  0
   -0.1743   -5.8471    0.0778 C   0  0  0  0  0  0  0  0  0  0  0  0
   -1.3074   -6.7932    0.2761 C   0  0  0  0  0  0  0  0  0  0  0  0
   -1.3132   -7.8784   -0.8026 C   0  0  0  0  0  0  0  0  0  0  0  0
   -0.1802   -4.7476   -1.2608 S   0  0  0  0  0  0  0  0  0  0  0  0
    1.9506   -2.9831   -2.9583 C   0  0  0  0  0  0  0  0  0  0  0  0
    1.0445   -4.0516   -3.9976 S   0  0  0  0  0  0  0  0  0  0  0  0
    2.6590   -1.7000    0.4622 C   0  0  0  0  0  0  0  0  0  0  0  0
    3.2772   -0.5241    0.7760 C   0  0  0  0  0  0  0  0  0  0  0  0
    4.0343    0.2174   -0.6215 S   0  0  0  0  0  0  0  0  0  0  0  0
    3.1574    0.1781    2.0129 C   0  0  0  0  0  0  0  0  0  0  0  0
    1.9785    0.3204    2.7389 C   0  0  0  0  0  0  0  0  0  0  0  0
    0.7306   -0.1040    2.3226 N   0  0  0  0  0  0  0  0  0  0  0  0
    0.3791   -0.1263    0.9612 C   0  0  0  0  0  0  0  0  0  0  0  0
    0.8275    0.8573    0.0779 C   0  0  0  0  0  0  0  0  0  0  0  0
    0.5439    0.7666   -1.2655 C   0  0  0  0  0  0  0  0  0  0  0  0
   -0.2189   -0.2910   -1.7621 C   0  0  0  0  0  0  0  0  0  0  0  0
   -0.4625   -0.3349   -3.5076 S   0  0  0  0  0  0  0  0  0  0  0  0
   -1.6783   -1.6563   -3.7601 C   0  0  0  0  0  0  0  0  0  0  0  0
   -0.7191   -1.2377   -0.8777 C   0  0  0  0  0  0  0  0  0  0  0  0
   -0.4140   -1.1587    0.4673 C   0  0  0  0  0  0  0  0  0  0  0  0
   -0.2542   -0.3581    3.2888 C   0  0  0  0  0  0  0  0  0  0  0  0
   -1.5615    0.0909    3.1024 C   0  0  0  0  0  0  0  0  0  0  0  0
   -2.4969   -0.0714    4.0995 C   0  0  0  0  0  0  0  0  0  0  0  0
   -2.1439   -0.6777    5.3008 C   0  0  0  0  0  0  0  0  0  0  0  0
   -3.3554   -0.7650    6.5835 S   0  0  0  0  0  0  0  0  0  0  0  0
   -2.3170   -0.5039    8.0542 C   0  0  0  0  0  0  0  0  0  0  0  0
   -0.8651   -1.1913    5.4629 C   0  0  0  0  0  0  0  0  0  0  0  0
    0.0716   -1.0356    4.4617 C   0  0  0  0  0  0  0  0  0  0  0  0
    2.2098    1.0559    3.9301 C   0  0  0  0  0  0  0  0  0  0  0  0
    1.2000    1.5473    5.2420 S   0  0  0  0  0  0  0  0  0  0  0  0
    2.5550    2.4025    5.9854 C   0  0  0  0  0  0  0  0  0  0  0  0
    3.7221    2.3401    5.1814 C   0  0  0  0  0  0  0  0  0  0  0  0
    4.9016    2.9937    5.4265 N   0  0  0  0  0  0  0  0  0  0  0  0
    4.9417    4.2776    5.9980 C   0  0  0  0  0  0  0  0  0  0  0  0
    3.9488    5.2162    5.7082 C   0  0  0  0  0  0  0  0  0  0  0  0
    3.9503    6.4387    6.3383 C   0  0  0  0  0  0  0  0  0  0  0  0
    4.9546    6.7622    7.2513 C   0  0  0  0  0  0  0  0  0  0  0  0
    4.8234    8.3206    8.0666 S   0  0  0  0  0  0  0  0  0  0  0  0
    5.8788    8.1100    9.5288 C   0  0  0  0  0  0  0  0  0  0  0  0
    5.9896    5.8652    7.4734 C   0  0  0  0  0  0  0  0  0  0  0  0
    5.9767    4.6271    6.8603 C   0  0  0  0  0  0  0  0  0  0  0  0
    6.1042    2.4021    5.0004 C   0  0  0  0  0  0  0  0  0  0  0  0
    6.3265    1.0449    5.2134 C   0  0  0  0  0  0  0  0  0  0  0  0
    7.4986    0.4485    4.7928 C   0  0  0  0  0  0  0  0  0  0  0  0
    8.4715    1.2056    4.1534 C   0  0  0  0  0  0  0  0  0  0  0  0
   10.0037    0.5607    3.5709 S   0  0  0  0  0  0  0  0  0  0  0  0
    9.8415   -1.2322    3.8055 C   0  0  0  0  0  0  0  0  0  0  0  0
    8.2574    2.5697    3.9541 C   0  0  0  0  0  0  0  0  0  0  0  0
    7.0885    3.1634    4.3707 C   0  0  0  0  0  0  0  0  0  0  0  0
    3.5105    1.5267    4.0528 C   0  0  0  0  0  0  0  0  0  0  0  0
    4.5066    1.0505    2.7133 S   0  0  0  0  0  0  0  0  0  0  0  0
    2.5109    3.0055    7.2417 C   0  0  0  0  0  0  0  0  0  0  0  0
    1.4591    3.1967    8.1101 C   0  0  0  0  0  0  0  0  0  0  0  0
    0.0687    2.7878    7.9135 C   0  0  0  0  0  0  0  0  0  0  0  0
   -0.3827    2.0594    7.0419 O   0  0  0  0  0  0  0  0  0  0  0  0
   -0.7058    3.4026    9.0046 C   0  0  0  0  0  0  0  0  0  0  0  0
   -2.0804    3.3171    9.2129 C   0  0  0  0  0  0  0  0  0  0  0  0
   -2.5207    4.0087   10.3163 C   0  0  0  0  0  0  0  0  0  0  0  0
   -1.6579    4.7292   11.1521 C   0  0  0  0  0  0  0  0  0  0  0  0
   -0.2984    4.8154   10.9607 C   0  0  0  0  0  0  0  0  0  0  0  0
    0.1702    4.1214    9.8423 C   0  0  0  0  0  0  0  0  0  0  0  0
    1.5327    3.9535    9.3380 C   0  0  0  0  0  0  0  0  0  0  0  0
    2.6677    4.4147    9.9606 C   0  0  0  0  0  0  0  0  0  0  0  0
    3.9870    4.0812    9.6047 C   0  0  0  0  0  0  0  0  0  0  0  0
    5.0944    3.8255    9.4261 N   0  0  0  0  0  0  0  0  0  0  0  0
    2.6822    5.2556   11.0908 C   0  0  0  0  0  0  0  0  0  0  0  0
    2.7913    5.9635   11.9892 N   0  0  0  0  0  0  0  0  0  0  0  0
   -2.7793    5.1830   12.0533 C   0  0  0  0  0  0  0  0  0  0  0  0
   -3.2640    6.6370   11.8719 C   0  0  0  0  0  0  0  0  0  0  0  0
   -4.6338    6.6438   12.5115 C   0  0  0  0  0  0  0  0  0  0  0  0
   -5.4516    5.9607   11.7208 C   0  0  0  0  0  0  0  0  0  0  0  0
   -4.6482    5.4808   10.5333 C   0  0  0  0  0  0  0  0  0  0  0  0
   -3.6645    6.6495   10.3908 C   0  0  0  0  0  0  0  0  0  0  0  0
   -3.7417    4.3786   11.1215 C   0  0  0  0  0  0  0  0  0  0  0  0
   -1.3018   -3.2104  -11.1013 H   0  0  0  0  0  0  0  0  0  0  0  0
   -5.3258   -5.6657  -13.5201 H   0  0  0  0  0  0  0  0  0  0  0  0
   -6.2455   -6.2093   -8.5679 H   0  0  0  0  0  0  0  0  0  0  0  0
   -7.9800   -8.5566  -10.3986 H   0  0  0  0  0  0  0  0  0  0  0  0
   -9.9264   -7.1711   -9.6946 H   0  0  0  0  0  0  0  0  0  0  0  0
   -9.2615   -4.6813  -10.1346 H   0  0  0  0  0  0  0  0  0  0  0  0
   -8.8248   -4.3848  -12.7382 H   0  0  0  0  0  0  0  0  0  0  0  0
   -9.2216   -6.6928  -13.9027 H   0  0  0  0  0  0  0  0  0  0  0  0
  -10.1320   -8.4348  -12.0633 H   0  0  0  0  0  0  0  0  0  0  0  0
  -11.1032   -6.9412  -12.0566 H   0  0  0  0  0  0  0  0  0  0  0  0
   -7.5630   -8.2752  -12.9305 H   0  0  0  0  0  0  0  0  0  0  0  0
    2.5197   -1.2661   -5.7956 H   0  0  0  0  0  0  0  0  0  0  0  0
    5.9888    3.8378   -5.4947 H   0  0  0  0  0  0  0  0  0  0  0  0
    5.0112    4.2827   -4.0820 H   0  0  0  0  0  0  0  0  0  0  0  0
    2.9452    4.1511   -5.4819 H   0  0  0  0  0  0  0  0  0  0  0  0
    3.9269    3.7251   -6.8870 H   0  0  0  0  0  0  0  0  0  0  0  0
    4.0952    5.3188   -6.1441 H   0  0  0  0  0  0  0  0  0  0  0  0
    2.8122   -4.5349    0.7333 H   0  0  0  0  0  0  0  0  0  0  0  0
    1.1835   -6.3231    1.6727 H   0  0  0  0  0  0  0  0  0  0  0  0
   -2.2538   -6.2480    0.2389 H   0  0  0  0  0  0  0  0  0  0  0  0
   -1.2152   -7.2524    1.2626 H   0  0  0  0  0  0  0  0  0  0  0  0
   -2.1454   -8.5601   -0.6472 H   0  0  0  0  0  0  0  0  0  0  0  0
   -0.3863   -8.4468   -0.7719 H   0  0  0  0  0  0  0  0  0  0  0  0
   -1.4094   -7.4278   -1.7879 H   0  0  0  0  0  0  0  0  0  0  0  0
    2.1592   -2.3055    1.1954 H   0  0  0  0  0  0  0  0  0  0  0  0
    1.4094    1.6879    0.4486 H   0  0  0  0  0  0  0  0  0  0  0  0
    0.9125    1.5151   -1.9503 H   0  0  0  0  0  0  0  0  0  0  0  0
   -1.2646   -2.6142   -3.4571 H   0  0  0  0  0  0  0  0  0  0  0  0
   -1.8878   -1.6667   -4.8267 H   0  0  0  0  0  0  0  0  0  0  0  0
   -2.5854   -1.4258   -3.2092 H   0  0  0  0  0  0  0  0  0  0  0  0
   -1.3274   -2.0559   -1.2266 H   0  0  0  0  0  0  0  0  0  0  0  0
   -0.7832   -1.9160    1.1436 H   0  0  0  0  0  0  0  0  0  0  0  0
   -1.8249    0.5979    2.1863 H   0  0  0  0  0  0  0  0  0  0  0  0
   -3.5015    0.3009    3.9718 H   0  0  0  0  0  0  0  0  0  0  0  0
   -2.9817   -0.1642    8.8424 H   0  0  0  0  0  0  0  0  0  0  0  0
   -1.8398   -1.4322    8.3551 H   0  0  0  0  0  0  0  0  0  0  0  0
   -1.5816    0.2598    7.8183 H   0  0  0  0  0  0  0  0  0  0  0  0
   -0.5903   -1.7072    6.3691 H   0  0  0  0  0  0  0  0  0  0  0  0
    1.0684   -1.4319    4.5899 H   0  0  0  0  0  0  0  0  0  0  0  0
    3.1649    4.9692    5.0079 H   0  0  0  0  0  0  0  0  0  0  0  0
    3.1720    7.1585    6.1367 H   0  0  0  0  0  0  0  0  0  0  0  0
    6.9275    8.1583    9.2497 H   0  0  0  0  0  0  0  0  0  0  0  0
    5.6412    7.1675   10.0130 H   0  0  0  0  0  0  0  0  0  0  0  0
    5.6358    8.9372   10.1885 H   0  0  0  0  0  0  0  0  0  0  0  0
    6.7970    6.1026    8.1457 H   0  0  0  0  0  0  0  0  0  0  0  0
    6.7620    3.9186    7.0712 H   0  0  0  0  0  0  0  0  0  0  0  0
    5.5773    0.4556    5.7214 H   0  0  0  0  0  0  0  0  0  0  0  0
    7.6422   -0.6033    4.9786 H   0  0  0  0  0  0  0  0  0  0  0  0
    9.7987   -1.4706    4.8643 H   0  0  0  0  0  0  0  0  0  0  0  0
    8.9619   -1.5928    3.2808 H   0  0  0  0  0  0  0  0  0  0  0  0
   10.7358   -1.6653    3.3685 H   0  0  0  0  0  0  0  0  0  0  0  0
    9.0189    3.1520    3.4589 H   0  0  0  0  0  0  0  0  0  0  0  0
    6.9234    4.2169    4.2033 H   0  0  0  0  0  0  0  0  0  0  0  0
    3.4616    3.4050    7.5703 H   0  0  0  0  0  0  0  0  0  0  0  0
   -2.7109    2.7515    8.5446 H   0  0  0  0  0  0  0  0  0  0  0  0
    0.3526    5.3706   11.6153 H   0  0  0  0  0  0  0  0  0  0  0  0
   -2.6979    4.8885   13.0980 H   0  0  0  0  0  0  0  0  0  0  0  0
   -2.5626    7.3957   12.2081 H   0  0  0  0  0  0  0  0  0  0  0  0
   -4.8470    7.0826   13.4688 H   0  0  0  0  0  0  0  0  0  0  0  0
   -6.4843    5.7148   11.8854 H   0  0  0  0  0  0  0  0  0  0  0  0
   -5.2086    5.1865    9.6499 H   0  0  0  0  0  0  0  0  0  0  0  0
   -2.8407    6.4555    9.7063 H   0  0  0  0  0  0  0  0  0  0  0  0
   -4.1632    7.5750   10.1072 H   0  0  0  0  0  0  0  0  0  0  0  0
   -4.3024    3.5473   11.5453 H   0  0  0  0  0  0  0  0  0  0  0  0
  1  2  2  0  0  0  0
  2  3  1  0  0  0  0
  3  4  2  0  0  0  0
  3  5  1  0  0  0  0
  5  6  2  0  0  0  0
  6  7  1  0  0  0  0
  7  8  2  0  0  0  0
  8  9  1  0  0  0  0
  9 10  2  0  0  0  0
 10 11  1  0  0  0  0
 11 12  2  0  0  0  0
 12 13  1  0  0  0  0
 13 14  3  0  0  0  0
 12 15  1  0  0  0  0
 15 16  3  0  0  0  0
  8 17  1  0  0  0  0
 17 18  1  0  0  0  0
 18 19  1  0  0  0  0
 19 20  2  0  0  0  0
 20 21  1  0  0  0  0
 21 22  1  0  0  0  0
 21 23  1  0  0  0  0
  1 24  1  0  0  0  0
 24 25  2  0  0  0  0
 25 26  1  0  0  0  0
 26 27  1  0  0  0  0
 27 28  2  0  0  0  0
 28 29  2  0  0  0  0
 26 30  2  0  0  0  0
 30 31  1  0  0  0  0
 31 32  2  0  0  0  0
 32 33  1  0  0  0  0
 33 34  1  0  0  0  0
 34 35  2  0  0  0  0
 30 36  1  0  0  0  0
 36 37  2  0  0  0  0
 37 38  1  0  0  0  0
 38 39  2  0  0  0  0
 39 40  1  0  0  0  0
 40 41  1  0  0  0  0
 41 42  1  0  0  0  0
 42 43  1  0  0  0  0
 43 44  1  0  0  0  0
 42 45  2  0  0  0  0
 45 46  1  0  0  0  0
 45 47  1  0  0  0  0
 47 48  1  0  0  0  0
 39 49  1  0  0  0  0
 49 50  2  0  0  0  0
 50 51  1  0  0  0  0
 51 52  1  0  0  0  0
 52 53  2  0  0  0  0
 53 54  1  0  0  0  0
 54 55  2  0  0  0  0
 55 56  1  0  0  0  0
 56 57  1  0  0  0  0
 55 58  1  0  0  0  0
 51 59  2  0  0  0  0
 59 60  1  0  0  0  0
 50 61  1  0  0  0  0
 61 62  2  0  0  0  0
 62 63  1  0  0  0  0
 62 64  1  0  0  0  0
 64 65  2  0  0  0  0
 65 66  1  0  0  0  0
 66 67  1  0  0  0  0
 67 68  2  0  0  0  0
 68 69  1  0  0  0  0
 69 70  2  0  0  0  0
 70 71  1  0  0  0  0
 71 72  1  0  0  0  0
 70 73  1  0  0  0  0
 73 74  2  0  0  0  0
 66 75  1  0  0  0  0
 75 76  2  0  0  0  0
 76 77  1  0  0  0  0
 77 78  2  0  0  0  0
 78 79  1  0  0  0  0
 79 80  1  0  0  0  0
 78 81  1  0  0  0  0
 81 82  2  0  0  0  0
 65 83  1  0  0  0  0
 83 84  1  0  0  0  0
 84 85  1  0  0  0  0
 85 86  2  0  0  0  0
 86 87  1  0  0  0  0
 87 88  1  0  0  0  0
 88 89  2  0  0  0  0
 89 90  1  0  0  0  0
 90 91  2  0  0  0  0
 91 92  1  0  0  0  0
 92 93  1  0  0  0  0
 91 94  1  0  0  0  0
 94 95  2  0  0  0  0
 87 96  1  0  0  0  0
 96 97  2  0  0  0  0
 97 98  1  0  0  0  0
 98 99  2  0  0  0  0
 99100  1  0  0  0  0
100101  1  0  0  0  0
 99102  1  0  0  0  0
102103  2  0  0  0  0
 86104  1  0  0  0  0
104105  1  0  0  0  0
 85106  1  0  0  0  0
106107  2  0  0  0  0
107108  1  0  0  0  0
108109  2  0  0  0  0
108110  1  0  0  0  0
110111  2  0  0  0  0
111112  1  0  0  0  0
112113  2  0  0  0  0
113114  1  0  0  0  0
114115  2  0  0  0  0
115116  1  0  0  0  0
116117  2  0  0  0  0
117118  1  0  0  0  0
118119  3  0  0  0  0
117120  1  0  0  0  0
120121  3  0  0  0  0
113122  1  0  0  0  0
122123  1  0  0  0  0
123124  1  0  0  0  0
124125  2  0  0  0  0
125126  1  0  0  0  0
126127  1  0  0  0  0
126128  1  0  0  0  0
 11  2  1  0  0  0  0
 23 17  1  0  0  0  0
 35 24  1  0  0  0  0
 60 36  1  0  0  0  0
105 64  1  0  0  0  0
116107  1  0  0  0  0
128122  1  0  0  0  0
 10  5  1  0  0  0  0
 22 18  1  0  0  0  0
 29 25  1  0  0  0  0
 35 31  1  0  0  0  0
 59 38  1  0  0  0  0
 74 67  1  0  0  0  0
 82 75  1  0  0  0  0
104 83  2  0  0  0  0
115110  1  0  0  0  0
127123  1  0  0  0  0
 23  7  1  0  0  0  0
 47 40  2  0  0  0  0
 63 49  1  0  0  0  0
 95 88  1  0  0  0  0
103 96  1  0  0  0  0
128112  1  0  0  0  0
 58 52  1  0  0  0  0
  1129  1  0  0  0  0
  6130  1  0  0  0  0
  9131  1  0  0  0  0
 17132  1  0  0  0  0
 18133  1  0  0  0  0
 19134  1  0  0  0  0
 20135  1  0  0  0  0
 21136  1  0  0  0  0
 22137  1  0  0  0  0
 22138  1  0  0  0  0
 23139  1  0  0  0  0
 37140  1  0  0  0  0
 43141  1  0  0  0  0
 43142  1  0  0  0  0
 44143  1  0  0  0  0
 44144  1  0  0  0  0
 44145  1  0  0  0  0
 53146  1  0  0  0  0
 54147  1  0  0  0  0
 56148  1  0  0  0  0
 56149  1  0  0  0  0
 57150  1  0  0  0  0
 57151  1  0  0  0  0
 57152  1  0  0  0  0
 61153  1  0  0  0  0
 68154  1  0  0  0  0
 69155  1  0  0  0  0
 72156  1  0  0  0  0
 72157  1  0  0  0  0
 72158  1  0  0  0  0
 73159  1  0  0  0  0
 74160  1  0  0  0  0
 76161  1  0  0  0  0
 77162  1  0  0  0  0
 80163  1  0  0  0  0
 80164  1  0  0  0  0
 80165  1  0  0  0  0
 81166  1  0  0  0  0
 82167  1  0  0  0  0
 89168  1  0  0  0  0
 90169  1  0  0  0  0
 93170  1  0  0  0  0
 93171  1  0  0  0  0
 93172  1  0  0  0  0
 94173  1  0  0  0  0
 95174  1  0  0  0  0
 97175  1  0  0  0  0
 98176  1  0  0  0  0
101177  1  0  0  0  0
101178  1  0  0  0  0
101179  1  0  0  0  0
102180  1  0  0  0  0
103181  1  0  0  0  0
106182  1  0  0  0  0
111183  1  0  0  0  0
114184  1  0  0  0  0
122185  1  0  0  0  0
123186  1  0  0  0  0
124187  1  0  0  0  0
125188  1  0  0  0  0
126189  1  0  0  0  0
127190  1  0  0  0  0
127191  1  0  0  0  0
128192  1  0  0  0  0
M  END
