
  xtb     02072213213D
 energy: -297.867567670238 gnorm: 0.000305977136 xtb: 6.4.1 (unknown)
168188  0     0  0            999 V2000
    1.2433   -5.9666    2.0632 C   0  0  0  0  0  0  0  0  0  0  0  0
    1.1172   -5.4820    3.3472 C   0  0  0  0  0  0  0  0  0  0  0  0
    0.3517   -4.2705    3.7171 C   0  0  0  0  0  0  0  0  0  0  0  0
   -0.2635   -3.5199    2.9839 O   0  0  0  0  0  0  0  0  0  0  0  0
    0.3450   -4.2301    5.1901 C   0  0  0  0  0  0  0  0  0  0  0  0
   -0.2178   -3.2406    5.9911 C   0  0  0  0  0  0  0  0  0  0  0  0
   -0.0687   -3.4655    7.3386 C   0  0  0  0  0  0  0  0  0  0  0  0
    0.5749   -4.5991    7.8509 C   0  0  0  0  0  0  0  0  0  0  0  0
    1.1301   -5.5851    7.0684 C   0  0  0  0  0  0  0  0  0  0  0  0
    1.0010   -5.3699    5.6940 C   0  0  0  0  0  0  0  0  0  0  0  0
    1.4950   -6.1544    4.5625 C   0  0  0  0  0  0  0  0  0  0  0  0
    2.2884   -7.2741    4.6545 C   0  0  0  0  0  0  0  0  0  0  0  0
    2.9363   -7.8906    3.5712 C   0  0  0  0  0  0  0  0  0  0  0  0
    3.5603   -8.4197    2.7626 N   0  0  0  0  0  0  0  0  0  0  0  0
    2.6212   -7.9221    5.8599 C   0  0  0  0  0  0  0  0  0  0  0  0
    2.9235   -8.5100    6.7996 N   0  0  0  0  0  0  0  0  0  0  0  0
    0.3398   -4.1833    9.2820 C   0  0  0  0  0  0  0  0  0  0  0  0
   -0.7965   -4.8892   10.0626 C   0  0  0  0  0  0  0  0  0  0  0  0
   -1.8031   -5.3469    9.0365 C   0  0  0  0  0  0  0  0  0  0  0  0
   -2.4062   -4.2696    8.5521 C   0  0  0  0  0  0  0  0  0  0  0  0
   -1.8180   -3.0637    9.2418 C   0  0  0  0  0  0  0  0  0  0  0  0
   -1.5263   -3.6600   10.6280 C   0  0  0  0  0  0  0  0  0  0  0  0
   -0.3713   -2.9162    8.7102 C   0  0  0  0  0  0  0  0  0  0  0  0
    1.1286   -5.1654    0.9142 C   0  0  0  0  0  0  0  0  0  0  0  0
    0.6561   -5.4931   -0.3736 C   0  0  0  0  0  0  0  0  0  0  0  0
    0.2190   -6.7269   -0.7737 N   0  0  0  0  0  0  0  0  0  0  0  0
    0.8585   -7.9013   -0.3462 C   0  0  0  0  0  0  0  0  0  0  0  0
    2.2483   -7.9624   -0.2784 C   0  0  0  0  0  0  0  0  0  0  0  0
    2.8815   -9.1176    0.1310 C   0  0  0  0  0  0  0  0  0  0  0  0
    2.1304  -10.2311    0.4917 C   0  0  0  0  0  0  0  0  0  0  0  0
    2.8345  -11.7443    1.0436 S   0  0  0  0  0  0  0  0  0  0  0  0
    4.5347  -11.2796    1.4759 C   0  0  0  0  0  0  0  0  0  0  0  0
    0.7391  -10.1777    0.4058 C   0  0  0  0  0  0  0  0  0  0  0  0
    0.1074   -9.0279   -0.0104 C   0  0  0  0  0  0  0  0  0  0  0  0
   -0.8626   -6.8267   -1.6651 C   0  0  0  0  0  0  0  0  0  0  0  0
   -0.8502   -7.7770   -2.6859 C   0  0  0  0  0  0  0  0  0  0  0  0
   -1.9154   -7.8738   -3.5511 C   0  0  0  0  0  0  0  0  0  0  0  0
   -3.0140   -7.0238   -3.4225 C   0  0  0  0  0  0  0  0  0  0  0  0
   -4.3132   -7.2449   -4.5921 S   0  0  0  0  0  0  0  0  0  0  0  0
   -5.4909   -5.9209   -4.1972 C   0  0  0  0  0  0  0  0  0  0  0  0
   -3.0316   -6.0819   -2.4022 C   0  0  0  0  0  0  0  0  0  0  0  0
   -1.9655   -5.9888   -1.5294 C   0  0  0  0  0  0  0  0  0  0  0  0
    0.5904   -4.3379   -1.1892 C   0  0  0  0  0  0  0  0  0  0  0  0
    0.0882   -4.0087   -2.8206 S   0  0  0  0  0  0  0  0  0  0  0  0
    0.4492   -2.3132   -2.6083 C   0  0  0  0  0  0  0  0  0  0  0  0
    0.9923   -2.0288   -1.3708 C   0  0  0  0  0  0  0  0  0  0  0  0
    1.4205   -0.7819   -0.9328 N   0  0  0  0  0  0  0  0  0  0  0  0
    2.1248    0.0849   -1.7597 C   0  0  0  0  0  0  0  0  0  0  0  0
    2.0410    1.4683   -1.5762 C   0  0  0  0  0  0  0  0  0  0  0  0
    2.7791    2.3260   -2.3609 C   0  0  0  0  0  0  0  0  0  0  0  0
    3.6206    1.8283   -3.3528 C   0  0  0  0  0  0  0  0  0  0  0  0
    4.6213    3.0070   -4.2207 S   0  0  0  0  0  0  0  0  0  0  0  0
    5.8602    1.9704   -5.0503 C   0  0  0  0  0  0  0  0  0  0  0  0
    3.6703    0.4605   -3.5792 C   0  0  0  0  0  0  0  0  0  0  0  0
    2.9362   -0.3991   -2.7873 C   0  0  0  0  0  0  0  0  0  0  0  0
    1.1223   -0.4559    0.4033 C   0  0  0  0  0  0  0  0  0  0  0  0
    2.0847    0.1071    1.2355 C   0  0  0  0  0  0  0  0  0  0  0  0
    1.8062    0.3308    2.5699 C   0  0  0  0  0  0  0  0  0  0  0  0
    0.5664   -0.0154    3.0897 C   0  0  0  0  0  0  0  0  0  0  0  0
    0.1498    0.2115    4.7950 S   0  0  0  0  0  0  0  0  0  0  0  0
    1.7513   -0.0233    5.6219 C   0  0  0  0  0  0  0  0  0  0  0  0
   -0.4108   -0.5440    2.2535 C   0  0  0  0  0  0  0  0  0  0  0  0
   -0.1355   -0.7619    0.9220 C   0  0  0  0  0  0  0  0  0  0  0  0
    1.0655   -3.1898   -0.5711 C   0  0  0  0  0  0  0  0  0  0  0  0
    1.6021   -3.4748    1.0298 S   0  0  0  0  0  0  0  0  0  0  0  0
    0.1532   -1.2732   -3.5739 C   0  0  0  0  0  0  0  0  0  0  0  0
   -0.5092   -0.1149   -3.1154 C   0  0  0  0  0  0  0  0  0  0  0  0
   -1.0591    0.1581   -1.9240 N   0  0  0  0  0  0  0  0  0  0  0  0
   -1.4447    1.3983   -2.0297 N   0  0  0  0  0  0  0  0  0  0  0  0
   -2.1216    2.0688   -0.9575 C   0  0  0  0  0  0  0  0  0  0  0  0
   -3.6245    1.8236   -1.0484 C   0  0  0  0  0  0  0  0  0  0  0  0
   -1.2189    1.9910   -3.1642 N   0  0  0  0  0  0  0  0  0  0  0  0
   -0.6278    1.0534   -3.9162 C   0  0  0  0  0  0  0  0  0  0  0  0
   -0.0932    1.1121   -5.2196 C   0  0  0  0  0  0  0  0  0  0  0  0
    0.4681   -0.0619   -5.6812 C   0  0  0  0  0  0  0  0  0  0  0  0
    0.5789   -1.2215   -4.8850 C   0  0  0  0  0  0  0  0  0  0  0  0
    1.2133   -2.2829   -5.4152 F   0  0  0  0  0  0  0  0  0  0  0  0
    0.9503   -0.1335   -6.9309 F   0  0  0  0  0  0  0  0  0  0  0  0
   -0.0303    2.4066   -5.8728 C   0  0  0  0  0  0  0  0  0  0  0  0
   -1.0993    3.3153   -5.8179 C   0  0  0  0  0  0  0  0  0  0  0  0
   -0.9234    4.7264   -6.0953 C   0  0  0  0  0  0  0  0  0  0  0  0
   -2.0726    5.3948   -6.0012 N   0  0  0  0  0  0  0  0  0  0  0  0
   -3.2298    4.3716   -5.5776 S   0  0  0  0  0  4  0  0  0  0  0  0
   -2.3675    3.0259   -5.5151 N   0  0  0  0  0  0  0  0  0  0  0  0
    0.3341    5.2722   -6.4218 C   0  0  0  0  0  0  0  0  0  0  0  0
    1.3511    4.3316   -6.6430 C   0  0  0  0  0  0  0  0  0  0  0  0
    2.6192    4.6107   -6.9745 N   0  0  0  0  0  0  0  0  0  0  0  0
    3.4703    3.2620   -6.9268 S   0  0  0  0  0  0  0  0  0  0  0  0
    2.3242    2.2418   -6.4983 N   0  0  0  0  0  0  0  0  0  0  0  0
    1.1737    2.9189   -6.3610 C   0  0  0  0  0  0  0  0  0  0  0  0
    0.5937    6.6769   -6.4711 C   0  0  0  0  0  0  0  0  0  0  0  0
    0.0893    7.5745   -5.5834 C   0  0  0  0  0  0  0  0  0  0  0  0
   -0.4812    7.2172   -4.2565 C   0  0  0  0  0  0  0  0  0  0  0  0
   -0.6607    6.1135   -3.7862 O   0  0  0  0  0  0  0  0  0  0  0  0
   -0.6540    8.4950   -3.5420 C   0  0  0  0  0  0  0  0  0  0  0  0
   -1.1366    8.6595   -2.2455 C   0  0  0  0  0  0  0  0  0  0  0  0
   -1.1470    9.9625   -1.8124 C   0  0  0  0  0  0  0  0  0  0  0  0
   -0.6991   11.0271   -2.6066 C   0  0  0  0  0  0  0  0  0  0  0  0
   -0.2247   10.8798   -3.8882 C   0  0  0  0  0  0  0  0  0  0  0  0
   -0.2123    9.5602   -4.3516 C   0  0  0  0  0  0  0  0  0  0  0  0
    0.2188    9.0193   -5.6371 C   0  0  0  0  0  0  0  0  0  0  0  0
    0.6008    9.7504   -6.7301 C   0  0  0  0  0  0  0  0  0  0  0  0
    0.9236    9.2049   -7.9916 C   0  0  0  0  0  0  0  0  0  0  0  0
    1.1806    8.8491   -9.0525 N   0  0  0  0  0  0  0  0  0  0  0  0
    0.6960   11.1573   -6.7562 C   0  0  0  0  0  0  0  0  0  0  0  0
    0.7996   12.2976   -6.8428 N   0  0  0  0  0  0  0  0  0  0  0  0
   -0.9604   12.0462   -1.5257 C   0  0  0  0  0  0  0  0  0  0  0  0
    0.2551   12.5727   -0.7224 C   0  0  0  0  0  0  0  0  0  0  0  0
    1.3005   11.4858   -0.7605 C   0  0  0  0  0  0  0  0  0  0  0  0
    0.8680   10.4810   -0.0106 C   0  0  0  0  0  0  0  0  0  0  0  0
   -0.4788   10.8701    0.5475 C   0  0  0  0  0  0  0  0  0  0  0  0
   -0.2777   12.3853    0.7073 C   0  0  0  0  0  0  0  0  0  0  0  0
   -1.4675   10.8613   -0.6446 C   0  0  0  0  0  0  0  0  0  0  0  0
    1.4193   -7.0270    1.9243 H   0  0  0  0  0  0  0  0  0  0  0  0
   -0.7051   -2.3820    5.5563 H   0  0  0  0  0  0  0  0  0  0  0  0
    1.6208   -6.4526    7.4775 H   0  0  0  0  0  0  0  0  0  0  0  0
    1.2309   -4.0382    9.8900 H   0  0  0  0  0  0  0  0  0  0  0  0
   -0.4577   -5.6406   10.7708 H   0  0  0  0  0  0  0  0  0  0  0  0
   -1.9275   -6.3707    8.7357 H   0  0  0  0  0  0  0  0  0  0  0  0
   -3.1353   -4.2129    7.7651 H   0  0  0  0  0  0  0  0  0  0  0  0
   -2.4084   -2.1519    9.2021 H   0  0  0  0  0  0  0  0  0  0  0  0
   -0.8932   -3.0268   11.2484 H   0  0  0  0  0  0  0  0  0  0  0  0
   -2.4318   -3.9216   11.1734 H   0  0  0  0  0  0  0  0  0  0  0  0
    0.0576   -1.9430    8.9423 H   0  0  0  0  0  0  0  0  0  0  0  0
    2.8330   -7.0971   -0.5538 H   0  0  0  0  0  0  0  0  0  0  0  0
    3.9570   -9.1399    0.1624 H   0  0  0  0  0  0  0  0  0  0  0  0
    4.9309  -12.1101    2.0517 H   0  0  0  0  0  0  0  0  0  0  0  0
    4.5074  -10.3787    2.0815 H   0  0  0  0  0  0  0  0  0  0  0  0
    5.1264  -11.1408    0.5754 H   0  0  0  0  0  0  0  0  0  0  0  0
    0.1630  -11.0477    0.6808 H   0  0  0  0  0  0  0  0  0  0  0  0
   -0.9702   -8.9866   -0.0660 H   0  0  0  0  0  0  0  0  0  0  0  0
    0.0010   -8.4313   -2.7966 H   0  0  0  0  0  0  0  0  0  0  0  0
   -1.9085   -8.6044   -4.3450 H   0  0  0  0  0  0  0  0  0  0  0  0
   -5.9053   -6.0723   -3.2046 H   0  0  0  0  0  0  0  0  0  0  0  0
   -6.2788   -6.0015   -4.9397 H   0  0  0  0  0  0  0  0  0  0  0  0
   -5.0025   -4.9547   -4.2811 H   0  0  0  0  0  0  0  0  0  0  0  0
   -3.8716   -5.4203   -2.2671 H   0  0  0  0  0  0  0  0  0  0  0  0
   -1.9933   -5.2666   -0.7266 H   0  0  0  0  0  0  0  0  0  0  0  0
    1.3995    1.8639   -0.8028 H   0  0  0  0  0  0  0  0  0  0  0  0
    2.7159    3.3924   -2.2072 H   0  0  0  0  0  0  0  0  0  0  0  0
    6.3557    1.3439   -4.3150 H   0  0  0  0  0  0  0  0  0  0  0  0
    6.5736    2.6595   -5.4918 H   0  0  0  0  0  0  0  0  0  0  0  0
    5.3931    1.3734   -5.8285 H   0  0  0  0  0  0  0  0  0  0  0  0
    4.2859    0.0456   -4.3600 H   0  0  0  0  0  0  0  0  0  0  0  0
    3.0136   -1.4629   -2.9532 H   0  0  0  0  0  0  0  0  0  0  0  0
    3.0580    0.3553    0.8383 H   0  0  0  0  0  0  0  0  0  0  0  0
    2.5681    0.7620    3.2004 H   0  0  0  0  0  0  0  0  0  0  0  0
    1.5261   -0.2044    6.6681 H   0  0  0  0  0  0  0  0  0  0  0  0
    2.3644    0.8686    5.5286 H   0  0  0  0  0  0  0  0  0  0  0  0
    2.2478   -0.8883    5.1930 H   0  0  0  0  0  0  0  0  0  0  0  0
   -1.3751   -0.8012    2.6608 H   0  0  0  0  0  0  0  0  0  0  0  0
   -0.8854   -1.1809    0.2700 H   0  0  0  0  0  0  0  0  0  0  0  0
   -1.7241    1.6770   -0.0183 H   0  0  0  0  0  0  0  0  0  0  0  0
   -1.9006    3.1332   -1.0534 H   0  0  0  0  0  0  0  0  0  0  0  0
   -4.1323    2.3413   -0.2399 H   0  0  0  0  0  0  0  0  0  0  0  0
   -4.0056    2.1915   -1.9979 H   0  0  0  0  0  0  0  0  0  0  0  0
   -3.8356    0.7600   -0.9711 H   0  0  0  0  0  0  0  0  0  0  0  0
    1.2965    6.9968   -7.2301 H   0  0  0  0  0  0  0  0  0  0  0  0
   -1.4633    7.8104   -1.6655 H   0  0  0  0  0  0  0  0  0  0  0  0
    0.1200   11.7077   -4.4850 H   0  0  0  0  0  0  0  0  0  0  0  0
   -1.6656   12.8366   -1.7742 H   0  0  0  0  0  0  0  0  0  0  0  0
    0.5869   13.5674   -1.0070 H   0  0  0  0  0  0  0  0  0  0  0  0
    2.1932   11.5342   -1.3561 H   0  0  0  0  0  0  0  0  0  0  0  0
    1.3268    9.5220    0.1447 H   0  0  0  0  0  0  0  0  0  0  0  0
   -0.8162   10.3150    1.4190 H   0  0  0  0  0  0  0  0  0  0  0  0
    0.4608   12.6341    1.4680 H   0  0  0  0  0  0  0  0  0  0  0  0
   -1.2022   12.9277    0.9007 H   0  0  0  0  0  0  0  0  0  0  0  0
   -2.5071   10.8751   -0.3228 H   0  0  0  0  0  0  0  0  0  0  0  0
  1  2  2  0  0  0  0
  2  3  1  0  0  0  0
  3  4  2  0  0  0  0
  3  5  1  0  0  0  0
  5  6  2  0  0  0  0
  6  7  1  0  0  0  0
  7  8  2  0  0  0  0
  8  9  1  0  0  0  0
  9 10  2  0  0  0  0
 10 11  1  0  0  0  0
 11 12  2  0  0  0  0
 12 13  1  0  0  0  0
 13 14  3  0  0  0  0
 12 15  1  0  0  0  0
 15 16  3  0  0  0  0
  8 17  1  0  0  0  0
 17 18  1  0  0  0  0
 18 19  1  0  0  0  0
 19 20  2  0  0  0  0
 20 21  1  0  0  0  0
 21 22  1  0  0  0  0
 21 23  1  0  0  0  0
  1 24  1  0  0  0  0
 24 25  2  0  0  0  0
 25 26  1  0  0  0  0
 26 27  1  0  0  0  0
 27 28  2  0  0  0  0
 28 29  1  0  0  0  0
 29 30  2  0  0  0  0
 30 31  1  0  0  0  0
 31 32  1  0  0  0  0
 30 33  1  0  0  0  0
 33 34  2  0  0  0  0
 26 35  1  0  0  0  0
 35 36  2  0  0  0  0
 36 37  1  0  0  0  0
 37 38  2  0  0  0  0
 38 39  1  0  0  0  0
 39 40  1  0  0  0  0
 38 41  1  0  0  0  0
 41 42  2  0  0  0  0
 25 43  1  0  0  0  0
 43 44  1  0  0  0  0
 44 45  1  0  0  0  0
 45 46  2  0  0  0  0
 46 47  1  0  0  0  0
 47 48  1  0  0  0  0
 48 49  2  0  0  0  0
 49 50  1  0  0  0  0
 50 51  2  0  0  0  0
 51 52  1  0  0  0  0
 52 53  1  0  0  0  0
 51 54  1  0  0  0  0
 54 55  2  0  0  0  0
 47 56  1  0  0  0  0
 56 57  2  0  0  0  0
 57 58  1  0  0  0  0
 58 59  2  0  0  0  0
 59 60  1  0  0  0  0
 60 61  1  0  0  0  0
 59 62  1  0  0  0  0
 62 63  2  0  0  0  0
 46 64  1  0  0  0  0
 64 65  1  0  0  0  0
 45 66  1  0  0  0  0
 66 67  1  0  0  0  0
 67 68  2  0  0  0  0
 68 69  1  0  0  0  0
 69 70  1  0  0  0  0
 70 71  1  0  0  0  0
 69 72  1  0  0  0  0
 72 73  2  0  0  0  0
 73 74  1  0  0  0  0
 74 75  2  0  0  0  0
 75 76  1  0  0  0  0
 76 77  1  0  0  0  0
 75 78  1  0  0  0  0
 74 79  1  0  0  0  0
 79 80  2  0  0  0  0
 80 81  1  0  0  0  0
 81 82  1  0  0  0  0
 82 83  2  0  0  0  0
 83 84  2  0  0  0  0
 81 85  2  0  0  0  0
 85 86  1  0  0  0  0
 86 87  2  0  0  0  0
 87 88  1  0  0  0  0
 88 89  1  0  0  0  0
 89 90  2  0  0  0  0
 85 91  1  0  0  0  0
 91 92  2  0  0  0  0
 92 93  1  0  0  0  0
 93 94  2  0  0  0  0
 93 95  1  0  0  0  0
 95 96  2  0  0  0  0
 96 97  1  0  0  0  0
 97 98  2  0  0  0  0
 98 99  1  0  0  0  0
 99100  2  0  0  0  0
100101  1  0  0  0  0
101102  2  0  0  0  0
102103  1  0  0  0  0
103104  3  0  0  0  0
102105  1  0  0  0  0
105106  3  0  0  0  0
 98107  1  0  0  0  0
107108  1  0  0  0  0
108109  1  0  0  0  0
109110  2  0  0  0  0
110111  1  0  0  0  0
111112  1  0  0  0  0
111113  1  0  0  0  0
 11  2  1  0  0  0  0
 23 17  1  0  0  0  0
 65 24  1  0  0  0  0
 76 66  2  0  0  0  0
 90 79  1  0  0  0  0
101 92  1  0  0  0  0
113107  1  0  0  0  0
 10  5  1  0  0  0  0
 22 18  1  0  0  0  0
 34 27  1  0  0  0  0
 42 35  1  0  0  0  0
 64 43  2  0  0  0  0
 73 67  1  0  0  0  0
 84 80  1  0  0  0  0
 90 86  1  0  0  0  0
100 95  1  0  0  0  0
112108  1  0  0  0  0
 23  7  1  0  0  0  0
 55 48  1  0  0  0  0
 63 56  1  0  0  0  0
113 97  1  0  0  0  0
  1114  1  0  0  0  0
  6115  1  0  0  0  0
  9116  1  0  0  0  0
 17117  1  0  0  0  0
 18118  1  0  0  0  0
 19119  1  0  0  0  0
 20120  1  0  0  0  0
 21121  1  0  0  0  0
 22122  1  0  0  0  0
 22123  1  0  0  0  0
 23124  1  0  0  0  0
 28125  1  0  0  0  0
 29126  1  0  0  0  0
 32127  1  0  0  0  0
 32128  1  0  0  0  0
 32129  1  0  0  0  0
 33130  1  0  0  0  0
 34131  1  0  0  0  0
 36132  1  0  0  0  0
 37133  1  0  0  0  0
 40134  1  0  0  0  0
 40135  1  0  0  0  0
 40136  1  0  0  0  0
 41137  1  0  0  0  0
 42138  1  0  0  0  0
 49139  1  0  0  0  0
 50140  1  0  0  0  0
 53141  1  0  0  0  0
 53142  1  0  0  0  0
 53143  1  0  0  0  0
 54144  1  0  0  0  0
 55145  1  0  0  0  0
 57146  1  0  0  0  0
 58147  1  0  0  0  0
 61148  1  0  0  0  0
 61149  1  0  0  0  0
 61150  1  0  0  0  0
 62151  1  0  0  0  0
 63152  1  0  0  0  0
 70153  1  0  0  0  0
 70154  1  0  0  0  0
 71155  1  0  0  0  0
 71156  1  0  0  0  0
 71157  1  0  0  0  0
 91158  1  0  0  0  0
 96159  1  0  0  0  0
 99160  1  0  0  0  0
107161  1  0  0  0  0
108162  1  0  0  0  0
109163  1  0  0  0  0
110164  1  0  0  0  0
111165  1  0  0  0  0
112166  1  0  0  0  0
112167  1  0  0  0  0
113168  1  0  0  0  0
M  END
