187

C         -0.43630       -2.00960       -7.89150
C          0.37100       -0.99870       -8.28040
C          1.03860       -0.08290       -7.31430
O          1.31320       -0.29840       -6.15400
C          1.25780        1.16410       -8.06090
C          1.66310        2.38680       -7.53260
C          1.77920        3.38780       -8.46440
C          1.51270        3.19180       -9.82780
C          1.09130        1.99630      -10.36080
C          0.96160        0.96300       -9.42680
C          0.50850       -0.40960       -9.60510
C          0.31810       -1.07490      -10.78340
C         -0.01640       -2.44530      -10.83590
N         -0.25490       -3.56530      -10.91350
C          0.49450       -0.50090      -12.05940
N          0.62330       -0.08070      -13.11940
C          1.84150        4.62270      -10.17450
C          3.21920        4.90990      -10.82220
C          4.15030        3.81630      -10.36060
C          4.39070        4.00660       -9.07020
C          3.62460        5.23110       -8.63480
C          3.69180        6.06480       -9.92410
C          2.12660        4.84040       -8.65460
C         -0.56230       -2.36860       -6.47990
C          0.45660       -2.94000       -5.70420
O          1.56090       -3.55860       -6.16540
C          1.81300       -3.71920       -7.54280
C          2.77470       -4.88690       -7.70530
C          0.33070       -2.93670       -4.30070
O          1.32340       -3.51400       -3.53950
C          2.35050       -2.65690       -3.05660
C          3.24580       -2.07780       -4.14180
C         -0.79160       -2.36720       -3.69340
C         -1.85630       -1.93720       -4.48840
C         -1.74300       -1.95670       -5.85520
C         -0.80870       -2.14690       -2.25760
C         -1.15710       -0.96990       -1.62740
N         -1.69700        0.16550       -2.27060
C         -3.08610        0.28470       -2.33240
C         -3.89940       -0.31130       -1.37070
C         -5.27690       -0.22010       -1.44400
C         -5.87540        0.46780       -2.48810
S         -7.62120        0.66280       -2.68690
C         -8.32290       -0.19470       -1.24920
C         -5.07040        1.04580       -3.46850
C         -3.69990        0.95120       -3.39840
C         -0.83540        1.14820       -2.75920
C         -1.20540        2.49620       -2.75810
C         -0.35110        3.45700       -3.25280
C          0.90240        3.10460       -3.74330
S          1.91460        4.40360       -4.40690
C          3.59860        3.73870       -4.22320
C          1.29100        1.77410       -3.72030
C          0.43120        0.81160       -3.23090
C         -0.87870       -1.02940       -0.24370
S         -1.10300        0.06070        1.08020
C         -0.40340       -1.11550        2.18400
C         -0.13990       -2.33560        1.56440
N          0.17030       -3.51070        2.21250
C          0.98590       -4.43580        1.55560
C          2.07420       -3.98550        0.81010
C          2.82750       -4.86960        0.06670
C          2.49900       -6.21840        0.04930
S          3.36650       -7.38840       -0.95250
C          3.78390       -6.38740       -2.41430
C          1.45680       -6.68220        0.84660
C          0.70620       -5.80190        1.59440
C         -0.45060       -3.82830        3.42790
C          0.23110       -4.54600        4.40670
C         -0.37970       -4.85230        5.60590
C         -1.68750       -4.45180        5.84720
S         -2.54940       -4.82620        7.33840
C         -1.20180       -4.89530        8.55450
C         -2.38170       -3.75600        4.86160
C         -1.77090       -3.44680        3.66770
C         -0.37450       -2.25350        0.16980
S         -0.18320       -3.34580       -1.15930
C         -0.09400       -0.69970        3.51620
C         -0.79460        0.34230        4.12460
O         -1.83480        0.91670        3.42310
C         -3.12510        0.44610        3.80800
C         -4.15340        1.08930        2.89520
C         -0.49830        0.82180        5.41780
O         -1.25320        1.83110        5.95290
C         -1.21550        3.09360        5.29210
C          0.09410        3.82320        5.56520
C          0.53890        0.27470        6.18360
C          1.30910       -0.73830        5.56210
C          1.00030       -1.22950        4.24870
N          1.87810       -2.14160        3.84270
S          2.96160       -2.38010        5.00770
N          2.38270       -1.32890        6.07920
C          0.92350        0.76850        7.46990
C          0.12730        1.33560        8.41070
C          0.68380        2.25020        9.44300
O          1.84520        2.38010        9.75770
C         -0.47850        3.01840        9.93830
C         -0.46040        4.11320       10.79940
C         -1.69920        4.65710       11.04130
C         -2.87650        4.15050       10.47370
C         -2.91310        3.06240        9.63450
C         -1.66250        2.49870        9.37200
C         -1.31360        1.35450        8.53900
C         -2.15780        0.35620        8.12810
C         -3.55640        0.38210        8.27710
N         -4.70310        0.37020        8.34090
C         -1.68320       -0.83170        7.54100
N         -1.31920       -1.83070        7.10640
C         -3.73810        5.20260       11.12550
C         -4.22560        6.38040       10.24530
C         -3.21010        6.54140        9.14140
C         -2.09710        7.01970        9.68140
C         -2.34000        7.19070       11.16050
C         -3.83210        7.56000       11.14870
C         -2.42760        5.76520       11.76050
H         -1.13920       -2.44850       -8.59050
H          1.83740        2.50300       -6.47640
H          0.86180        1.86150      -11.40540
H          1.04030        5.19810      -10.63350
H          3.18480        5.08930      -11.89330
H          4.48300        3.00990      -10.98780
H          4.96600        3.39040       -8.40390
H          3.95260        5.70340       -7.71280
H          4.70220        6.39470      -10.16040
H          3.01620        6.91880       -9.92360
H          1.50590        5.54820       -8.10980
H          2.25980       -2.80070       -7.95100
H          0.88020       -3.91880       -8.08720
H          2.98580       -5.04190       -8.75920
H          3.70330       -4.68190       -7.17980
H          2.33420       -5.79020       -7.29240
H          2.92720       -3.29630       -2.38440
H          1.91440       -1.84260       -2.46040
H          2.67720       -1.42130       -4.79550
H          3.67610       -2.87840       -4.73710
H          4.04610       -1.50650       -3.67660
H         -2.75930       -1.57550       -4.02470
H         -2.54620       -1.57410       -6.46770
H         -3.45640       -0.85330       -0.54980
H         -5.86670       -0.69070       -0.67400
H         -8.05670       -1.24740       -1.27700
H         -9.39890       -0.08490       -1.34100
H         -7.98100        0.27640       -0.33220
H         -5.53810        1.56200       -4.29310
H         -3.09090        1.38120       -4.17910
H         -2.16380        2.78900       -2.35730
H         -0.64520        4.49560       -3.25510
H          4.26820        4.58300       -4.35440
H          3.71280        3.32370       -3.22660
H          3.80260        2.98950       -4.98340
H          2.25240        1.46170       -4.09510
H          0.74380       -0.21780       -3.24930
H          2.32590       -2.93570        0.82550
H          3.67470       -4.50540       -0.49300
H          4.65000       -5.76280       -2.21370
H          2.92210       -5.79040       -2.69760
H          4.02240       -7.09600       -3.20130
H          1.22630       -7.73620        0.85050
H         -0.12280       -6.16180        2.18490
H          1.24730       -4.86090        4.22080
H          0.17220       -5.40670        6.34820
H         -1.67490       -4.83570        9.52960
H         -0.65510       -5.83010        8.46950
H         -0.55540       -4.03740        8.39800
H         -3.40370       -3.46350        5.04700
H         -2.31950       -2.91600        2.90290
H         -3.31780        0.70720        4.85660
H         -3.15290       -0.64860        3.71850
H         -5.14460        0.73010        3.15640
H         -3.93840        0.84180        1.85900
H         -4.12570        2.17000        3.00420
H         -1.36770        2.97410        4.21550
H         -2.05800        3.64470        5.71790
H          0.07280        4.79990        5.08990
H          0.93310        3.25640        5.16590
H          0.24120        3.95260        6.63540
H          1.98770        0.74740        7.67840
H          0.46600        4.47590       11.21690
H         -3.82050        2.67890        9.19690
H         -4.51390        4.83700       11.79520
H         -5.26490        6.31190        9.93510
H         -3.38090        6.24620        8.12250
H         -1.15230        7.20370        9.20400
H         -1.66270        7.86050       11.68370
H         -4.29540        7.52530       12.13370
H         -4.02310        8.52720       10.68610
H         -2.34720        5.76610       12.84570
