174

C          6.30330        1.18430       -2.62160
C          7.10260        1.47010       -1.56460
C          6.76050        1.29370       -0.12620
O          5.67390        1.08250        0.36770
C          8.01750        1.53460        0.60850
C          8.23380        1.36940        1.97590
C          9.51900        1.64070        2.37820
C         10.52080        2.04980        1.48650
C         10.32010        2.22930        0.13970
C          9.01540        1.96240       -0.28940
C          8.43800        2.04370       -1.62610
C          9.03760        2.61690       -2.71490
C          8.45070        2.77620       -3.98850
N          8.04540        2.97680       -5.04410
C         10.32260        3.20050       -2.70270
N         11.35220        3.70450       -2.76770
C         11.56460        2.13540        2.57140
C         11.91950        3.54980        3.07660
C         12.57340        3.30090        4.41650
C         11.62640        2.91510        5.26200
C         10.31630        2.89710        4.50780
C         10.55150        4.06540        3.54190
C         10.44850        1.68110        3.56610
C          5.03580        0.52380       -2.52890
C          3.98830        0.89200       -3.36710
F          4.21630        1.78490       -4.34740
C          2.68300        0.46310       -3.15720
F          1.72430        0.84380       -4.02510
C          2.35430       -0.34640       -2.07190
C          3.44570       -0.96860       -1.40100
N          3.18760       -1.96110       -0.54410
C          4.17560       -2.55450        0.07940
C          3.79230       -3.64590        1.02990
C          3.52290       -3.06630        2.42020
C          5.51850       -2.15790       -0.17720
N          5.78260       -1.17980       -1.00820
C          4.77500       -0.54120       -1.61760
C          6.68210       -2.86460        0.45340
C          8.01960       -2.23160        0.09450
C          1.02990       -0.55150       -1.59860
C         -0.05810        0.32450       -1.68800
N          0.03170        1.65440       -2.03950
C         -1.02740        2.27350       -2.71210
C         -1.33360        3.60920       -2.46600
C         -2.35340        4.23650       -3.15280
C         -3.09290        3.53290       -4.09470
S         -4.42430        4.22410       -5.02470
C         -4.30950        6.00560       -4.69200
C         -2.79950        2.19120       -4.33210
C         -1.77690        1.56810       -3.65420
C          1.20310        2.37940       -1.75430
C          1.91460        2.15170       -0.57390
C          3.13490        2.75310       -0.36620
C          3.67040        3.61160       -1.32610
S          5.28360        4.25650       -1.01570
C          5.78900        4.91490       -2.63250
C          2.92700        3.91360       -2.45910
C          1.70850        3.29880       -2.67120
C         -1.23850       -0.30400       -1.22530
S         -2.89660        0.19680       -1.07720
C         -3.31090       -1.38030       -0.43030
C         -2.18060       -2.17430       -0.16450
N         -2.16260       -3.30150        0.61400
C         -1.11870       -4.22910        0.48160
C         -0.69700       -4.65410       -0.77830
C          0.34940       -5.54110       -0.89200
C          0.99330       -6.02520        0.24590
S          2.35220       -7.11700       -0.02690
C          2.88120       -7.58710        1.64570
C          0.55370       -5.62800        1.50260
C         -0.49530       -4.73820        1.61660
C         -3.11840       -3.50860        1.62880
C         -3.66470       -4.77620        1.81630
C         -4.71010       -4.96740        2.69820
C         -5.21330       -3.89080        3.41760
S         -6.64790       -3.98440        4.44020
C         -7.49670       -5.46570        3.81500
C         -4.58180       -2.65170        3.32710
C         -3.55160       -2.45760        2.43580
C         -1.01780       -1.56790       -0.69410
S          0.66190       -2.01790       -0.72330
C         -4.67420       -1.70860       -0.24290
C         -5.16470       -3.01950       -0.24090
F         -4.40460       -4.01730       -0.73960
C         -6.42850       -3.31780        0.23250
F         -6.77210       -4.61550        0.33300
C         -7.33980       -2.33770        0.65090
C         -6.97980       -0.99420        0.32600
N         -7.90310       -0.02400        0.31160
C         -7.54020        1.21690        0.07760
C         -8.62180        2.25320        0.00360
C         -9.99290        1.65700       -0.29140
C         -6.16670        1.54560       -0.08690
N         -5.27970        0.58720       -0.20300
C         -5.65000       -0.68680       -0.05460
C         -5.65760        2.94680       -0.20870
C         -5.55790        3.35560       -1.67920
C         -8.55570       -2.74950        1.25530
C         -9.51050       -2.08620        1.96400
C        -10.80710       -2.81120        2.16320
O        -11.01340       -3.98930        1.98410
C        -11.73250       -1.76720        2.59080
S        -13.40950       -1.65830        2.91080
C        -13.20940        0.03100        3.27120
Br       -14.69570        1.06160        3.75690
C        -11.92280        0.48380        3.16370
C        -11.07000       -0.56030        2.76550
C         -9.64750       -0.75590        2.51480
C         -8.69220        0.13000        2.93620
C         -7.30080       -0.06830        2.95220
N         -6.15680       -0.12960        3.02620
C         -9.03410        1.39710        3.45210
N         -9.27530        2.45110        3.83850
H          6.59880        1.49890       -3.61470
H          7.43660        1.04440        2.62640
H         11.10140        2.53860       -0.53430
H         12.43750        1.49850        2.44100
H         12.47140        4.16060        2.36760
H         13.63060        3.37520        4.59140
H         11.73490        2.60240        6.28410
H          9.40810        2.91480        5.10430
H          9.81130        4.14100        2.74760
H         10.62690        5.01920        4.06120
H         10.57800        0.74150        4.10040
H          4.57670       -4.40150        1.08110
H          2.87480       -4.10210        0.65520
H          2.71530       -2.34140        2.36430
H          4.40680       -2.56930        2.81380
H          3.23300       -3.85580        3.10950
H          6.54950       -2.86050        1.53840
H          6.66980       -3.90920        0.12670
H          8.05640       -1.20400        0.44570
H          8.83340       -2.78880        0.55230
H          8.15620       -2.22540       -0.98300
H         -0.76660        4.15990       -1.73010
H         -2.56420        5.27170       -2.93850
H         -4.57070        6.21560       -3.65890
H         -5.03150        6.47360       -5.35370
H         -3.31010        6.35910       -4.92670
H         -3.37560        1.65110       -5.06750
H         -1.53210        0.53990       -3.87010
H          1.51860        1.47710        0.17010
H          3.70190        2.54110        0.52590
H          5.65300        4.15690       -3.39840
H          5.22790        5.81520       -2.86470
H          6.84240        5.16060       -2.53750
H          3.29710        4.59910       -3.20350
H          1.16340        3.49850       -3.58140
H         -1.20360       -4.29220       -1.65940
H          0.68250       -5.87160       -1.86350
H          3.22920       -6.71220        2.18720
H          2.06650       -8.07910        2.16860
H          3.70150       -8.28430        1.50630
H          1.02450       -5.99370        2.40050
H         -0.82760       -4.42200        2.59430
H         -3.30230       -5.60360        1.22500
H         -5.14020       -5.95100        2.79430
H         -8.51990       -5.39580        4.17060
H         -7.48240       -5.46000        2.73010
H         -7.03040       -6.36390        4.20950
H         -4.93360       -1.83360        3.93300
H         -3.10120       -1.48140        2.34400
H         -8.65100        2.78260        0.96250
H         -8.36660        2.98520       -0.76420
H        -10.74110        2.44480       -0.32760
H        -10.27340        0.94090        0.47460
H         -9.98080        1.13980       -1.24750
H         -4.65830        2.97730        0.22720
H         -6.30550        3.63390        0.33620
H         -4.89390        2.67380       -2.20380
H         -6.53020        3.33430       -2.16600
H         -5.15560        4.36210       -1.75460
H         -8.80460       -3.79700        1.09960
H        -11.63460        1.50120        3.35280
