
  xtb     02052208463D
 energy: -269.995687528722 gnorm: 0.000479858519 xtb: 6.4.1 (unknown)
148165  0     0  0            999 V2000
   -1.6129   -2.3738   -6.2030 C   0  0  0  0  0  0  0  0  0  0  0  0
   -0.8409   -3.3599   -6.7435 C   0  0  0  0  0  0  0  0  0  0  0  0
   -0.0460   -4.3506   -5.9750 C   0  0  0  0  0  0  0  0  0  0  0  0
   -0.0762   -4.5600   -4.7804 O   0  0  0  0  0  0  0  0  0  0  0  0
    0.6759   -5.1508   -6.9834 C   0  0  0  0  0  0  0  0  0  0  0  0
    1.6218   -6.1440   -6.7439 C   0  0  0  0  0  0  0  0  0  0  0  0
    2.1347   -6.7168   -7.8830 C   0  0  0  0  0  0  0  0  0  0  0  0
    1.7207   -6.3439   -9.1687 C   0  0  0  0  0  0  0  0  0  0  0  0
    0.7775   -5.3764   -9.4191 C   0  0  0  0  0  0  0  0  0  0  0  0
    0.2540   -4.7701   -8.2730 C   0  0  0  0  0  0  0  0  0  0  0  0
   -0.7343   -3.7014   -8.1475 C   0  0  0  0  0  0  0  0  0  0  0  0
   -1.4088   -3.1180   -9.1898 C   0  0  0  0  0  0  0  0  0  0  0  0
   -2.3528   -2.0773   -9.0848 C   0  0  0  0  0  0  0  0  0  0  0  0
   -3.1307   -1.2320   -9.1147 N   0  0  0  0  0  0  0  0  0  0  0  0
   -1.2717   -3.4916  -10.5431 C   0  0  0  0  0  0  0  0  0  0  0  0
   -1.2245   -3.7401  -11.6635 N   0  0  0  0  0  0  0  0  0  0  0  0
    2.6559   -7.3183   -9.8399 C   0  0  0  0  0  0  0  0  0  0  0  0
    3.9497   -6.7518  -10.4752 C   0  0  0  0  0  0  0  0  0  0  0  0
    4.2775   -5.4866   -9.7219 C   0  0  0  0  0  0  0  0  0  0  0  0
    4.6735   -5.8319   -8.5041 C   0  0  0  0  0  0  0  0  0  0  0  0
    4.6215   -7.3369   -8.4122 C   0  0  0  0  0  0  0  0  0  0  0  0
    4.9827   -7.7089   -9.8592 C   0  0  0  0  0  0  0  0  0  0  0  0
    3.1226   -7.7286   -8.4076 C   0  0  0  0  0  0  0  0  0  0  0  0
   -1.5332   -1.8736   -4.8772 C   0  0  0  0  0  0  0  0  0  0  0  0
   -2.6730   -1.3158   -4.2570 C   0  0  0  0  0  0  0  0  0  0  0  0
   -2.6460   -0.7210   -2.9391 C   0  0  0  0  0  0  0  0  0  0  0  0
   -3.8623   -0.3419   -2.5413 N   0  0  0  0  0  0  0  0  0  0  0  0
   -4.9209   -0.6835   -3.7000 S   0  0  0  0  0  4  0  0  0  0  0  0
   -3.9057   -1.3230   -4.7668 N   0  0  0  0  0  0  0  0  0  0  0  0
   -1.4558   -0.6149   -2.1881 C   0  0  0  0  0  0  0  0  0  0  0  0
   -0.3356   -1.2445   -2.7706 C   0  0  0  0  0  0  0  0  0  0  0  0
    0.8871   -1.2657   -2.2365 N   0  0  0  0  0  0  0  0  0  0  0  0
    1.9048   -1.9066   -3.3006 S   0  0  0  0  0  0  0  0  0  0  0  0
    0.8676   -2.1738   -4.4897 N   0  0  0  0  0  0  0  0  0  0  0  0
   -0.3560   -1.8129   -4.1014 C   0  0  0  0  0  0  0  0  0  0  0  0
   -1.3468    0.1080   -0.9721 C   0  0  0  0  0  0  0  0  0  0  0  0
   -2.0084    1.2868   -0.5931 C   0  0  0  0  0  0  0  0  0  0  0  0
   -2.7241    2.1093   -1.4279 N   0  0  0  0  0  0  0  0  0  0  0  0
   -2.4850    2.1397   -2.8085 C   0  0  0  0  0  0  0  0  0  0  0  0
   -3.5476    2.2906   -3.6947 C   0  0  0  0  0  0  0  0  0  0  0  0
   -3.3538    2.1718   -5.0568 C   0  0  0  0  0  0  0  0  0  0  0  0
   -2.0854    1.9067   -5.5609 C   0  0  0  0  0  0  0  0  0  0  0  0
   -1.7329    1.6159   -7.2567 S   0  0  0  0  0  0  0  0  0  0  0  0
   -3.3625    1.6345   -8.0488 C   0  0  0  0  0  0  0  0  0  0  0  0
   -1.0027    1.8566   -4.6793 C   0  0  0  0  0  0  0  0  0  0  0  0
   -1.1963    1.9809   -3.3237 C   0  0  0  0  0  0  0  0  0  0  0  0
   -3.6545    2.9971   -0.8676 C   0  0  0  0  0  0  0  0  0  0  0  0
   -4.5301    2.5606    0.1234 C   0  0  0  0  0  0  0  0  0  0  0  0
   -5.3627    3.4561    0.7634 C   0  0  0  0  0  0  0  0  0  0  0  0
   -5.3283    4.8012    0.4195 C   0  0  0  0  0  0  0  0  0  0  0  0
   -6.2771    6.0282    1.2601 S   0  0  0  0  0  0  0  0  0  0  0  0
   -6.4616    5.2989    2.9153 C   0  0  0  0  0  0  0  0  0  0  0  0
   -4.5159    5.2244   -0.6303 C   0  0  0  0  0  0  0  0  0  0  0  0
   -3.6862    4.3321   -1.2706 C   0  0  0  0  0  0  0  0  0  0  0  0
   -1.6954    1.6197    0.7441 C   0  0  0  0  0  0  0  0  0  0  0  0
   -2.1545    2.9273    1.7911 S   0  0  0  0  0  0  0  0  0  0  0  0
   -1.1378    2.2774    3.0620 C   0  0  0  0  0  0  0  0  0  0  0  0
   -0.3578    1.1870    2.6280 C   0  0  0  0  0  0  0  0  0  0  0  0
    0.7356    0.6852    3.2846 N   0  0  0  0  0  0  0  0  0  0  0  0
    1.5264    1.4972    4.1054 C   0  0  0  0  0  0  0  0  0  0  0  0
    2.1582    0.9688    5.2303 C   0  0  0  0  0  0  0  0  0  0  0  0
    2.8767    1.7774    6.0881 C   0  0  0  0  0  0  0  0  0  0  0  0
    2.9702    3.1429    5.8421 C   0  0  0  0  0  0  0  0  0  0  0  0
    3.7769    4.2861    6.9072 S   0  0  0  0  0  0  0  0  0  0  0  0
    4.8029    3.2458    7.9755 C   0  0  0  0  0  0  0  0  0  0  0  0
    2.3821    3.6690    4.6898 C   0  0  0  0  0  0  0  0  0  0  0  0
    1.6870    2.8576    3.8254 C   0  0  0  0  0  0  0  0  0  0  0  0
    1.0964   -0.6535    3.0688 C   0  0  0  0  0  0  0  0  0  0  0  0
    2.4300   -1.0054    2.8584 C   0  0  0  0  0  0  0  0  0  0  0  0
    2.7646   -2.3164    2.6131 C   0  0  0  0  0  0  0  0  0  0  0  0
    1.7798   -3.3049    2.5715 C   0  0  0  0  0  0  0  0  0  0  0  0
    2.3311   -4.9404    2.2328 S   0  0  0  0  0  0  0  0  0  0  0  0
    0.7976   -5.8960    2.0621 C   0  0  0  0  0  0  0  0  0  0  0  0
    0.4539   -2.9586    2.8035 C   0  0  0  0  0  0  0  0  0  0  0  0
    0.1176   -1.6430    3.0502 C   0  0  0  0  0  0  0  0  0  0  0  0
   -0.7490    0.7887    1.3304 C   0  0  0  0  0  0  0  0  0  0  0  0
   -0.2091   -0.4470    0.2410 S   0  0  0  0  0  0  0  0  0  0  0  0
   -1.1730    2.8762    4.3328 C   0  0  0  0  0  0  0  0  0  0  0  0
   -1.5789    4.2199    4.5049 C   0  0  0  0  0  0  0  0  0  0  0  0
   -1.2876    4.9896    5.6998 C   0  0  0  0  0  0  0  0  0  0  0  0
   -1.7030    6.2469    5.5554 N   0  0  0  0  0  0  0  0  0  0  0  0
   -2.3897    6.4445    4.1087 S   0  0  0  0  0  4  0  0  0  0  0  0
   -2.1819    4.9429    3.5678 N   0  0  0  0  0  0  0  0  0  0  0  0
   -0.6258    4.4094    6.8164 C   0  0  0  0  0  0  0  0  0  0  0  0
   -0.6175    2.9856    6.7602 C   0  0  0  0  0  0  0  0  0  0  0  0
   -0.4505    2.1802    7.8007 N   0  0  0  0  0  0  0  0  0  0  0  0
   -0.5122    0.6490    7.3191 S   0  0  0  0  0  0  0  0  0  0  0  0
   -0.7687    0.9227    5.7529 N   0  0  0  0  0  0  0  0  0  0  0  0
   -0.8312    2.2363    5.5461 C   0  0  0  0  0  0  0  0  0  0  0  0
    0.0242    5.0858    7.8719 C   0  0  0  0  0  0  0  0  0  0  0  0
    0.9235    4.5420    8.7779 C   0  0  0  0  0  0  0  0  0  0  0  0
    1.4628    3.2552    8.8818 C   0  0  0  0  0  0  0  0  0  0  0  0
    2.0222    2.2584    9.0157 N   0  0  0  0  0  0  0  0  0  0  0  0
    1.3556    5.5949    9.6612 C   0  0  0  0  0  0  0  0  0  0  0  0
    2.2794    5.5498   10.6773 C   0  0  0  0  0  0  0  0  0  0  0  0
    3.0488    4.4245   11.0091 C   0  0  0  0  0  0  0  0  0  0  0  0
    3.7459    3.5648   11.3157 N   0  0  0  0  0  0  0  0  0  0  0  0
    2.5509    6.7065   11.4347 C   0  0  0  0  0  0  0  0  0  0  0  0
    2.7770    7.6420   12.0595 N   0  0  0  0  0  0  0  0  0  0  0  0
    0.7284    6.7348    9.3667 O   0  0  0  0  0  0  0  0  0  0  0  0
   -0.0650    6.5671    8.1806 C   0  0  0  0  0  0  0  0  0  0  0  0
   -1.4835    7.0303    8.5025 C   0  0  0  0  0  0  0  0  0  0  0  0
    0.5950    7.4300    7.0996 C   0  0  0  0  0  0  0  0  0  0  0  0
   -2.3825   -1.9120   -6.8085 H   0  0  0  0  0  0  0  0  0  0  0  0
    1.9076   -6.4049   -5.7368 H   0  0  0  0  0  0  0  0  0  0  0  0
    0.4689   -5.1038  -10.4143 H   0  0  0  0  0  0  0  0  0  0  0  0
    2.1870   -8.0793  -10.4605 H   0  0  0  0  0  0  0  0  0  0  0  0
    3.9234   -6.6725  -11.5586 H   0  0  0  0  0  0  0  0  0  0  0  0
    4.1365   -4.4989  -10.1202 H   0  0  0  0  0  0  0  0  0  0  0  0
    4.9287   -5.1897   -7.6815 H   0  0  0  0  0  0  0  0  0  0  0  0
    5.2089   -7.7898   -7.6176 H   0  0  0  0  0  0  0  0  0  0  0  0
    6.0073   -7.4462  -10.1185 H   0  0  0  0  0  0  0  0  0  0  0  0
    4.7999   -8.7560  -10.0968 H   0  0  0  0  0  0  0  0  0  0  0  0
    2.9652   -8.7592   -8.0950 H   0  0  0  0  0  0  0  0  0  0  0  0
   -4.5410    2.4587   -3.3056 H   0  0  0  0  0  0  0  0  0  0  0  0
   -4.2032    2.2641   -5.7135 H   0  0  0  0  0  0  0  0  0  0  0  0
   -3.9981    0.8816   -7.5939 H   0  0  0  0  0  0  0  0  0  0  0  0
   -3.7968    2.6281   -7.9848 H   0  0  0  0  0  0  0  0  0  0  0  0
   -3.1831    1.3685   -9.0853 H   0  0  0  0  0  0  0  0  0  0  0  0
   -0.0110    1.7079   -5.0782 H   0  0  0  0  0  0  0  0  0  0  0  0
   -0.3507    1.9370   -2.6539 H   0  0  0  0  0  0  0  0  0  0  0  0
   -4.5487    1.5145    0.3892 H   0  0  0  0  0  0  0  0  0  0  0  0
   -6.0296    3.0984    1.5311 H   0  0  0  0  0  0  0  0  0  0  0  0
   -7.2391    4.5405    2.9143 H   0  0  0  0  0  0  0  0  0  0  0  0
   -6.7497    6.1146    3.5710 H   0  0  0  0  0  0  0  0  0  0  0  0
   -5.5073    4.8843    3.2260 H   0  0  0  0  0  0  0  0  0  0  0  0
   -4.5226    6.2653   -0.9136 H   0  0  0  0  0  0  0  0  0  0  0  0
   -3.0307    4.6668   -2.0605 H   0  0  0  0  0  0  0  0  0  0  0  0
    2.0554   -0.0832    5.4507 H   0  0  0  0  0  0  0  0  0  0  0  0
    3.3242    1.3433    6.9661 H   0  0  0  0  0  0  0  0  0  0  0  0
    5.4334    2.6135    7.3577 H   0  0  0  0  0  0  0  0  0  0  0  0
    5.4115    3.9300    8.5587 H   0  0  0  0  0  0  0  0  0  0  0  0
    4.1708    2.6631    8.6420 H   0  0  0  0  0  0  0  0  0  0  0  0
    2.4911    4.7220    4.4797 H   0  0  0  0  0  0  0  0  0  0  0  0
    1.2622    3.2763    2.9257 H   0  0  0  0  0  0  0  0  0  0  0  0
    3.1932   -0.2422    2.8729 H   0  0  0  0  0  0  0  0  0  0  0  0
    3.7923   -2.5941    2.4374 H   0  0  0  0  0  0  0  0  0  0  0  0
    0.2717   -5.9345    3.0116 H   0  0  0  0  0  0  0  0  0  0  0  0
    1.1078   -6.8959    1.7749 H   0  0  0  0  0  0  0  0  0  0  0  0
    0.1798   -5.4626    1.2814 H   0  0  0  0  0  0  0  0  0  0  0  0
   -0.3249   -3.7033    2.8010 H   0  0  0  0  0  0  0  0  0  0  0  0
   -0.9091   -1.3743    3.2471 H   0  0  0  0  0  0  0  0  0  0  0  0
   -2.0961    6.9777    7.6095 H   0  0  0  0  0  0  0  0  0  0  0  0
   -1.4464    8.0554    8.8607 H   0  0  0  0  0  0  0  0  0  0  0  0
   -1.9133    6.4020    9.2799 H   0  0  0  0  0  0  0  0  0  0  0  0
    0.6839    8.4464    7.4734 H   0  0  0  0  0  0  0  0  0  0  0  0
   -0.0085    7.4276    6.1999 H   0  0  0  0  0  0  0  0  0  0  0  0
    1.5902    7.0476    6.8776 H   0  0  0  0  0  0  0  0  0  0  0  0
  1  2  2  0  0  0  0
  2  3  1  0  0  0  0
  3  4  2  0  0  0  0
  3  5  1  0  0  0  0
  5  6  2  0  0  0  0
  6  7  1  0  0  0  0
  7  8  2  0  0  0  0
  8  9  1  0  0  0  0
  9 10  2  0  0  0  0
 10 11  1  0  0  0  0
 11 12  2  0  0  0  0
 12 13  1  0  0  0  0
 13 14  3  0  0  0  0
 12 15  1  0  0  0  0
 15 16  3  0  0  0  0
  8 17  1  0  0  0  0
 17 18  1  0  0  0  0
 18 19  1  0  0  0  0
 19 20  2  0  0  0  0
 20 21  1  0  0  0  0
 21 22  1  0  0  0  0
 21 23  1  0  0  0  0
  1 24  1  0  0  0  0
 24 25  2  0  0  0  0
 25 26  1  0  0  0  0
 26 27  1  0  0  0  0
 27 28  2  0  0  0  0
 28 29  2  0  0  0  0
 26 30  2  0  0  0  0
 30 31  1  0  0  0  0
 31 32  2  0  0  0  0
 32 33  1  0  0  0  0
 33 34  1  0  0  0  0
 34 35  2  0  0  0  0
 30 36  1  0  0  0  0
 36 37  2  0  0  0  0
 37 38  1  0  0  0  0
 38 39  1  0  0  0  0
 39 40  2  0  0  0  0
 40 41  1  0  0  0  0
 41 42  2  0  0  0  0
 42 43  1  0  0  0  0
 43 44  1  0  0  0  0
 42 45  1  0  0  0  0
 45 46  2  0  0  0  0
 38 47  1  0  0  0  0
 47 48  2  0  0  0  0
 48 49  1  0  0  0  0
 49 50  2  0  0  0  0
 50 51  1  0  0  0  0
 51 52  1  0  0  0  0
 50 53  1  0  0  0  0
 53 54  2  0  0  0  0
 37 55  1  0  0  0  0
 55 56  1  0  0  0  0
 56 57  1  0  0  0  0
 57 58  2  0  0  0  0
 58 59  1  0  0  0  0
 59 60  1  0  0  0  0
 60 61  2  0  0  0  0
 61 62  1  0  0  0  0
 62 63  2  0  0  0  0
 63 64  1  0  0  0  0
 64 65  1  0  0  0  0
 63 66  1  0  0  0  0
 66 67  2  0  0  0  0
 59 68  1  0  0  0  0
 68 69  2  0  0  0  0
 69 70  1  0  0  0  0
 70 71  2  0  0  0  0
 71 72  1  0  0  0  0
 72 73  1  0  0  0  0
 71 74  1  0  0  0  0
 74 75  2  0  0  0  0
 58 76  1  0  0  0  0
 76 77  1  0  0  0  0
 57 78  1  0  0  0  0
 78 79  2  0  0  0  0
 79 80  1  0  0  0  0
 80 81  1  0  0  0  0
 81 82  2  0  0  0  0
 82 83  2  0  0  0  0
 80 84  2  0  0  0  0
 84 85  1  0  0  0  0
 85 86  2  0  0  0  0
 86 87  1  0  0  0  0
 87 88  1  0  0  0  0
 88 89  2  0  0  0  0
 84 90  1  0  0  0  0
 90 91  2  0  0  0  0
 91 92  1  0  0  0  0
 92 93  3  0  0  0  0
 91 94  1  0  0  0  0
 94 95  2  0  0  0  0
 95 96  1  0  0  0  0
 96 97  3  0  0  0  0
 95 98  1  0  0  0  0
 98 99  3  0  0  0  0
 94100  1  0  0  0  0
100101  1  0  0  0  0
101102  1  0  0  0  0
101103  1  0  0  0  0
 11  2  1  0  0  0  0
 23 17  1  0  0  0  0
 35 24  1  0  0  0  0
 77 36  1  0  0  0  0
 89 78  1  0  0  0  0
101 90  1  0  0  0  0
 10  5  1  0  0  0  0
 22 18  1  0  0  0  0
 29 25  1  0  0  0  0
 35 31  1  0  0  0  0
 46 39  1  0  0  0  0
 54 47  1  0  0  0  0
 76 55  2  0  0  0  0
 83 79  1  0  0  0  0
 89 85  1  0  0  0  0
 23  7  1  0  0  0  0
 67 60  1  0  0  0  0
 75 68  1  0  0  0  0
  1104  1  0  0  0  0
  6105  1  0  0  0  0
  9106  1  0  0  0  0
 17107  1  0  0  0  0
 18108  1  0  0  0  0
 19109  1  0  0  0  0
 20110  1  0  0  0  0
 21111  1  0  0  0  0
 22112  1  0  0  0  0
 22113  1  0  0  0  0
 23114  1  0  0  0  0
 40115  1  0  0  0  0
 41116  1  0  0  0  0
 44117  1  0  0  0  0
 44118  1  0  0  0  0
 44119  1  0  0  0  0
 45120  1  0  0  0  0
 46121  1  0  0  0  0
 48122  1  0  0  0  0
 49123  1  0  0  0  0
 52124  1  0  0  0  0
 52125  1  0  0  0  0
 52126  1  0  0  0  0
 53127  1  0  0  0  0
 54128  1  0  0  0  0
 61129  1  0  0  0  0
 62130  1  0  0  0  0
 65131  1  0  0  0  0
 65132  1  0  0  0  0
 65133  1  0  0  0  0
 66134  1  0  0  0  0
 67135  1  0  0  0  0
 69136  1  0  0  0  0
 70137  1  0  0  0  0
 73138  1  0  0  0  0
 73139  1  0  0  0  0
 73140  1  0  0  0  0
 74141  1  0  0  0  0
 75142  1  0  0  0  0
102143  1  0  0  0  0
102144  1  0  0  0  0
102145  1  0  0  0  0
103146  1  0  0  0  0
103147  1  0  0  0  0
103148  1  0  0  0  0
M  END
