237

C         -6.81800        5.04000        1.02960
C         -7.00120        6.12660        0.20860
C         -6.25050        6.44560       -1.00870
O         -5.55020        5.69840       -1.67330
C         -6.51050        7.87010       -1.28780
C         -5.94780        8.65040       -2.29510
C         -6.37150        9.95810       -2.29290
C         -7.28590       10.45750       -1.35700
C         -7.84770        9.69940       -0.35640
C         -7.43070        8.36600       -0.34160
C         -7.80340        7.27610        0.55670
C         -8.75530        7.34420        1.54440
C         -9.22790        6.24810        2.29080
N         -9.70210        5.41270        2.92300
C         -9.42630        8.51740        1.93900
N         -9.99610        9.42620        2.35100
C         -7.25220       11.84640       -1.94530
C         -8.45360       12.25550       -2.82310
C         -7.93240       13.42440       -3.62760
C         -7.06810       12.95000       -4.51540
C         -6.99000       11.45230       -4.32560
C         -8.43590       11.16430       -3.90140
C         -6.23330       11.28850       -2.99040
C         -5.93920        3.96010        0.91900
C         -5.61730        3.08970        1.99030
N         -6.04700        3.24090        3.28960
C         -6.20920        4.52500        3.84390
C         -7.30940        4.82970        4.63990
C         -7.51420        6.12050        5.08860
C         -6.63020        7.13050        4.73480
S         -6.84730        8.82720        5.16210
C         -8.55560        8.90740        5.76670
C         -5.49120        6.81340        3.99300
C         -5.27520        5.52520        3.56280
C         -6.39100        2.10880        4.04110
C         -6.23930        2.10440        5.42880
C         -6.66340        1.02580        6.16990
C         -7.21700       -0.09140        5.54530
S         -7.74720       -1.39770        6.60150
C         -8.45640       -2.62130        5.46090
C         -7.33210       -0.10810        4.16260
C         -6.93630        0.98740        3.42190
C         -4.75340        2.06740        1.56380
S         -3.91260        0.76560        2.36120
C         -3.09590        0.35700        0.85790
C         -3.54910        1.12780       -0.20470
N         -3.21510        0.86060       -1.52840
C         -2.96080        1.93760       -2.37850
C         -3.40590        1.94290       -3.69880
C         -3.24040        3.06890       -4.47670
C         -2.64530        4.20100       -3.94130
S         -2.57200        5.70670       -4.89230
C         -4.35930        6.05090       -4.92400
C         -2.14420        4.18320       -2.64990
C         -2.29340        3.05340       -1.87430
C         -3.34030       -0.45580       -1.98820
C         -4.30590       -1.30630       -1.45530
C         -4.40080       -2.61920       -1.87240
C         -3.52840       -3.10660       -2.83580
S         -3.53250       -4.78060       -3.40490
C         -5.06920       -5.46790       -2.72170
C         -2.56770       -2.25700       -3.38020
C         -2.47470       -0.94740       -2.96380
C         -4.44950        2.12900        0.20800
S         -5.12990        3.50220       -0.57920
C         -1.95890       -0.50070        0.73030
C         -1.62320       -1.73100        1.26440
N         -2.42620       -2.51340        2.08980
C         -2.84570       -2.01060        3.32430
C         -2.09150       -1.03780        3.97780
C         -2.46950       -0.56360        5.21810
C         -3.60810       -1.06120        5.83330
S         -4.12370       -0.58780        7.45200
C         -3.30400        1.01550        7.69190
C         -4.37480       -2.02280        5.17830
C         -4.00860       -2.48390        3.93450
C         -2.50300       -3.87660        1.77250
C         -2.56020       -4.86980        2.75060
C         -2.61060       -6.19780        2.38790
C         -2.58200       -6.57210        1.04620
S         -2.65570       -8.30070        0.69160
C         -2.17830       -8.39390       -1.05850
C         -2.51270       -5.58920        0.06930
C         -2.48310       -4.25830        0.43210
C         -0.34620       -2.15770        0.81150
S          0.65850       -3.52750        1.15560
C          1.92500       -2.86830        0.13920
C          1.59930       -1.63370       -0.39570
N          2.45450       -0.81440       -1.11530
C          1.91340       -0.11180       -2.20720
C          1.13660       -0.78710       -3.14700
C          0.57650       -0.09940       -4.20030
C          0.75240        1.27900       -4.32070
S         -0.07540        2.05420       -5.67050
C          0.42250        3.79190       -5.56030
C          1.54030        1.94910       -3.39350
C          2.12490        1.25480       -2.35190
C          3.80430       -0.69920       -0.77220
C          4.77720       -0.53520       -1.75600
C          6.12020       -0.54510       -1.43070
C          6.51550       -0.71640       -0.11120
S          8.19180       -0.83960        0.43100
C          9.16430       -0.69860       -1.09290
C          5.54620       -0.81480        0.88370
C          4.20880       -0.80100        0.56040
C          0.28780       -1.25770       -0.02440
S         -0.67180        0.14130       -0.30480
C          3.19990       -3.49440       -0.06210
C          4.13480       -3.85110        0.85650
C          5.41470       -4.09550        0.29400
C          6.63180       -4.25590        0.97730
C          6.71290       -4.33470        2.42100
C          7.64470       -3.75410        3.23350
C          7.45050       -4.07180        4.59420
Cl         8.47180       -3.46570        5.83760
C          6.38620       -4.89170        4.83820
C          5.93490       -5.46720        6.13470
C          6.56100       -6.84440        6.36780
S          5.59200       -5.28770        3.35440
C          7.78900       -4.29890        0.20170
C          7.77310       -4.18640       -1.21370
C          6.55140       -3.97360       -1.90170
C          6.51090       -3.70230       -3.32060
S          5.17300       -4.23550       -4.30040
C          5.81340       -3.47920       -5.71680
C          5.06450       -3.50430       -7.00230
C          3.90380       -2.50630       -6.97440
C          6.99120       -2.85410       -5.42110
C          7.39620       -2.98270       -4.07710
Cl         7.91510       -1.97500       -6.57880
C          5.40640       -3.96010       -1.11910
S          3.80780       -3.60030       -1.70410
C          9.06170       -4.32570       -1.74700
C         10.05270       -4.50740       -0.79550
S          9.39350       -4.52930        0.82490
C         11.40880       -4.61950       -1.16310
C         12.53100       -4.78490       -0.39910
C         12.56260       -4.95890        1.06630
O         11.62530       -4.92830        1.83390
C         13.98130       -5.18830        1.40770
C         14.57930       -5.43290        2.63090
F         13.85640       -5.48830        3.75210
C         15.95330       -5.62640        2.70510
C         16.71350       -5.57490        1.54970
C         16.13550       -5.33040        0.31000
C         14.76560       -5.13480        0.24020
C         13.89000       -4.85810       -0.89960
C         14.31340       -4.67010       -2.18980
C         13.49070       -4.35400       -3.29190
N         12.89970       -4.08320       -4.23910
C         15.65990       -4.74410       -2.60620
N         16.72990       -4.79020       -3.01940
H         -7.39280        5.04840        1.94610
H         -5.23690        8.23530       -2.99180
H         -8.54230       10.09770        0.36450
H         -6.92750       12.63760       -1.27230
H         -9.38230       12.40970       -2.28050
H         -8.19520       14.44850       -3.43730
H         -6.46440       13.49830       -5.21470
H         -6.58570       10.87490       -5.15290
H         -9.14710       11.36440       -4.70110
H         -8.59370       10.15820       -3.51690
H         -5.22990       11.70960       -3.01580
H         -8.03030        4.06340        4.87800
H         -8.38710        6.32700        5.68500
H         -8.76530        9.96370        5.90300
H         -8.64370        8.38810        6.71660
H         -9.22890        8.49410        5.02150
H         -4.78600        7.59500        3.75550
H         -4.39920        5.28870        2.97720
H         -5.80600        2.96240        5.92110
H         -6.57300        1.03120        7.24450
H         -9.29630       -2.18760        4.92610
H         -7.69490       -2.98190        4.77520
H         -8.80180       -3.43700        6.08850
H         -7.75160       -0.95610        3.64670
H         -7.07800        0.98150        2.35150
H         -3.90240        1.07360       -4.10250
H         -3.59420        3.07730       -5.49620
H         -4.74730        5.95830       -3.91300
H         -4.47670        7.06330       -5.29760
H         -4.85650        5.35000       -5.58830
H         -1.65570        5.06040       -2.25350
H         -1.91030        3.03110       -0.86470
H         -4.99160       -0.94040       -0.70560
H         -5.15510       -3.25050       -1.43130
H         -5.91110       -4.85300       -3.02530
H         -5.00300       -5.54150       -1.63920
H         -5.16490       -6.45920       -3.15450
H         -1.88920       -2.64060       -4.12680
H         -1.72430       -0.29330       -3.37800
H         -1.18610       -0.66700        3.52020
H         -1.85310        0.17590        5.70290
H         -2.24240        0.87710        7.87470
H         -3.76900        1.45790        8.56730
H         -3.47810        1.63910        6.82020
H         -5.25520       -2.40570        5.66910
H         -4.61380       -3.21990        3.42660
H         -2.54520       -4.60040        3.79550
H         -2.65340       -6.96500        3.14560
H         -2.95700       -7.97510       -1.68920
H         -2.06200       -9.45150       -1.27370
H         -1.23420       -7.87850       -1.20660
H         -2.47820       -5.84060       -0.97810
H         -2.44030       -3.50250       -0.33790
H          0.98650       -1.85200       -3.04560
H          0.00050       -0.61900       -4.95120
H         -0.08030        4.29390       -6.38090
H          1.49910        3.87640       -5.67550
H          0.08340        4.21620       -4.62020
H          1.69980        3.01250       -3.46690
H          2.73990        1.77550       -1.63280
H          4.47720       -0.43440       -2.78850
H          6.84440       -0.44130       -2.22230
H         10.20320       -0.77340       -0.78630
H          8.98650        0.26400       -1.56320
H          8.91760       -1.51940       -1.75940
H          5.85810       -0.91640        1.91190
H          3.46610       -0.88300        1.33960
H          3.93770       -3.84380        1.91250
H          8.41880       -3.09520        2.88690
H          6.23170       -4.79100        6.93910
H          4.84690       -5.55740        6.13650
H          6.22920       -7.25060        7.31970
H          6.27070       -7.53010        5.57480
H          7.64530       -6.76720        6.38000
H          5.74930       -3.25160       -7.81380
H          4.67270       -4.50840       -7.17740
H          4.27650       -1.49660       -6.81920
H          3.21640       -2.74870       -6.16710
H          3.36220       -2.53540       -7.91600
H          8.28620       -2.51550       -3.69900
H          9.27970       -4.32610       -2.80010
H         11.55660       -4.55700       -2.23480
H         16.40660       -5.81540        3.66540
H         17.77970       -5.72850        1.61220
H         16.75490       -5.29910       -0.57040
