
  xtb     02052220493D
 energy: -375.580639016299 gnorm: 0.000475929629 xtb: 6.4.1 (unknown)
226249  0     0  0            999 V2000
   -3.5295   -2.5890   -6.8799 C   0  0  0  0  0  0  0  0  0  0  0  0
   -4.3385   -3.6873   -6.8683 C   0  0  0  0  0  0  0  0  0  0  0  0
   -4.6147   -4.4545   -5.6339 C   0  0  0  0  0  0  0  0  0  0  0  0
   -4.3084   -4.1578   -4.4966 O   0  0  0  0  0  0  0  0  0  0  0  0
   -5.2275   -5.7186   -6.0871 C   0  0  0  0  0  0  0  0  0  0  0  0
   -5.6416   -6.7822   -5.2889 C   0  0  0  0  0  0  0  0  0  0  0  0
   -6.2051   -7.8235   -5.9880 C   0  0  0  0  0  0  0  0  0  0  0  0
   -6.3423   -7.8121   -7.3828 C   0  0  0  0  0  0  0  0  0  0  0  0
   -5.9337   -6.7716   -8.1838 C   0  0  0  0  0  0  0  0  0  0  0  0
   -5.3587   -5.7043   -7.4907 C   0  0  0  0  0  0  0  0  0  0  0  0
   -4.8432   -4.4346   -7.9926 C   0  0  0  0  0  0  0  0  0  0  0  0
   -4.9285   -3.9696   -9.2799 C   0  0  0  0  0  0  0  0  0  0  0  0
   -5.4494   -4.7025  -10.3634 C   0  0  0  0  0  0  0  0  0  0  0  0
   -5.8498   -5.2564  -11.2864 N   0  0  0  0  0  0  0  0  0  0  0  0
   -4.5521   -2.6631   -9.6519 C   0  0  0  0  0  0  0  0  0  0  0  0
   -4.2964   -1.5990  -10.0003 N   0  0  0  0  0  0  0  0  0  0  0  0
   -6.9843   -9.1766   -7.4111 C   0  0  0  0  0  0  0  0  0  0  0  0
   -6.1083  -10.3753   -7.8510 C   0  0  0  0  0  0  0  0  0  0  0  0
   -4.6823  -10.0076   -7.5241 C   0  0  0  0  0  0  0  0  0  0  0  0
   -4.5535  -10.0191   -6.2041 C   0  0  0  0  0  0  0  0  0  0  0  0
   -5.8906  -10.3946   -5.6144 C   0  0  0  0  0  0  0  0  0  0  0  0
   -6.4068  -11.3510   -6.7013 C   0  0  0  0  0  0  0  0  0  0  0  0
   -6.8331   -9.1898   -5.8567 C   0  0  0  0  0  0  0  0  0  0  0  0
   -3.2267   -1.8114   -5.7278 C   0  0  0  0  0  0  0  0  0  0  0  0
   -4.0512   -1.1029   -4.8508 C   0  0  0  0  0  0  0  0  0  0  0  0
   -5.3934   -0.8544   -5.0034 N   0  0  0  0  0  0  0  0  0  0  0  0
   -5.9341    0.4189   -4.7706 C   0  0  0  0  0  0  0  0  0  0  0  0
   -5.1679    1.5818   -4.8577 C   0  0  0  0  0  0  0  0  0  0  0  0
   -5.7502    2.8138   -4.6628 C   0  0  0  0  0  0  0  0  0  0  0  0
   -7.1138    2.9231   -4.4010 C   0  0  0  0  0  0  0  0  0  0  0  0
   -7.7563    4.5541   -4.2008 S   0  0  0  0  0  0  0  0  0  0  0  0
   -9.4703    4.2836   -3.6675 C   0  0  0  0  0  0  0  0  0  0  0  0
   -7.8858    1.7721   -4.3343 C   0  0  0  0  0  0  0  0  0  0  0  0
   -7.2978    0.5362   -4.5100 C   0  0  0  0  0  0  0  0  0  0  0  0
   -6.2419   -1.7653   -5.6898 C   0  0  0  0  0  0  0  0  0  0  0  0
   -6.8104   -2.8302   -5.0064 C   0  0  0  0  0  0  0  0  0  0  0  0
   -7.6234   -3.7325   -5.6689 C   0  0  0  0  0  0  0  0  0  0  0  0
   -7.8824   -3.5637   -7.0227 C   0  0  0  0  0  0  0  0  0  0  0  0
   -8.8294   -4.6859   -7.9958 S   0  0  0  0  0  0  0  0  0  0  0  0
   -9.3954   -5.9345   -6.8061 C   0  0  0  0  0  0  0  0  0  0  0  0
   -7.3617   -2.4555   -7.6918 C   0  0  0  0  0  0  0  0  0  0  0  0
   -6.5529   -1.5578   -7.0306 C   0  0  0  0  0  0  0  0  0  0  0  0
   -3.2812   -0.5197   -3.8116 C   0  0  0  0  0  0  0  0  0  0  0  0
   -3.6731    0.3741   -2.3786 S   0  0  0  0  0  0  0  0  0  0  0  0
   -1.9872    0.3555   -1.8739 C   0  0  0  0  0  0  0  0  0  0  0  0
   -1.1678   -0.2440   -2.8262 C   0  0  0  0  0  0  0  0  0  0  0  0
    0.2188   -0.3392   -2.7688 N   0  0  0  0  0  0  0  0  0  0  0  0
    0.9977    0.7319   -2.3313 C   0  0  0  0  0  0  0  0  0  0  0  0
    0.6074    2.0475   -2.5791 C   0  0  0  0  0  0  0  0  0  0  0  0
    1.3483    3.0989   -2.0800 C   0  0  0  0  0  0  0  0  0  0  0  0
    2.4719    2.8595   -1.2964 C   0  0  0  0  0  0  0  0  0  0  0  0
    3.2856    4.2521   -0.5615 S   0  0  0  0  0  0  0  0  0  0  0  0
    5.0305    3.7387   -0.5852 C   0  0  0  0  0  0  0  0  0  0  0  0
    2.8838    1.5528   -1.0716 C   0  0  0  0  0  0  0  0  0  0  0  0
    2.1640    0.5021   -1.5978 C   0  0  0  0  0  0  0  0  0  0  0  0
    0.8083   -1.5744   -3.0813 C   0  0  0  0  0  0  0  0  0  0  0  0
    0.1859   -2.7643   -2.7180 C   0  0  0  0  0  0  0  0  0  0  0  0
    0.7531   -3.9831   -3.0346 C   0  0  0  0  0  0  0  0  0  0  0  0
    1.9683   -4.0300   -3.7029 C   0  0  0  0  0  0  0  0  0  0  0  0
    2.8006   -5.5185   -4.1510 S   0  0  0  0  0  0  0  0  0  0  0  0
    1.8183   -6.8245   -3.3636 C   0  0  0  0  0  0  0  0  0  0  0  0
    2.5939   -2.8393   -4.0699 C   0  0  0  0  0  0  0  0  0  0  0  0
    2.0186   -1.6257   -3.7721 C   0  0  0  0  0  0  0  0  0  0  0  0
   -1.9202   -0.7501   -3.9080 C   0  0  0  0  0  0  0  0  0  0  0  0
   -1.5184   -1.6522   -5.3195 S   0  0  0  0  0  0  0  0  0  0  0  0
   -1.5110    0.7872   -0.5961 C   0  0  0  0  0  0  0  0  0  0  0  0
   -1.7567    1.9059    0.1875 C   0  0  0  0  0  0  0  0  0  0  0  0
   -2.7036    2.8930   -0.0457 N   0  0  0  0  0  0  0  0  0  0  0  0
   -4.0414    2.5649   -0.2747 C   0  0  0  0  0  0  0  0  0  0  0  0
   -4.5881    1.3875    0.2329 C   0  0  0  0  0  0  0  0  0  0  0  0
   -5.9136    1.0734    0.0045 C   0  0  0  0  0  0  0  0  0  0  0  0
   -6.7127    1.9349   -0.7306 C   0  0  0  0  0  0  0  0  0  0  0  0
   -8.4163    1.5914   -1.0636 S   0  0  0  0  0  0  0  0  0  0  0  0
   -8.4211   -0.2219   -1.1712 C   0  0  0  0  0  0  0  0  0  0  0  0
   -6.1825    3.1278   -1.2109 C   0  0  0  0  0  0  0  0  0  0  0  0
   -4.8592    3.4356   -0.9964 C   0  0  0  0  0  0  0  0  0  0  0  0
   -2.3413    4.2173    0.2588 C   0  0  0  0  0  0  0  0  0  0  0  0
   -3.1979    5.0733    0.9433 C   0  0  0  0  0  0  0  0  0  0  0  0
   -2.7996    6.3565    1.2652 C   0  0  0  0  0  0  0  0  0  0  0  0
   -1.5311    6.8038    0.9196 C   0  0  0  0  0  0  0  0  0  0  0  0
   -0.9001    8.4050    1.3056 S   0  0  0  0  0  0  0  0  0  0  0  0
   -2.2884    9.2405    2.1241 C   0  0  0  0  0  0  0  0  0  0  0  0
   -0.6703    5.9498    0.2326 C   0  0  0  0  0  0  0  0  0  0  0  0
   -1.0729    4.6764   -0.0973 C   0  0  0  0  0  0  0  0  0  0  0  0
   -0.8412    1.9713    1.2715 C   0  0  0  0  0  0  0  0  0  0  0  0
   -0.5060    3.1667    2.4710 S   0  0  0  0  0  0  0  0  0  0  0  0
    0.8566    2.2211    3.0637 C   0  0  0  0  0  0  0  0  0  0  0  0
    1.0653    1.0561    2.3166 C   0  0  0  0  0  0  0  0  0  0  0  0
    2.1813    0.2580    2.3533 N   0  0  0  0  0  0  0  0  0  0  0  0
    3.4259    0.7425    2.7824 C   0  0  0  0  0  0  0  0  0  0  0  0
    4.2758   -0.0763    3.5241 C   0  0  0  0  0  0  0  0  0  0  0  0
    5.4241    0.4415    4.0838 C   0  0  0  0  0  0  0  0  0  0  0  0
    5.7372    1.7891    3.9306 C   0  0  0  0  0  0  0  0  0  0  0  0
    7.1256    2.4077    4.8301 S   0  0  0  0  0  0  0  0  0  0  0  0
    6.8083    4.1951    4.9205 C   0  0  0  0  0  0  0  0  0  0  0  0
    4.9578    2.5788    3.0924 C   0  0  0  0  0  0  0  0  0  0  0  0
    3.8198    2.0535    2.5152 C   0  0  0  0  0  0  0  0  0  0  0  0
    2.0765   -1.0609    1.8822 C   0  0  0  0  0  0  0  0  0  0  0  0
    3.0453   -1.5874    1.0281 C   0  0  0  0  0  0  0  0  0  0  0  0
    2.8870   -2.8481    0.4974 C   0  0  0  0  0  0  0  0  0  0  0  0
    1.7678   -3.6119    0.8218 C   0  0  0  0  0  0  0  0  0  0  0  0
    1.6499   -5.2008    0.0687 S   0  0  0  0  0  0  0  0  0  0  0  0
   -0.0703   -5.6952    0.3848 C   0  0  0  0  0  0  0  0  0  0  0  0
    0.8330   -3.1154    1.7197 C   0  0  0  0  0  0  0  0  0  0  0  0
    0.9866   -1.8471    2.2437 C   0  0  0  0  0  0  0  0  0  0  0  0
    0.0512    0.9160    1.3393 C   0  0  0  0  0  0  0  0  0  0  0  0
   -0.2780   -0.2553    0.1223 S   0  0  0  0  0  0  0  0  0  0  0  0
    1.6276    2.6323    4.1756 C   0  0  0  0  0  0  0  0  0  0  0  0
    2.2290    1.8113    5.1263 C   0  0  0  0  0  0  0  0  0  0  0  0
    3.0573    2.6149    5.9413 C   0  0  0  0  0  0  0  0  0  0  0  0
    2.9792    3.9738    5.4636 C   0  0  0  0  0  0  0  0  0  0  0  0
    3.5883    4.9800    5.7725 O   0  0  0  0  0  0  0  0  0  0  0  0
    2.0185    3.9262    4.4369 N   0  0  0  0  0  0  0  0  0  0  0  0
    1.6926    5.0898    3.6577 C   0  0  0  0  0  0  0  0  0  0  0  0
    3.7225    1.7913    6.8470 C   0  0  0  0  0  0  0  0  0  0  0  0
    3.2523    0.5168    6.6617 N   0  0  0  0  0  0  0  0  0  0  0  0
    3.4608   -0.6165    7.5220 C   0  0  0  0  0  0  0  0  0  0  0  0
    2.3133    0.4550    5.6107 C   0  0  0  0  0  0  0  0  0  0  0  0
    1.7284   -0.5612    5.2894 O   0  0  0  0  0  0  0  0  0  0  0  0
    4.6890    2.2992    7.7552 C   0  0  0  0  0  0  0  0  0  0  0  0
    5.8859    1.8080    8.1796 C   0  0  0  0  0  0  0  0  0  0  0  0
    6.6571    0.6680    7.6204 C   0  0  0  0  0  0  0  0  0  0  0  0
    6.2657   -0.2258    6.9001 O   0  0  0  0  0  0  0  0  0  0  0  0
    8.0413    0.8603    8.0863 C   0  0  0  0  0  0  0  0  0  0  0  0
    9.1492    0.0886    7.7406 C   0  0  0  0  0  0  0  0  0  0  0  0
   10.3234    0.5058    8.3189 C   0  0  0  0  0  0  0  0  0  0  0  0
   10.3969    1.6183    9.1691 C   0  0  0  0  0  0  0  0  0  0  0  0
    9.3148    2.3912    9.5149 C   0  0  0  0  0  0  0  0  0  0  0  0
    8.1067    1.9746    8.9466 C   0  0  0  0  0  0  0  0  0  0  0  0
    6.7659    2.5237    9.0904 C   0  0  0  0  0  0  0  0  0  0  0  0
    6.3716    3.4727    9.9959 C   0  0  0  0  0  0  0  0  0  0  0  0
    7.2443    4.1343   10.8842 C   0  0  0  0  0  0  0  0  0  0  0  0
    7.9037    4.7082   11.6285 N   0  0  0  0  0  0  0  0  0  0  0  0
    5.0307    3.8556   10.2186 C   0  0  0  0  0  0  0  0  0  0  0  0
    3.9635    4.1781   10.4933 N   0  0  0  0  0  0  0  0  0  0  0  0
   11.8811    1.4581    9.3827 C   0  0  0  0  0  0  0  0  0  0  0  0
   12.3181    0.8387   10.7273 C   0  0  0  0  0  0  0  0  0  0  0  0
   13.7302    0.3669   10.4663 C   0  0  0  0  0  0  0  0  0  0  0  0
   13.6612   -0.6881    9.6645 C   0  0  0  0  0  0  0  0  0  0  0  0
   12.2012   -0.9472    9.3703 C   0  0  0  0  0  0  0  0  0  0  0  0
   11.5818   -0.5070   10.7031 C   0  0  0  0  0  0  0  0  0  0  0  0
   11.7991    0.2160    8.4384 C   0  0  0  0  0  0  0  0  0  0  0  0
   -2.9832   -2.3380   -7.7826 H   0  0  0  0  0  0  0  0  0  0  0  0
   -5.5231   -6.7499   -4.2167 H   0  0  0  0  0  0  0  0  0  0  0  0
   -6.0465   -6.7728   -9.2549 H   0  0  0  0  0  0  0  0  0  0  0  0
   -7.9888   -9.2236   -7.8274 H   0  0  0  0  0  0  0  0  0  0  0  0
   -6.2946  -10.7216   -8.8638 H   0  0  0  0  0  0  0  0  0  0  0  0
   -3.9516   -9.7300   -8.2610 H   0  0  0  0  0  0  0  0  0  0  0  0
   -3.6935   -9.7528   -5.6178 H   0  0  0  0  0  0  0  0  0  0  0  0
   -5.8788  -10.7600   -4.5907 H   0  0  0  0  0  0  0  0  0  0  0  0
   -7.4640  -11.5930   -6.6005 H   0  0  0  0  0  0  0  0  0  0  0  0
   -5.8242  -12.2686   -6.7656 H   0  0  0  0  0  0  0  0  0  0  0  0
   -7.7401   -9.2470   -5.2567 H   0  0  0  0  0  0  0  0  0  0  0  0
   -4.1194    1.5243   -5.1061 H   0  0  0  0  0  0  0  0  0  0  0  0
   -5.1553    3.7113   -4.7326 H   0  0  0  0  0  0  0  0  0  0  0  0
   -9.4842    3.6508   -2.7844 H   0  0  0  0  0  0  0  0  0  0  0  0
  -10.0483    3.8496   -4.4782 H   0  0  0  0  0  0  0  0  0  0  0  0
   -9.8590    5.2682   -3.4265 H   0  0  0  0  0  0  0  0  0  0  0  0
   -8.9451    1.8211   -4.1451 H   0  0  0  0  0  0  0  0  0  0  0  0
   -7.9103   -0.3517   -4.4596 H   0  0  0  0  0  0  0  0  0  0  0  0
   -6.5927   -2.9662   -3.9579 H   0  0  0  0  0  0  0  0  0  0  0  0
   -8.0425   -4.5602   -5.1202 H   0  0  0  0  0  0  0  0  0  0  0  0
   -9.9944   -6.6312   -7.3840 H   0  0  0  0  0  0  0  0  0  0  0  0
  -10.0098   -5.4677   -6.0420 H   0  0  0  0  0  0  0  0  0  0  0  0
   -8.5424   -6.4501   -6.3742 H   0  0  0  0  0  0  0  0  0  0  0  0
   -7.5921   -2.3171   -8.7373 H   0  0  0  0  0  0  0  0  0  0  0  0
   -6.1400   -0.7083   -7.5533 H   0  0  0  0  0  0  0  0  0  0  0  0
   -0.2760    2.2429   -3.1688 H   0  0  0  0  0  0  0  0  0  0  0  0
    1.0673    4.1177   -2.3002 H   0  0  0  0  0  0  0  0  0  0  0  0
    5.2345    3.0304    0.2130 H   0  0  0  0  0  0  0  0  0  0  0  0
    5.6100    4.6436   -0.4314 H   0  0  0  0  0  0  0  0  0  0  0  0
    5.2591    3.3101   -1.5559 H   0  0  0  0  0  0  0  0  0  0  0  0
    3.7571    1.3473   -0.4722 H   0  0  0  0  0  0  0  0  0  0  0  0
    2.4765   -0.5124   -1.4029 H   0  0  0  0  0  0  0  0  0  0  0  0
   -0.7519   -2.7328   -2.1823 H   0  0  0  0  0  0  0  0  0  0  0  0
    0.2402   -4.8865   -2.7495 H   0  0  0  0  0  0  0  0  0  0  0  0
    0.8255   -6.8616   -3.8030 H   0  0  0  0  0  0  0  0  0  0  0  0
    2.3463   -7.7505   -3.5689 H   0  0  0  0  0  0  0  0  0  0  0  0
    1.7786   -6.6491   -2.2926 H   0  0  0  0  0  0  0  0  0  0  0  0
    3.5322   -2.8827   -4.6013 H   0  0  0  0  0  0  0  0  0  0  0  0
    2.5007   -0.7077   -4.0731 H   0  0  0  0  0  0  0  0  0  0  0  0
   -3.9741    0.7200    0.8192 H   0  0  0  0  0  0  0  0  0  0  0  0
   -6.3145    0.1601    0.4148 H   0  0  0  0  0  0  0  0  0  0  0  0
   -7.5474   -0.5389   -1.7326 H   0  0  0  0  0  0  0  0  0  0  0  0
   -8.4332   -0.6613   -0.1778 H   0  0  0  0  0  0  0  0  0  0  0  0
   -9.3289   -0.4927   -1.7010 H   0  0  0  0  0  0  0  0  0  0  0  0
   -6.8119    3.8097   -1.7583 H   0  0  0  0  0  0  0  0  0  0  0  0
   -4.4471    4.3511   -1.3921 H   0  0  0  0  0  0  0  0  0  0  0  0
   -4.1784    4.7308    1.2385 H   0  0  0  0  0  0  0  0  0  0  0  0
   -3.4870    6.9904    1.8013 H   0  0  0  0  0  0  0  0  0  0  0  0
   -2.5422    8.7268    3.0467 H   0  0  0  0  0  0  0  0  0  0  0  0
   -1.9343   10.2421    2.3470 H   0  0  0  0  0  0  0  0  0  0  0  0
   -3.1394    9.2918    1.4513 H   0  0  0  0  0  0  0  0  0  0  0  0
    0.3167    6.2949   -0.0345 H   0  0  0  0  0  0  0  0  0  0  0  0
   -0.4013    4.0151   -0.6217 H   0  0  0  0  0  0  0  0  0  0  0  0
    4.0040   -1.1056    3.6994 H   0  0  0  0  0  0  0  0  0  0  0  0
    6.0553   -0.1809    4.6964 H   0  0  0  0  0  0  0  0  0  0  0  0
    6.9994    4.6618    3.9586 H   0  0  0  0  0  0  0  0  0  0  0  0
    5.7906    4.3803    5.2534 H   0  0  0  0  0  0  0  0  0  0  0  0
    7.5120    4.5774    5.6537 H   0  0  0  0  0  0  0  0  0  0  0  0
    5.2193    3.6074    2.8991 H   0  0  0  0  0  0  0  0  0  0  0  0
    3.2116    2.6767    1.8758 H   0  0  0  0  0  0  0  0  0  0  0  0
    3.9131   -0.9971    0.7741 H   0  0  0  0  0  0  0  0  0  0  0  0
    3.6200   -3.2521   -0.1846 H   0  0  0  0  0  0  0  0  0  0  0  0
   -0.2351   -6.5965   -0.1982 H   0  0  0  0  0  0  0  0  0  0  0  0
   -0.7396   -4.9076    0.0520 H   0  0  0  0  0  0  0  0  0  0  0  0
   -0.2110   -5.9151    1.4390 H   0  0  0  0  0  0  0  0  0  0  0  0
   -0.0155   -3.7056    2.0252 H   0  0  0  0  0  0  0  0  0  0  0  0
    0.2768   -1.4657    2.9611 H   0  0  0  0  0  0  0  0  0  0  0  0
    1.8994    4.9279    2.5980 H   0  0  0  0  0  0  0  0  0  0  0  0
    2.3156    5.9033    4.0297 H   0  0  0  0  0  0  0  0  0  0  0  0
    0.6420    5.3608    3.7757 H   0  0  0  0  0  0  0  0  0  0  0  0
    3.4162   -0.3090    8.5675 H   0  0  0  0  0  0  0  0  0  0  0  0
    2.6639   -1.3288    7.3078 H   0  0  0  0  0  0  0  0  0  0  0  0
    4.4245   -1.0852    7.3223 H   0  0  0  0  0  0  0  0  0  0  0  0
    4.4626    3.3242    8.0349 H   0  0  0  0  0  0  0  0  0  0  0  0
    9.0518   -0.7529    7.0730 H   0  0  0  0  0  0  0  0  0  0  0  0
    9.3858    3.2511   10.1601 H   0  0  0  0  0  0  0  0  0  0  0  0
   12.4986    2.3022    9.0819 H   0  0  0  0  0  0  0  0  0  0  0  0
   12.1668    1.4778   11.5928 H   0  0  0  0  0  0  0  0  0  0  0  0
   14.6073    0.8660   10.8345 H   0  0  0  0  0  0  0  0  0  0  0  0
   14.4693   -1.2462    9.2290 H   0  0  0  0  0  0  0  0  0  0  0  0
   11.9448   -1.9365    9.0007 H   0  0  0  0  0  0  0  0  0  0  0  0
   11.8783   -1.1528   11.5279 H   0  0  0  0  0  0  0  0  0  0  0  0
   10.4972   -0.4191   10.6814 H   0  0  0  0  0  0  0  0  0  0  0  0
   12.3628    0.2302    7.5076 H   0  0  0  0  0  0  0  0  0  0  0  0
  1  2  2  0  0  0  0
  2  3  1  0  0  0  0
  3  4  2  0  0  0  0
  3  5  1  0  0  0  0
  5  6  2  0  0  0  0
  6  7  1  0  0  0  0
  7  8  2  0  0  0  0
  8  9  1  0  0  0  0
  9 10  2  0  0  0  0
 10 11  1  0  0  0  0
 11 12  2  0  0  0  0
 12 13  1  0  0  0  0
 13 14  3  0  0  0  0
 12 15  1  0  0  0  0
 15 16  3  0  0  0  0
  8 17  1  0  0  0  0
 17 18  1  0  0  0  0
 18 19  1  0  0  0  0
 19 20  2  0  0  0  0
 20 21  1  0  0  0  0
 21 22  1  0  0  0  0
 21 23  1  0  0  0  0
  1 24  1  0  0  0  0
 24 25  2  0  0  0  0
 25 26  1  0  0  0  0
 26 27  1  0  0  0  0
 27 28  2  0  0  0  0
 28 29  1  0  0  0  0
 29 30  2  0  0  0  0
 30 31  1  0  0  0  0
 31 32  1  0  0  0  0
 30 33  1  0  0  0  0
 33 34  2  0  0  0  0
 26 35  1  0  0  0  0
 35 36  2  0  0  0  0
 36 37  1  0  0  0  0
 37 38  2  0  0  0  0
 38 39  1  0  0  0  0
 39 40  1  0  0  0  0
 38 41  1  0  0  0  0
 41 42  2  0  0  0  0
 25 43  1  0  0  0  0
 43 44  1  0  0  0  0
 44 45  1  0  0  0  0
 45 46  2  0  0  0  0
 46 47  1  0  0  0  0
 47 48  1  0  0  0  0
 48 49  2  0  0  0  0
 49 50  1  0  0  0  0
 50 51  2  0  0  0  0
 51 52  1  0  0  0  0
 52 53  1  0  0  0  0
 51 54  1  0  0  0  0
 54 55  2  0  0  0  0
 47 56  1  0  0  0  0
 56 57  2  0  0  0  0
 57 58  1  0  0  0  0
 58 59  2  0  0  0  0
 59 60  1  0  0  0  0
 60 61  1  0  0  0  0
 59 62  1  0  0  0  0
 62 63  2  0  0  0  0
 46 64  1  0  0  0  0
 64 65  1  0  0  0  0
 45 66  1  0  0  0  0
 66 67  2  0  0  0  0
 67 68  1  0  0  0  0
 68 69  1  0  0  0  0
 69 70  2  0  0  0  0
 70 71  1  0  0  0  0
 71 72  2  0  0  0  0
 72 73  1  0  0  0  0
 73 74  1  0  0  0  0
 72 75  1  0  0  0  0
 75 76  2  0  0  0  0
 68 77  1  0  0  0  0
 77 78  2  0  0  0  0
 78 79  1  0  0  0  0
 79 80  2  0  0  0  0
 80 81  1  0  0  0  0
 81 82  1  0  0  0  0
 80 83  1  0  0  0  0
 83 84  2  0  0  0  0
 67 85  1  0  0  0  0
 85 86  1  0  0  0  0
 86 87  1  0  0  0  0
 87 88  2  0  0  0  0
 88 89  1  0  0  0  0
 89 90  1  0  0  0  0
 90 91  2  0  0  0  0
 91 92  1  0  0  0  0
 92 93  2  0  0  0  0
 93 94  1  0  0  0  0
 94 95  1  0  0  0  0
 93 96  1  0  0  0  0
 96 97  2  0  0  0  0
 89 98  1  0  0  0  0
 98 99  2  0  0  0  0
 99100  1  0  0  0  0
100101  2  0  0  0  0
101102  1  0  0  0  0
102103  1  0  0  0  0
101104  1  0  0  0  0
104105  2  0  0  0  0
 88106  1  0  0  0  0
106107  1  0  0  0  0
 87108  1  0  0  0  0
108109  2  0  0  0  0
109110  1  0  0  0  0
110111  1  0  0  0  0
111112  2  0  0  0  0
111113  1  0  0  0  0
113114  1  0  0  0  0
110115  2  0  0  0  0
115116  1  0  0  0  0
116117  1  0  0  0  0
116118  1  0  0  0  0
118119  2  0  0  0  0
115120  1  0  0  0  0
120121  2  0  0  0  0
121122  1  0  0  0  0
122123  2  0  0  0  0
122124  1  0  0  0  0
124125  2  0  0  0  0
125126  1  0  0  0  0
126127  2  0  0  0  0
127128  1  0  0  0  0
128129  2  0  0  0  0
129130  1  0  0  0  0
130131  2  0  0  0  0
131132  1  0  0  0  0
132133  3  0  0  0  0
131134  1  0  0  0  0
134135  3  0  0  0  0
127136  1  0  0  0  0
136137  1  0  0  0  0
137138  1  0  0  0  0
138139  2  0  0  0  0
139140  1  0  0  0  0
140141  1  0  0  0  0
140142  1  0  0  0  0
 11  2  1  0  0  0  0
 23 17  1  0  0  0  0
 65 24  1  0  0  0  0
107 66  1  0  0  0  0
113108  1  0  0  0  0
130121  1  0  0  0  0
142136  1  0  0  0  0
 10  5  1  0  0  0  0
 22 18  1  0  0  0  0
 34 27  1  0  0  0  0
 42 35  1  0  0  0  0
 64 43  2  0  0  0  0
 76 69  1  0  0  0  0
 84 77  1  0  0  0  0
106 85  2  0  0  0  0
118109  1  0  0  0  0
129124  1  0  0  0  0
141137  1  0  0  0  0
 23  7  1  0  0  0  0
 55 48  1  0  0  0  0
 63 56  1  0  0  0  0
 97 90  1  0  0  0  0
105 98  1  0  0  0  0
142126  1  0  0  0  0
  1143  1  0  0  0  0
  6144  1  0  0  0  0
  9145  1  0  0  0  0
 17146  1  0  0  0  0
 18147  1  0  0  0  0
 19148  1  0  0  0  0
 20149  1  0  0  0  0
 21150  1  0  0  0  0
 22151  1  0  0  0  0
 22152  1  0  0  0  0
 23153  1  0  0  0  0
 28154  1  0  0  0  0
 29155  1  0  0  0  0
 32156  1  0  0  0  0
 32157  1  0  0  0  0
 32158  1  0  0  0  0
 33159  1  0  0  0  0
 34160  1  0  0  0  0
 36161  1  0  0  0  0
 37162  1  0  0  0  0
 40163  1  0  0  0  0
 40164  1  0  0  0  0
 40165  1  0  0  0  0
 41166  1  0  0  0  0
 42167  1  0  0  0  0
 49168  1  0  0  0  0
 50169  1  0  0  0  0
 53170  1  0  0  0  0
 53171  1  0  0  0  0
 53172  1  0  0  0  0
 54173  1  0  0  0  0
 55174  1  0  0  0  0
 57175  1  0  0  0  0
 58176  1  0  0  0  0
 61177  1  0  0  0  0
 61178  1  0  0  0  0
 61179  1  0  0  0  0
 62180  1  0  0  0  0
 63181  1  0  0  0  0
 70182  1  0  0  0  0
 71183  1  0  0  0  0
 74184  1  0  0  0  0
 74185  1  0  0  0  0
 74186  1  0  0  0  0
 75187  1  0  0  0  0
 76188  1  0  0  0  0
 78189  1  0  0  0  0
 79190  1  0  0  0  0
 82191  1  0  0  0  0
 82192  1  0  0  0  0
 82193  1  0  0  0  0
 83194  1  0  0  0  0
 84195  1  0  0  0  0
 91196  1  0  0  0  0
 92197  1  0  0  0  0
 95198  1  0  0  0  0
 95199  1  0  0  0  0
 95200  1  0  0  0  0
 96201  1  0  0  0  0
 97202  1  0  0  0  0
 99203  1  0  0  0  0
100204  1  0  0  0  0
103205  1  0  0  0  0
103206  1  0  0  0  0
103207  1  0  0  0  0
104208  1  0  0  0  0
105209  1  0  0  0  0
114210  1  0  0  0  0
114211  1  0  0  0  0
114212  1  0  0  0  0
117213  1  0  0  0  0
117214  1  0  0  0  0
117215  1  0  0  0  0
120216  1  0  0  0  0
125217  1  0  0  0  0
128218  1  0  0  0  0
136219  1  0  0  0  0
137220  1  0  0  0  0
138221  1  0  0  0  0
139222  1  0  0  0  0
140223  1  0  0  0  0
141224  1  0  0  0  0
141225  1  0  0  0  0
142226  1  0  0  0  0
M  END
