141

C         -5.57040       -3.53620       -1.40280
C         -4.76580       -3.55610       -2.48440
C         -3.38320       -2.98550       -2.47150
O         -2.91560       -2.21550       -1.66170
C         -2.74880       -3.46060       -3.70790
C         -1.41440       -3.29360       -4.07230
C         -1.09990       -3.83640       -5.29330
C         -2.04570       -4.48100       -6.10470
C         -3.36450       -4.65170       -5.75750
C         -3.70740       -4.11820       -4.50860
C         -4.98960       -4.11710       -3.81250
C         -6.18460       -4.55410       -4.31150
C         -7.40560       -4.50220       -3.60480
N         -8.42810       -4.47990       -3.08420
C         -6.36590       -5.08440       -5.60680
N         -6.57900       -5.52170       -6.64620
C         -1.03880       -4.75130       -7.19610
C         -1.09290       -3.82490       -8.43000
C          0.26360       -4.00180       -9.07420
C          1.15980       -3.40310       -8.30000
C          0.42530       -2.81190       -7.11880
C         -0.90230       -2.44220       -7.79300
C          0.01500       -4.04380       -6.28500
C         -5.01570       -3.04730       -0.14560
C         -5.42160       -1.84820        0.45790
N         -4.61020       -1.19910        1.25750
C         -3.43450       -1.75280        1.57190
C         -3.23030       -3.11180        1.25680
N         -3.98240       -3.71190        0.37480
C         -2.39360       -0.93860        2.11610
C         -2.46560        0.34480        2.65120
N         -3.62090        0.99330        3.01610
C         -4.72500        0.28730        3.51060
C         -6.02060        0.68700        3.18320
C         -7.10390       -0.00890        3.66730
C         -6.92360       -1.12100        4.48860
S         -8.38930       -1.93960        5.03200
C         -7.77710       -3.33030        6.02550
C         -5.63650       -1.51420        4.82800
C         -4.54970       -0.81150        4.34560
C         -3.68110        2.38960        2.88790
C         -3.12000        3.01710        1.77930
C         -3.13290        4.39330        1.66530
C         -3.71660        5.16570        2.65990
S         -3.78010        6.92770        2.63010
C         -2.66870        7.37460        1.26550
C         -4.30830        4.53880        3.75620
C         -4.28960        3.16780        3.87280
C         -1.16550        0.89630        2.79460
S         -0.53000        2.41860        3.32010
C          1.10400        1.88850        2.96830
C          1.15180        0.58130        2.49450
N          2.26610       -0.09720        2.00390
C          2.19330       -0.51990        0.66870
C          2.71310       -1.74560        0.26190
C          2.64120       -2.13710       -1.06080
C          2.03750       -1.31100       -1.99900
S          1.91020       -1.70390       -3.71720
C          3.11520       -3.04420       -3.93970
C          1.48700       -0.09840       -1.59110
C          1.56610        0.29540       -0.27520
C          3.31680       -0.45560        2.84160
C          4.61220       -0.62730        2.34210
C          5.63890       -0.97820        3.18650
C          5.40980       -1.16040        4.55120
S          6.80890       -1.61450        5.52550
C          6.15620       -1.71100        7.21640
C          4.12930       -0.97800        5.05490
C          3.09470       -0.63210        4.20700
C         -0.14890        0.04150        2.39480
S         -0.74630       -1.49030        1.87230
C          2.12900        2.87810        2.91050
C          3.51920        2.62020        2.89740
N          4.32820        3.45880        2.31480
C          3.85810        4.62020        1.85950
C          2.58730        5.03540        2.30190
N          1.73770        4.15030        2.75540
C          4.62980        5.34060        0.87170
C          5.08830        4.68650       -0.22210
C          4.69000        3.29740       -0.57830
O          3.72830        2.67820       -0.18750
C          5.65480        2.87710       -1.61910
C          5.83360        1.61930       -2.16540
Cl         4.82020        0.31430       -1.73270
C          6.88110        1.43620       -3.07780
Cl         7.11950       -0.09070       -3.80420
C          7.75040        2.48860       -3.36360
Cl         9.07470        2.21700       -4.41120
C          7.56830        3.76210       -2.79920
Cl         8.77070        4.95400       -3.06900
C          6.46970        3.97300       -1.97280
C          5.97950        5.15870       -1.27530
C          6.15350        6.46760       -1.63250
C          5.61880        7.55230       -0.90120
N          5.22370        8.47910       -0.35180
C          6.72300        6.93450       -2.83760
N          7.07300        7.41290       -3.81990
H         -6.60010       -3.86200       -1.43140
H         -0.72190       -2.77800       -3.42620
H         -4.07750       -5.15790       -6.38690
H         -0.88880       -5.79730       -7.45640
H         -1.96010       -3.96840       -9.06870
H          0.43250       -4.57180       -9.96880
H          2.22700       -3.37310       -8.42130
H          0.93470       -2.03540       -6.55480
H         -0.77990       -1.65960       -8.53970
H         -1.68910       -2.16010       -7.09620
H          0.86530       -4.62190       -5.92880
H         -6.36650       -1.37410        0.23550
H         -2.43760       -3.69470        1.70520
H         -6.16700        1.53620        2.53410
H         -8.10730        0.29180        3.40760
H         -7.15890       -3.98060        5.41330
H         -8.66270       -3.86580        6.35310
H         -7.23090       -2.96030        6.88840
H         -5.46280       -2.36140        5.47190
H         -3.55280       -1.12250        4.62230
H         -2.68030        2.41940        0.99450
H         -2.69140        4.84640        0.79280
H         -3.10420        7.08260        0.31410
H         -1.69940        6.90920        1.41780
H         -2.57280        8.45510        1.30760
H         -4.76960        5.14540        4.52010
H         -4.73590        2.68910        4.73140
H          3.17160       -2.40200        0.98620
H          3.05260       -3.09310       -1.34300
H          2.75190       -3.95970       -3.48140
H          3.20850       -3.18220       -5.01250
H          4.07090       -2.74470       -3.52000
H          1.01450        0.53830       -2.32330
H          1.17020        1.25340        0.02320
H          4.80490       -0.45870        1.29430
H          6.63940       -1.10640        2.80310
H          5.39980       -2.48790        7.28030
H          5.76020       -0.74560        7.51770
H          7.00470       -1.97200        7.84110
H          3.91740       -1.10940        6.10360
H          2.09950       -0.49980        4.60580
H          3.96470        1.75780        3.36600
H          2.24040        6.05430        2.21120
H          4.81480        6.39320        1.02970
