235

C          7.58600        0.72270       -4.28620
C          7.81760        1.34920       -5.48590
C          9.01390        0.99420       -6.27380
O          9.95740        0.31820       -5.90730
C          8.78180        1.56450       -7.61740
C          9.59100        1.43720       -8.74330
C          9.11420        2.09050       -9.85560
C          7.91540        2.81500       -9.85610
C          7.10580        2.95110       -8.75220
C          7.57700        2.30030       -7.61070
C          7.03220        2.27830       -6.25430
C          6.12150        3.17400       -5.74310
C          5.89170        3.31870       -4.36070
N          5.72440        3.49740       -3.23720
C          5.37060        4.07790       -6.51370
N          4.70150        4.81390       -7.08940
C          8.07990        3.23990      -11.29480
C          7.24080        2.52820      -12.38330
C          6.92780        1.15130      -11.85510
C          8.05780        0.45630      -11.84630
C          9.15360        1.34870      -12.37520
C          8.35410        2.18600      -13.38680
C          9.41310        2.42720      -11.29540
C          6.35130        0.50690       -3.66170
C          6.05660        0.14650       -2.33400
N          6.95160       -0.02410       -1.31240
C          8.23300       -0.54110       -1.52770
C          9.33260       -0.02100       -0.84580
C         10.60360       -0.45310       -1.15710
C         10.80010       -1.40530       -2.15390
S         12.45430       -1.81620       -2.60940
C         12.26750       -2.12790       -4.39250
C          9.70060       -1.99310       -2.76790
C          8.42750       -1.56780       -2.45170
C          6.55770        0.37330       -0.01840
C          6.77070       -0.46260        1.07040
C          6.31620       -0.10470        2.32520
C          5.64710        1.09920        2.50460
S          4.96620        1.63850        4.03910
C          5.27580        0.25150        5.16310
C          5.48180        1.96100        1.42000
C          5.92880        1.60480        0.16900
C          4.65830        0.06390       -2.13540
S          3.65680       -0.28770       -0.77180
C          2.20150       -0.08160       -1.74160
C          2.48900        0.27420       -3.05880
N          1.59690        0.62230       -4.05830
C          0.39550        1.29870       -3.82260
C         -0.66940        1.08040       -4.69500
C         -1.90370        1.65140       -4.46360
C         -2.09700        2.45270       -3.34600
S         -3.63760        3.19960       -2.92390
C         -4.79790        2.46030       -4.10790
C         -1.02420        2.71040       -2.49800
C          0.21150        2.14850       -2.73220
C          2.08260        0.56790       -5.38290
C          2.13530        1.72180       -6.16430
C          2.80110        1.70630       -7.37040
C          3.40800        0.53590       -7.81410
S          4.43630        0.60930       -9.25210
C          5.79390       -0.49470       -8.74770
C          3.24110       -0.64550       -7.10480
C          2.58690       -0.62740       -5.88840
C          3.89040        0.30610       -3.26220
S          4.88320        0.62920       -4.63400
C          0.96680       -0.17930       -1.04310
C         -0.32440       -0.34240       -1.49180
C         -1.29760       -0.18100       -0.49410
C         -2.73530       -0.14250       -0.77190
C         -3.50780        0.87980       -0.23760
C         -4.88440        0.90150       -0.43050
C         -5.48730       -0.07790       -1.21380
C         -4.70710       -1.07170       -1.79420
O         -5.18900       -2.08230       -2.57780
C         -6.55420       -2.12070       -2.93770
C         -6.90980       -1.12790       -4.04120
C         -3.33460       -1.10730       -1.56840
O         -5.53790        1.90320        0.21340
C         -6.94130        2.02240        0.12550
C         -7.40480        2.67370       -1.17460
C         -0.74840        0.04950        0.76050
S          0.98900        0.06430        0.68200
C         -1.40580        0.12940        2.01880
C         -0.93500        0.70900        3.19480
N          0.20200        1.49340        3.29230
C          0.45040        2.48060        2.32360
C          1.75620        2.76290        1.92740
C          1.99030        3.69790        0.93910
C          0.94500        4.38330        0.33090
C          1.21210        5.40590       -0.73070
C         -0.35200        4.11480        0.75380
C         -0.60210        3.17180        1.73070
C          0.95490        1.44420        4.47240
C          1.13930        0.22920        5.12800
C          1.82840        0.18140        6.32340
C          2.36330        1.33190        6.88840
C          3.07130        1.29020        8.20950
C          2.20400        2.53500        6.21000
C          1.50730        2.59860        5.02160
C         -1.81800        0.45710        4.27040
S         -1.84940        0.93800        5.92620
C         -3.40690        0.12240        6.16050
C         -3.90960       -0.40260        4.94940
N         -5.17100       -0.86220        4.71220
C         -5.39750       -1.68850        3.58830
C         -4.62490       -2.82720        3.38630
C         -4.84380       -3.61640        2.27490
C         -5.82980       -3.29600        1.34920
C         -6.03830       -4.14400        0.13320
C         -6.60760       -2.16620        1.57480
C         -6.40090       -1.36620        2.68140
C         -6.28080       -0.50980        5.49270
C         -6.44810        0.78600        5.97730
C         -7.52770        1.09200        6.77980
C         -8.46750        0.12450        7.12370
C         -9.59410        0.44710        8.05410
C         -8.31940       -1.15300        6.59810
C         -7.24630       -1.47070        5.78810
C         -2.95500       -0.25680        3.91760
S         -2.95470       -0.66810        2.23620
C         -3.93600        0.12610        7.45060
C         -4.86950       -0.76510        7.94120
C         -5.04150       -2.13420        7.43460
O         -4.43830       -2.66880        6.52100
C         -6.00850       -2.78180        8.34720
C         -6.48720       -4.08550        8.27550
C         -7.40310       -4.40050        9.25180
C         -7.79740       -3.49120       10.23950
C         -7.32050       -2.20420       10.32930
C         -6.40380       -1.86010        9.33500
C         -5.72190       -0.59160        9.08110
C         -5.98440        0.60200        9.71150
C         -5.40960        1.83200        9.33790
N         -5.00290        2.87290        9.06980
C         -6.92080        0.76540       10.74710
N         -7.68390        0.96710       11.58300
C         -8.74670       -4.47340       10.87940
C        -10.25960       -4.29580       10.60130
C        -10.37240       -3.60320        9.26630
C        -10.00300       -4.46690        8.32990
C         -9.63120       -5.75770        9.01560
C        -10.61930       -5.73320       10.19250
C         -8.30910       -5.48770        9.77620
H          8.46320        0.26700       -3.84350
H         10.51460        0.88050       -8.70360
H          6.18340        3.50760       -8.76030
H          8.14220        4.31400      -11.45950
H          6.39420        3.10280      -12.74850
H          5.95490        0.85850      -11.50660
H          8.22450       -0.54280      -11.48610
H         10.04770        0.84680      -12.73650
H          8.89470        3.05880      -13.75040
H          7.99460        1.59820      -14.23010
H         10.33950        2.97120      -11.47120
H          9.18400        0.75120       -0.10620
H         11.46150       -0.02870       -0.65940
H         11.60240       -1.38170       -4.81810
H         11.89570       -3.13390       -4.56540
H         13.26180       -2.02940       -4.81670
H          9.83150       -2.77210       -3.50150
H          7.57230       -2.01180       -2.94040
H          7.27970       -1.40470        0.92870
H          6.48030       -0.78010        3.14870
H          4.82690        0.54100        6.10710
H          6.34440        0.10240        5.28820
H          4.78850       -0.64230        4.78510
H          4.99740        2.91140        1.57900
H          5.79580        2.26970       -0.67180
H         -0.52680        0.44170       -5.55480
H         -2.70460        1.45000       -5.15570
H         -5.77610        2.85150       -3.84670
H         -4.54650        2.76190       -5.12070
H         -4.78110        1.37940       -3.99980
H         -1.17220        3.34450       -1.63930
H          1.03290        2.36960       -2.06830
H          1.70830        2.63960       -5.78910
H          2.90310        2.61130       -7.94840
H          5.96010       -0.37770       -7.68100
H          5.55620       -1.52600       -8.99280
H          6.67180       -0.17560       -9.30080
H          3.64780       -1.57210       -7.47860
H          2.49910       -1.53120       -5.30320
H         -0.57770       -0.55750       -2.51250
H         -3.05770        1.66780        0.34300
H         -6.55370       -0.07150       -1.36120
H         -6.70730       -3.14100       -3.30110
H         -7.19330       -1.97150       -2.05870
H         -7.94700       -1.26320       -4.33510
H         -6.77040       -0.10280       -3.70670
H         -6.27340       -1.29660       -4.90650
H         -2.75820       -1.90900       -2.00070
H         -7.42420        1.04770        0.27240
H         -7.20880        2.66610        0.96870
H         -6.86630        3.60650       -1.32290
H         -7.21500        2.02740       -2.02760
H         -8.47020        2.88180       -1.12220
H          2.57610        2.23480        2.38990
H          3.00430        3.89470        0.62270
H          2.14610        5.19540       -1.24680
H          1.29210        6.39680       -0.28190
H          0.40510        5.43310       -1.45970
H         -1.17990        4.66010        0.32240
H         -1.61650        2.97650        2.04770
H          0.73680       -0.67580        4.69620
H          1.95230       -0.76800        6.82510
H          2.38760        1.59190        9.00370
H          3.42470        0.28610        8.43560
H          3.91550        1.97730        8.22170
H          2.62040        3.43980        6.62790
H          1.37570        3.54510        4.51990
H         -3.87930       -3.08900        4.12060
H         -4.24220       -4.50090        2.12530
H         -5.74640       -5.17380        0.32450
H         -5.42640       -3.76850       -0.68700
H         -7.07930       -4.12570       -0.18290
H         -7.38960       -1.91020        0.87380
H         -7.00720       -0.48730        2.84810
H         -5.72850        1.55150        5.72910
H         -7.63640        2.09920        7.15510
H         -9.86670        1.49750        7.98600
H        -10.46720       -0.16250        7.83260
H         -9.29380        0.24750        9.08400
H         -9.04310       -1.91610        6.84380
H         -7.13570       -2.46960        5.39330
H         -3.53720        0.87890        8.12010
H         -6.15300       -4.75840        7.50090
H         -7.62190       -1.51880       11.10430
H         -8.54370       -4.73060       11.91720
H        -10.82040       -3.85220       11.41970
H        -10.64510       -2.57020        9.15220
H         -9.90700       -4.30580        7.27160
H         -9.61970       -6.64700        8.39030
H        -10.39600       -6.47130       10.96160
H        -11.65630       -5.83510        9.87520
H         -7.82000       -6.40640       10.09480
