229

C         -4.62610       -1.56960       -5.68270
C         -4.50750       -0.57470       -6.62650
C         -3.22500        0.02870       -7.03220
O         -2.11780       -0.19110       -6.57040
C         -3.51970        0.82800       -8.23650
C         -2.62010        1.58820       -8.97980
C         -3.18250        2.22020      -10.06350
C         -4.53740        2.09380      -10.39410
C         -5.43460        1.33930       -9.67490
C         -4.88440        0.69710       -8.56310
C         -5.51790       -0.15810       -7.56200
C         -6.86160       -0.43200       -7.46860
C         -7.82860       -0.02550       -8.40840
N         -8.66610        0.26080       -9.14060
C         -7.46430       -1.10010       -6.38890
N         -8.04730       -1.58020       -5.52150
C         -4.41160        2.99620      -11.59630
C         -4.94310        4.43600      -11.43500
C         -4.26730        5.19760      -12.55220
C         -2.98410        5.32080      -12.23790
C         -2.77100        4.64430      -10.90290
C         -4.12280        4.93790      -10.23960
C         -2.90060        3.14050      -11.22560
C         -3.70710       -1.77740       -4.64160
C         -3.26470       -2.99600       -4.09040
N         -3.76970       -4.23070       -4.38860
C         -5.14160       -4.41440       -4.63500
C         -6.09720       -3.76270       -3.85910
C         -7.44280       -3.95000       -4.09930
C         -7.85490       -4.78950       -5.12870
S         -9.54050       -5.08310       -5.53080
C        -10.40880       -3.71650       -4.71110
C         -6.89890       -5.46170       -5.89060
C         -5.55640       -5.27970       -5.64740
C         -2.94230       -5.36640       -4.36190
C         -3.38840       -6.55200       -3.78730
C         -2.58450       -7.67490       -3.78650
C         -1.32460       -7.62910       -4.37050
S         -0.20930       -8.99250       -4.43380
C         -1.14900      -10.36680       -3.70920
C         -0.88200       -6.44360       -4.95440
C         -1.67860       -5.32280       -4.94510
C         -2.20290       -2.76860       -3.18470
S         -1.14530       -3.79410       -2.27340
C         -0.46330       -2.39820       -1.46890
C         -1.05770       -1.21230       -1.85160
N         -0.88540        0.02330       -1.18650
C          0.25850        0.81970       -1.43070
C          0.45110        1.43770       -2.66340
C          1.59270        2.18330       -2.89000
C          2.55530        2.32580       -1.89280
S          4.01390        3.22800       -2.30750
C          5.05810        3.06430       -0.83270
C          2.33630        1.75990       -0.64390
C          1.19460        1.01950       -0.42110
C         -1.61980        0.28190       -0.03380
C         -1.60530        1.57560        0.50140
C         -2.27080        1.86640        1.67040
C         -2.98930        0.87840        2.32870
S         -3.78490        1.21050        3.88590
C         -4.80870        2.65110        3.43350
C         -3.06180       -0.39170        1.77790
C         -2.39780       -0.68610        0.60300
C         -1.98950       -1.42650       -2.89110
S         -2.93840       -0.38920       -3.87500
C          0.54220       -2.48770       -0.43610
C          1.83720       -2.00230       -0.49400
N          2.50440       -1.74390       -1.66160
C          2.00820       -2.24310       -2.90640
C          2.18570       -3.58290       -3.23680
C          1.79050       -4.04730       -4.47340
C          1.20050       -3.18570       -5.39750
S          0.75600       -3.86010       -6.96630
C          0.02440       -2.45560       -7.85310
C          1.00520       -1.85390       -5.06130
C          1.42480       -1.39140       -3.82950
C          3.86980       -1.38370       -1.68470
C          4.81910       -2.03270       -0.89730
C          6.14020       -1.64040       -0.93850
C          6.54630       -0.60950       -1.78190
S          8.25290       -0.16280       -1.72030
C          8.41660        1.11100       -3.00370
C          5.61350       -0.00200       -2.61210
C          4.28990       -0.39140       -2.56300
C          2.32790       -1.75460        0.82250
S          3.63060       -0.80330        1.47370
C          2.95960       -0.94020        3.08510
C          1.79290       -1.67080        3.11130
N          0.98890       -1.77320        4.24300
C          0.60780       -0.56030        4.85250
C          0.13220        0.48390        4.06570
C         -0.20750        1.69360        4.63560
C         -0.08810        1.86560        6.00600
S         -0.50970        3.38220        6.81480
C         -1.76400        4.07710        5.70190
C          0.40080        0.83010        6.79610
C          0.74780       -0.37530        6.22520
C          0.43970       -2.99170        4.61270
C         -0.74150       -3.05470        5.35560
C         -1.25780       -4.27240        5.73460
C         -0.62070       -5.45880        5.37620
S         -1.36820       -6.95650        5.94610
C         -0.37140       -8.26300        5.17380
C          0.54230       -5.40410        4.62300
C          1.06750       -4.18210        4.24990
C          1.44160       -2.12530        1.82020
S         -0.00550       -2.82090        1.20810
C          3.45480       -0.22490        4.23610
C          3.90380       -0.77830        5.41340
C          4.10140        0.16450        6.42230
C          4.69330       -0.14130        7.72500
C          5.79110        0.62060        8.17350
O          6.22170        1.58170        7.31590
C          7.35360        2.36780        7.64070
C          8.66800        1.63290        7.39710
C          6.36980        0.33810        9.40460
C          5.86640       -0.68920       10.17690
C          4.81430       -1.47080        9.73840
C          4.22540       -1.21230        8.50540
O          3.18470       -1.92980        8.00000
C          2.75740       -3.08030        8.71020
C          1.70070       -3.79950        7.88690
C          3.70150        1.45790        6.03170
S          3.24290        1.48530        4.34790
C          3.54280        2.51060        6.93580
C          2.99240        3.75920        6.76390
C          2.36860        4.27050        5.54290
O          2.39220        3.79200        4.42350
C          1.67570        5.51740        5.93640
C          0.87610        6.33590        5.16890
C          0.28270        7.42980        5.79470
C         -0.62060        8.30380        4.97150
F         -1.25480        9.24290        5.68240
F         -1.57840        7.58400        4.35230
F          0.04460        8.94710        3.99480
C          0.50800        7.69820        7.13830
C          1.33540        6.88070        7.89790
C          1.92160        5.78090        7.29450
C          2.80000        4.73230        7.81630
C          3.38010        4.73770        9.05860
C          4.32560        3.80350        9.52800
N          5.12940        3.12450        9.99020
C          3.15720        5.73600       10.02990
N          3.02100        6.51370       10.86350
H         -5.44840       -2.26960       -5.77580
H         -1.58160        1.65590       -8.69510
H         -6.47230        1.24140       -9.94680
H         -4.67290        2.55060      -12.55430
H         -6.02470        4.51730      -11.37070
H         -4.76420        5.50920      -13.45210
H         -2.19490        5.75570      -12.82300
H         -1.87360        4.91740      -10.35400
H         -4.26940        6.00120      -10.05740
H         -4.29540        4.38360       -9.31890
H         -2.15440        2.79220      -11.93770
H         -5.77990       -3.10710       -3.06170
H         -8.15930       -3.44020       -3.47870
H        -11.40760       -3.70410       -5.13590
H         -9.89100       -2.78890       -4.93620
H        -10.46610       -3.89560       -3.64120
H         -7.22620       -6.11750       -6.68250
H         -4.81760       -5.79150       -6.24600
H         -4.36870       -6.59280       -3.33610
H         -2.95390       -8.57640       -3.32560
H         -2.05700      -10.53600       -4.28030
H         -1.36900      -10.16010       -2.66590
H         -0.50030      -11.23410       -3.78320
H          0.08320       -6.41680       -5.43440
H         -1.33940       -4.41180       -5.41070
H         -0.29830        1.33420       -3.43530
H          1.75300        2.65680       -3.84700
H          5.24470        2.01320       -0.62830
H          5.98860        3.56880       -1.07570
H          4.58920        3.55550        0.01480
H          3.04230        1.87870        0.16090
H          1.02110        0.59430        0.55580
H         -1.05680        2.35590       -0.00350
H         -2.23020        2.86970        2.06740
H         -4.18470        3.51870        3.24070
H         -5.40120        2.40320        2.55850
H         -5.45640        2.84350        4.28250
H         -3.63250       -1.15750        2.28020
H         -2.47620       -1.68020        0.19030
H          2.64140       -4.25620       -2.52610
H          1.94720       -5.08120       -4.73790
H          0.78770       -1.70820       -8.04970
H         -0.80050       -2.02910       -7.28860
H         -0.34090       -2.86410       -8.79060
H          0.53300       -1.16310       -5.73980
H          1.28970       -0.35280       -3.58350
H          4.52630       -2.85720       -0.26550
H          6.87460       -2.13450       -0.32140
H          7.80220        1.97220       -2.75810
H          8.14840        0.69800       -3.97160
H          9.46480        1.39340       -3.00090
H          5.89550        0.78240       -3.29500
H          3.57410        0.08690       -3.21170
H          0.02410        0.34850        2.99960
H         -0.55530        2.49170        4.00230
H         -2.29880        4.82610        6.27740
H         -2.43760        3.28110        5.39860
H         -1.28940        4.54720        4.84480
H          0.51050        0.98270        7.85900
H          1.15110       -1.16940        6.83170
H         -1.25350       -2.14300        5.62350
H         -2.16990       -4.32070        6.30950
H         -0.84540       -9.19780        5.45650
H          0.64440       -8.23560        5.55770
H         -0.38930       -8.15110        4.09370
H          1.05950       -6.30240        4.32620
H          1.98310       -4.15090        3.67710
H          4.09870       -1.82840        5.53420
H          7.28280        2.73250        8.67100
H          7.28040        3.22640        6.96650
H          8.74860        0.75540        8.03350
H          8.72270        1.31080        6.36000
H          9.50150        2.29800        7.60500
H          7.19430        0.92000        9.77750
H          6.30960       -0.89330       11.13950
H          4.45870       -2.26980       10.36700
H          3.61330       -3.74810        8.87820
H          2.34100       -2.78870        9.68380
H          0.80280       -3.19560        7.79200
H          2.07810       -4.01180        6.89020
H          1.43690       -4.73520        8.37130
H          3.83260        2.25220        7.94740
H          0.71220        6.12850        4.12220
H          0.03150        8.55000        7.59860
H          1.49270        7.10750        8.93920
