
  xtb     02162203183D
 energy: -342.240833722049 gnorm: 0.000377030273 xtb: 6.4.1 (unknown)
208231  0     0  0            999 V2000
   -7.4458   -0.5085    5.4755 C   0  0  0  0  0  0  0  0  0  0  0  0
   -8.5500    0.2497    5.1897 C   0  0  0  0  0  0  0  0  0  0  0  0
   -8.9925    1.3042    6.1311 C   0  0  0  0  0  0  0  0  0  0  0  0
   -8.7130    1.4030    7.3064 O   0  0  0  0  0  0  0  0  0  0  0  0
   -9.7851    2.2438    5.3061 C   0  0  0  0  0  0  0  0  0  0  0  0
  -10.2832    3.4892    5.6811 C   0  0  0  0  0  0  0  0  0  0  0  0
  -10.9334    4.1607    4.6718 C   0  0  0  0  0  0  0  0  0  0  0  0
  -11.1001    3.6265    3.3880 C   0  0  0  0  0  0  0  0  0  0  0  0
  -10.6373    2.3891    3.0104 C   0  0  0  0  0  0  0  0  0  0  0  0
   -9.9468    1.7058    4.0119 C   0  0  0  0  0  0  0  0  0  0  0  0
   -9.3030    0.3973    3.9734 C   0  0  0  0  0  0  0  0  0  0  0  0
   -9.5574   -0.6072    3.0669 C   0  0  0  0  0  0  0  0  0  0  0  0
   -9.1630   -1.9370    3.3129 C   0  0  0  0  0  0  0  0  0  0  0  0
   -8.9078   -3.0345    3.5383 N   0  0  0  0  0  0  0  0  0  0  0  0
  -10.2621   -0.4315    1.8680 C   0  0  0  0  0  0  0  0  0  0  0  0
  -10.7934   -0.3241    0.8533 N   0  0  0  0  0  0  0  0  0  0  0  0
  -11.8162    4.8521    2.8806 C   0  0  0  0  0  0  0  0  0  0  0  0
  -10.9862    5.8124    2.0021 C   0  0  0  0  0  0  0  0  0  0  0  0
  -11.7598    7.1094    2.0559 C   0  0  0  0  0  0  0  0  0  0  0  0
  -11.6100    7.6177    3.2725 C   0  0  0  0  0  0  0  0  0  0  0  0
  -10.7306    6.6735    4.0604 C   0  0  0  0  0  0  0  0  0  0  0  0
   -9.8211    6.1609    2.9364 C   0  0  0  0  0  0  0  0  0  0  0  0
  -11.6350    5.4486    4.3134 C   0  0  0  0  0  0  0  0  0  0  0  0
   -6.5388   -1.0770    4.5703 C   0  0  0  0  0  0  0  0  0  0  0  0
   -5.3582   -1.7650    4.9058 C   0  0  0  0  0  0  0  0  0  0  0  0
   -5.0610   -2.2688    6.1416 N   0  0  0  0  0  0  0  0  0  0  0  0
   -3.7055   -2.4077    6.4981 C   0  0  0  0  0  0  0  0  0  0  0  0
   -3.2264   -3.5926    7.0470 C   0  0  0  0  0  0  0  0  0  0  0  0
   -1.8851   -3.7359    7.3435 C   0  0  0  0  0  0  0  0  0  0  0  0
   -1.0008   -2.6917    7.0994 C   0  0  0  0  0  0  0  0  0  0  0  0
    0.7352   -2.7809    7.3916 S   0  0  0  0  0  0  0  0  0  0  0  0
    0.9101   -4.2101    8.4960 C   0  0  0  0  0  0  0  0  0  0  0  0
   -1.4837   -1.4944    6.5739 C   0  0  0  0  0  0  0  0  0  0  0  0
   -2.8206   -1.3508    6.2803 C   0  0  0  0  0  0  0  0  0  0  0  0
   -6.0534   -2.7788    6.9990 C   0  0  0  0  0  0  0  0  0  0  0  0
   -5.9063   -2.6472    8.3792 C   0  0  0  0  0  0  0  0  0  0  0  0
   -6.8664   -3.1510    9.2280 C   0  0  0  0  0  0  0  0  0  0  0  0
   -7.9937   -3.7933    8.7186 C   0  0  0  0  0  0  0  0  0  0  0  0
   -9.1569   -4.3964    9.8985 S   0  0  0  0  0  0  0  0  0  0  0  0
  -10.5643   -4.9329    8.8856 C   0  0  0  0  0  0  0  0  0  0  0  0
   -8.1346   -3.9356    7.3437 C   0  0  0  0  0  0  0  0  0  0  0  0
   -7.1700   -3.4372    6.4919 C   0  0  0  0  0  0  0  0  0  0  0  0
   -4.5029   -1.8713    3.7874 C   0  0  0  0  0  0  0  0  0  0  0  0
   -2.9281   -2.5330    3.5343 S   0  0  0  0  0  0  0  0  0  0  0  0
   -2.9539   -2.0326    1.8428 C   0  0  0  0  0  0  0  0  0  0  0  0
   -4.1788   -1.4757    1.4789 C   0  0  0  0  0  0  0  0  0  0  0  0
   -4.5780   -1.0825    0.2174 N   0  0  0  0  0  0  0  0  0  0  0  0
   -5.5736   -0.0845    0.1378 C   0  0  0  0  0  0  0  0  0  0  0  0
   -5.3926    1.1382    0.7829 C   0  0  0  0  0  0  0  0  0  0  0  0
   -6.3912    2.0872    0.7594 C   0  0  0  0  0  0  0  0  0  0  0  0
   -7.5868    1.8376    0.0885 C   0  0  0  0  0  0  0  0  0  0  0  0
   -8.8065    3.1080    0.1528 S   0  0  0  0  0  0  0  0  0  0  0  0
  -10.1762    2.4542   -0.8457 C   0  0  0  0  0  0  0  0  0  0  0  0
   -7.7594    0.6309   -0.5780 C   0  0  0  0  0  0  0  0  0  0  0  0
   -6.7597   -0.3203   -0.5502 C   0  0  0  0  0  0  0  0  0  0  0  0
   -4.2953   -1.8285   -0.9339 C   0  0  0  0  0  0  0  0  0  0  0  0
   -4.0631   -3.2028   -0.8854 C   0  0  0  0  0  0  0  0  0  0  0  0
   -3.8000   -3.9019   -2.0433 C   0  0  0  0  0  0  0  0  0  0  0  0
   -3.7731   -3.2500   -3.2724 C   0  0  0  0  0  0  0  0  0  0  0  0
   -3.4308   -4.2279   -4.7013 S   0  0  0  0  0  0  0  0  0  0  0  0
   -4.1716   -3.2520   -6.0453 C   0  0  0  0  0  0  0  0  0  0  0  0
   -3.9960   -1.8800   -3.3266 C   0  0  0  0  0  0  0  0  0  0  0  0
   -4.2562   -1.1797   -2.1676 C   0  0  0  0  0  0  0  0  0  0  0  0
   -5.0205   -1.3505    2.6127 C   0  0  0  0  0  0  0  0  0  0  0  0
   -6.5941   -0.6852    2.8496 S   0  0  0  0  0  0  0  0  0  0  0  0
   -1.7187   -2.1565    1.1534 C   0  0  0  0  0  0  0  0  0  0  0  0
   -0.5668   -2.6346    1.7225 C   0  0  0  0  0  0  0  0  0  0  0  0
    0.5725   -2.5422    0.8973 C   0  0  0  0  0  0  0  0  0  0  0  0
    1.9068   -2.8877    1.2043 C   0  0  0  0  0  0  0  0  0  0  0  0
    2.2638   -3.5445    2.4408 C   0  0  0  0  0  0  0  0  0  0  0  0
    3.4017   -3.4113    3.1905 C   0  0  0  0  0  0  0  0  0  0  0  0
    3.4517   -4.2602    4.3082 C   0  0  0  0  0  0  0  0  0  0  0  0
    2.3520   -5.0631    4.4137 C   0  0  0  0  0  0  0  0  0  0  0  0
    2.0513   -6.1983    5.7046 S   0  0  0  0  0  0  0  0  0  0  0  0
    0.7591   -7.2710    4.9801 C   0  0  0  0  0  0  0  0  0  0  0  0
    1.3095   -8.1812    3.9008 C   0  0  0  0  0  0  0  0  0  0  0  0
    1.2163   -4.7544    3.1394 S   0  0  0  0  0  0  0  0  0  0  0  0
    2.8594   -2.5678    0.2390 C   0  0  0  0  0  0  0  0  0  0  0  0
    2.5390   -1.9901   -1.0134 C   0  0  0  0  0  0  0  0  0  0  0  0
    1.2006   -1.6951   -1.3349 C   0  0  0  0  0  0  0  0  0  0  0  0
    0.8114   -1.1648   -2.6277 C   0  0  0  0  0  0  0  0  0  0  0  0
    1.3836   -0.1620   -3.3623 C   0  0  0  0  0  0  0  0  0  0  0  0
    0.7366    0.0713   -4.5889 C   0  0  0  0  0  0  0  0  0  0  0  0
   -0.3198   -0.7649   -4.7919 C   0  0  0  0  0  0  0  0  0  0  0  0
   -1.3766   -0.8153   -6.1913 S   0  0  0  0  0  0  0  0  0  0  0  0
   -0.3875   -1.8967   -7.2989 C   0  0  0  0  0  0  0  0  0  0  0  0
   -0.2306   -3.3012   -6.7549 C   0  0  0  0  0  0  0  0  0  0  0  0
   -0.5552   -1.8468   -3.4554 S   0  0  0  0  0  0  0  0  0  0  0  0
    0.2562   -1.9616   -0.3536 C   0  0  0  0  0  0  0  0  0  0  0  0
   -1.4372   -1.5649   -0.4686 S   0  0  0  0  0  0  0  0  0  0  0  0
    3.6893   -1.8078   -1.8224 C   0  0  0  0  0  0  0  0  0  0  0  0
    4.8511   -2.2030   -1.2342 C   0  0  0  0  0  0  0  0  0  0  0  0
    4.5718   -2.8636    0.3633 S   0  0  0  0  0  0  0  0  0  0  0  0
    6.1997   -2.0824   -1.7471 C   0  0  0  0  0  0  0  0  0  0  0  0
    6.4857   -1.1106   -2.7043 C   0  0  0  0  0  0  0  0  0  0  0  0
    7.7901   -0.9870   -3.1479 C   0  0  0  0  0  0  0  0  0  0  0  0
    8.3211   -0.1001   -4.0518 N   0  0  0  0  0  0  0  0  0  0  0  0
    7.5934    0.9206   -4.7573 C   0  0  0  0  0  0  0  0  0  0  0  0
    7.5630    2.2350   -3.9784 C   0  0  0  0  0  0  0  0  0  0  0  0
    9.6707   -0.3306   -4.1445 C   0  0  0  0  0  0  0  0  0  0  0  0
   10.0236   -1.4172   -3.3007 C   0  0  0  0  0  0  0  0  0  0  0  0
    8.8184   -1.8302   -2.6540 C   0  0  0  0  0  0  0  0  0  0  0  0
    8.5178   -2.7997   -1.7020 C   0  0  0  0  0  0  0  0  0  0  0  0
    7.2221   -2.9117   -1.2548 C   0  0  0  0  0  0  0  0  0  0  0  0
   11.3477   -1.8390   -3.2351 C   0  0  0  0  0  0  0  0  0  0  0  0
   12.2902   -1.1869   -3.9943 C   0  0  0  0  0  0  0  0  0  0  0  0
   11.9435   -0.1199   -4.8465 C   0  0  0  0  0  0  0  0  0  0  0  0
   10.6206    0.3268   -4.9005 C   0  0  0  0  0  0  0  0  0  0  0  0
   12.9842    0.5233   -5.6032 C   0  0  0  0  0  0  0  0  0  0  0  0
   12.8997    1.2452   -6.7459 C   0  0  0  0  0  0  0  0  0  0  0  0
   14.0245    2.1464   -7.1286 C   0  0  0  0  0  0  0  0  0  0  0  0
   15.1477    2.1304   -6.6797 O   0  0  0  0  0  0  0  0  0  0  0  0
   13.4543    3.0870   -8.1118 C   0  0  0  0  0  0  0  0  0  0  0  0
   14.0715    4.2081   -8.6627 C   0  0  0  0  0  0  0  0  0  0  0  0
   13.2741    4.9197   -9.5260 C   0  0  0  0  0  0  0  0  0  0  0  0
   11.9543    4.5498   -9.8214 C   0  0  0  0  0  0  0  0  0  0  0  0
   11.3361    3.4404   -9.2967 C   0  0  0  0  0  0  0  0  0  0  0  0
   12.1325    2.6997   -8.4190 C   0  0  0  0  0  0  0  0  0  0  0  0
   11.8338    1.4605   -7.7067 C   0  0  0  0  0  0  0  0  0  0  0  0
   10.8649    0.5583   -8.0563 C   0  0  0  0  0  0  0  0  0  0  0  0
    9.8766    0.7936   -9.0326 C   0  0  0  0  0  0  0  0  0  0  0  0
    9.0219    0.9446   -9.7846 N   0  0  0  0  0  0  0  0  0  0  0  0
   10.7730   -0.7438   -7.5191 C   0  0  0  0  0  0  0  0  0  0  0  0
   10.6723   -1.8316   -7.1676 N   0  0  0  0  0  0  0  0  0  0  0  0
   11.7443    5.7293  -10.7369 C   0  0  0  0  0  0  0  0  0  0  0  0
   10.9287    6.9291  -10.1938 C   0  0  0  0  0  0  0  0  0  0  0  0
   11.0928    6.9180   -8.6943 C   0  0  0  0  0  0  0  0  0  0  0  0
   12.3432    7.2655   -8.4208 C   0  0  0  0  0  0  0  0  0  0  0  0
   13.0474    7.5181   -9.7309 C   0  0  0  0  0  0  0  0  0  0  0  0
   11.8815    8.0778  -10.5615 C   0  0  0  0  0  0  0  0  0  0  0  0
   13.2159    6.1379  -10.4134 C   0  0  0  0  0  0  0  0  0  0  0  0
   -7.1533   -0.5283    6.5201 H   0  0  0  0  0  0  0  0  0  0  0  0
  -10.1465    3.8628    6.6839 H   0  0  0  0  0  0  0  0  0  0  0  0
  -10.7745    1.9808    2.0245 H   0  0  0  0  0  0  0  0  0  0  0  0
  -12.8259    4.6954    2.5053 H   0  0  0  0  0  0  0  0  0  0  0  0
  -10.7312    5.4273    1.0188 H   0  0  0  0  0  0  0  0  0  0  0  0
  -12.3634    7.4836    1.2496 H   0  0  0  0  0  0  0  0  0  0  0  0
  -12.0635    8.5002    3.6847 H   0  0  0  0  0  0  0  0  0  0  0  0
  -10.2524    7.0779    4.9486 H   0  0  0  0  0  0  0  0  0  0  0  0
   -9.1886    6.9465    2.5268 H   0  0  0  0  0  0  0  0  0  0  0  0
   -9.2069    5.3061    3.2113 H   0  0  0  0  0  0  0  0  0  0  0  0
  -12.5242    5.6869    4.8945 H   0  0  0  0  0  0  0  0  0  0  0  0
   -3.9081   -4.4109    7.2251 H   0  0  0  0  0  0  0  0  0  0  0  0
   -1.5365   -4.6726    7.7478 H   0  0  0  0  0  0  0  0  0  0  0  0
    0.7416   -5.1327    7.9491 H   0  0  0  0  0  0  0  0  0  0  0  0
    0.2265   -4.1074    9.3332 H   0  0  0  0  0  0  0  0  0  0  0  0
    1.9369   -4.1832    8.8465 H   0  0  0  0  0  0  0  0  0  0  0  0
   -0.7955   -0.6816    6.4013 H   0  0  0  0  0  0  0  0  0  0  0  0
   -3.1921   -0.4183    5.8814 H   0  0  0  0  0  0  0  0  0  0  0  0
   -5.0414   -2.1389    8.7787 H   0  0  0  0  0  0  0  0  0  0  0  0
   -6.7605   -3.0436   10.2963 H   0  0  0  0  0  0  0  0  0  0  0  0
  -11.3414   -5.2129    9.5902 H   0  0  0  0  0  0  0  0  0  0  0  0
  -10.9052   -4.1087    8.2662 H   0  0  0  0  0  0  0  0  0  0  0  0
  -10.2878   -5.7931    8.2827 H   0  0  0  0  0  0  0  0  0  0  0  0
   -8.9850   -4.4398    6.9155 H   0  0  0  0  0  0  0  0  0  0  0  0
   -7.2964   -3.5580    5.4268 H   0  0  0  0  0  0  0  0  0  0  0  0
   -4.4692    1.3309    1.3093 H   0  0  0  0  0  0  0  0  0  0  0  0
   -6.2595    3.0319    1.2646 H   0  0  0  0  0  0  0  0  0  0  0  0
   -9.8537    2.3336   -1.8759 H   0  0  0  0  0  0  0  0  0  0  0  0
  -10.5288    1.5137   -0.4286 H   0  0  0  0  0  0  0  0  0  0  0  0
  -10.9615    3.2021   -0.7908 H   0  0  0  0  0  0  0  0  0  0  0  0
   -8.6741    0.4070   -1.1006 H   0  0  0  0  0  0  0  0  0  0  0  0
   -6.9053   -1.2653   -1.0521 H   0  0  0  0  0  0  0  0  0  0  0  0
   -4.0988   -3.7238    0.0598 H   0  0  0  0  0  0  0  0  0  0  0  0
   -3.6224   -4.9658   -2.0073 H   0  0  0  0  0  0  0  0  0  0  0  0
   -5.1801   -2.9655   -5.7640 H   0  0  0  0  0  0  0  0  0  0  0  0
   -3.5615   -2.3797   -6.2627 H   0  0  0  0  0  0  0  0  0  0  0  0
   -4.1992   -3.9096   -6.9088 H   0  0  0  0  0  0  0  0  0  0  0  0
   -3.9492   -1.3468   -4.2625 H   0  0  0  0  0  0  0  0  0  0  0  0
   -4.4207   -0.1135   -2.2111 H   0  0  0  0  0  0  0  0  0  0  0  0
   -0.5497   -3.0015    2.7325 H   0  0  0  0  0  0  0  0  0  0  0  0
    4.1750   -2.7005    2.9633 H   0  0  0  0  0  0  0  0  0  0  0  0
    4.2643   -4.2878    5.0101 H   0  0  0  0  0  0  0  0  0  0  0  0
    0.3812   -7.8465    5.8249 H   0  0  0  0  0  0  0  0  0  0  0  0
   -0.0313   -6.6214    4.6029 H   0  0  0  0  0  0  0  0  0  0  0  0
    1.7068   -7.6003    3.0715 H   0  0  0  0  0  0  0  0  0  0  0  0
    2.1044   -8.8066    4.3007 H   0  0  0  0  0  0  0  0  0  0  0  0
    0.5160   -8.8221    3.5224 H   0  0  0  0  0  0  0  0  0  0  0  0
    2.2161    0.4219   -3.0120 H   0  0  0  0  0  0  0  0  0  0  0  0
    1.0325    0.8261   -5.2955 H   0  0  0  0  0  0  0  0  0  0  0  0
    0.5762   -1.4091   -7.4459 H   0  0  0  0  0  0  0  0  0  0  0  0
   -0.9419   -1.8909   -8.2366 H   0  0  0  0  0  0  0  0  0  0  0  0
    0.3325   -3.2955   -5.8238 H   0  0  0  0  0  0  0  0  0  0  0  0
    0.3051   -3.9142   -7.4769 H   0  0  0  0  0  0  0  0  0  0  0  0
   -1.2002   -3.7540   -6.5630 H   0  0  0  0  0  0  0  0  0  0  0  0
    3.6383   -1.4249   -2.8246 H   0  0  0  0  0  0  0  0  0  0  0  0
    5.7072   -0.4544   -3.0597 H   0  0  0  0  0  0  0  0  0  0  0  0
    8.0629    1.0702   -5.7338 H   0  0  0  0  0  0  0  0  0  0  0  0
    6.5751    0.5621   -4.9288 H   0  0  0  0  0  0  0  0  0  0  0  0
    7.0097    2.9874   -4.5341 H   0  0  0  0  0  0  0  0  0  0  0  0
    7.0846    2.0892   -3.0127 H   0  0  0  0  0  0  0  0  0  0  0  0
    8.5742    2.5978   -3.8087 H   0  0  0  0  0  0  0  0  0  0  0  0
    9.2917   -3.4458   -1.3173 H   0  0  0  0  0  0  0  0  0  0  0  0
    6.9692   -3.6521   -0.5104 H   0  0  0  0  0  0  0  0  0  0  0  0
   11.6272   -2.6610   -2.5944 H   0  0  0  0  0  0  0  0  0  0  0  0
   13.3211   -1.5057   -3.9643 H   0  0  0  0  0  0  0  0  0  0  0  0
   10.3636    1.1926   -5.4919 H   0  0  0  0  0  0  0  0  0  0  0  0
   13.9792    0.4802   -5.1698 H   0  0  0  0  0  0  0  0  0  0  0  0
   15.0889    4.4614   -8.4089 H   0  0  0  0  0  0  0  0  0  0  0  0
   10.3198    3.1655   -9.5278 H   0  0  0  0  0  0  0  0  0  0  0  0
   11.4949    5.4923  -11.7692 H   0  0  0  0  0  0  0  0  0  0  0  0
    9.9088    6.9860  -10.5648 H   0  0  0  0  0  0  0  0  0  0  0  0
   10.3229    6.6135   -8.0096 H   0  0  0  0  0  0  0  0  0  0  0  0
   12.8269    7.3086   -7.4625 H   0  0  0  0  0  0  0  0  0  0  0  0
   13.9566    8.1113   -9.6806 H   0  0  0  0  0  0  0  0  0  0  0  0
   12.0974    8.1382  -11.6272 H   0  0  0  0  0  0  0  0  0  0  0  0
   11.5340    9.0449  -10.2011 H   0  0  0  0  0  0  0  0  0  0  0  0
   13.9289    6.1649  -11.2349 H   0  0  0  0  0  0  0  0  0  0  0  0
  1  2  2  0  0  0  0
  2  3  1  0  0  0  0
  3  4  2  0  0  0  0
  3  5  1  0  0  0  0
  5  6  2  0  0  0  0
  6  7  1  0  0  0  0
  7  8  2  0  0  0  0
  8  9  1  0  0  0  0
  9 10  2  0  0  0  0
 10 11  1  0  0  0  0
 11 12  2  0  0  0  0
 12 13  1  0  0  0  0
 13 14  3  0  0  0  0
 12 15  1  0  0  0  0
 15 16  3  0  0  0  0
  8 17  1  0  0  0  0
 17 18  1  0  0  0  0
 18 19  1  0  0  0  0
 19 20  2  0  0  0  0
 20 21  1  0  0  0  0
 21 22  1  0  0  0  0
 21 23  1  0  0  0  0
  1 24  1  0  0  0  0
 24 25  2  0  0  0  0
 25 26  1  0  0  0  0
 26 27  1  0  0  0  0
 27 28  2  0  0  0  0
 28 29  1  0  0  0  0
 29 30  2  0  0  0  0
 30 31  1  0  0  0  0
 31 32  1  0  0  0  0
 30 33  1  0  0  0  0
 33 34  2  0  0  0  0
 26 35  1  0  0  0  0
 35 36  2  0  0  0  0
 36 37  1  0  0  0  0
 37 38  2  0  0  0  0
 38 39  1  0  0  0  0
 39 40  1  0  0  0  0
 38 41  1  0  0  0  0
 41 42  2  0  0  0  0
 25 43  1  0  0  0  0
 43 44  1  0  0  0  0
 44 45  1  0  0  0  0
 45 46  2  0  0  0  0
 46 47  1  0  0  0  0
 47 48  1  0  0  0  0
 48 49  2  0  0  0  0
 49 50  1  0  0  0  0
 50 51  2  0  0  0  0
 51 52  1  0  0  0  0
 52 53  1  0  0  0  0
 51 54  1  0  0  0  0
 54 55  2  0  0  0  0
 47 56  1  0  0  0  0
 56 57  2  0  0  0  0
 57 58  1  0  0  0  0
 58 59  2  0  0  0  0
 59 60  1  0  0  0  0
 60 61  1  0  0  0  0
 59 62  1  0  0  0  0
 62 63  2  0  0  0  0
 46 64  1  0  0  0  0
 64 65  1  0  0  0  0
 45 66  1  0  0  0  0
 66 67  2  0  0  0  0
 67 68  1  0  0  0  0
 68 69  2  0  0  0  0
 69 70  1  0  0  0  0
 70 71  2  0  0  0  0
 71 72  1  0  0  0  0
 72 73  2  0  0  0  0
 73 74  1  0  0  0  0
 74 75  1  0  0  0  0
 75 76  1  0  0  0  0
 73 77  1  0  0  0  0
 69 78  1  0  0  0  0
 78 79  2  0  0  0  0
 79 80  1  0  0  0  0
 80 81  1  0  0  0  0
 81 82  2  0  0  0  0
 82 83  1  0  0  0  0
 83 84  2  0  0  0  0
 84 85  1  0  0  0  0
 85 86  1  0  0  0  0
 86 87  1  0  0  0  0
 84 88  1  0  0  0  0
 80 89  2  0  0  0  0
 89 90  1  0  0  0  0
 79 91  1  0  0  0  0
 91 92  2  0  0  0  0
 92 93  1  0  0  0  0
 92 94  1  0  0  0  0
 94 95  2  0  0  0  0
 95 96  1  0  0  0  0
 96 97  1  0  0  0  0
 97 98  1  0  0  0  0
 98 99  1  0  0  0  0
 97100  1  0  0  0  0
100101  2  0  0  0  0
101102  1  0  0  0  0
102103  1  0  0  0  0
103104  2  0  0  0  0
101105  1  0  0  0  0
105106  2  0  0  0  0
106107  1  0  0  0  0
107108  2  0  0  0  0
107109  1  0  0  0  0
109110  2  0  0  0  0
110111  1  0  0  0  0
111112  2  0  0  0  0
111113  1  0  0  0  0
113114  2  0  0  0  0
114115  1  0  0  0  0
115116  2  0  0  0  0
116117  1  0  0  0  0
117118  2  0  0  0  0
118119  1  0  0  0  0
119120  2  0  0  0  0
120121  1  0  0  0  0
121122  3  0  0  0  0
120123  1  0  0  0  0
123124  3  0  0  0  0
116125  1  0  0  0  0
125126  1  0  0  0  0
126127  1  0  0  0  0
127128  2  0  0  0  0
128129  1  0  0  0  0
129130  1  0  0  0  0
129131  1  0  0  0  0
 11  2  1  0  0  0  0
 23 17  1  0  0  0  0
 65 24  1  0  0  0  0
 90 66  1  0  0  0  0
104 94  1  0  0  0  0
119110  1  0  0  0  0
131125  1  0  0  0  0
 10  5  1  0  0  0  0
 22 18  1  0  0  0  0
 34 27  1  0  0  0  0
 42 35  1  0  0  0  0
 64 43  2  0  0  0  0
 89 68  1  0  0  0  0
102 96  2  0  0  0  0
118113  1  0  0  0  0
130126  1  0  0  0  0
 23  7  1  0  0  0  0
 55 48  1  0  0  0  0
 63 56  1  0  0  0  0
 77 70  1  0  0  0  0
 93 78  1  0  0  0  0
108100  1  0  0  0  0
131115  1  0  0  0  0
 88 81  1  0  0  0  0
  1132  1  0  0  0  0
  6133  1  0  0  0  0
  9134  1  0  0  0  0
 17135  1  0  0  0  0
 18136  1  0  0  0  0
 19137  1  0  0  0  0
 20138  1  0  0  0  0
 21139  1  0  0  0  0
 22140  1  0  0  0  0
 22141  1  0  0  0  0
 23142  1  0  0  0  0
 28143  1  0  0  0  0
 29144  1  0  0  0  0
 32145  1  0  0  0  0
 32146  1  0  0  0  0
 32147  1  0  0  0  0
 33148  1  0  0  0  0
 34149  1  0  0  0  0
 36150  1  0  0  0  0
 37151  1  0  0  0  0
 40152  1  0  0  0  0
 40153  1  0  0  0  0
 40154  1  0  0  0  0
 41155  1  0  0  0  0
 42156  1  0  0  0  0
 49157  1  0  0  0  0
 50158  1  0  0  0  0
 53159  1  0  0  0  0
 53160  1  0  0  0  0
 53161  1  0  0  0  0
 54162  1  0  0  0  0
 55163  1  0  0  0  0
 57164  1  0  0  0  0
 58165  1  0  0  0  0
 61166  1  0  0  0  0
 61167  1  0  0  0  0
 61168  1  0  0  0  0
 62169  1  0  0  0  0
 63170  1  0  0  0  0
 67171  1  0  0  0  0
 71172  1  0  0  0  0
 72173  1  0  0  0  0
 75174  1  0  0  0  0
 75175  1  0  0  0  0
 76176  1  0  0  0  0
 76177  1  0  0  0  0
 76178  1  0  0  0  0
 82179  1  0  0  0  0
 83180  1  0  0  0  0
 86181  1  0  0  0  0
 86182  1  0  0  0  0
 87183  1  0  0  0  0
 87184  1  0  0  0  0
 87185  1  0  0  0  0
 91186  1  0  0  0  0
 95187  1  0  0  0  0
 98188  1  0  0  0  0
 98189  1  0  0  0  0
 99190  1  0  0  0  0
 99191  1  0  0  0  0
 99192  1  0  0  0  0
103193  1  0  0  0  0
104194  1  0  0  0  0
105195  1  0  0  0  0
106196  1  0  0  0  0
108197  1  0  0  0  0
109198  1  0  0  0  0
114199  1  0  0  0  0
117200  1  0  0  0  0
125201  1  0  0  0  0
126202  1  0  0  0  0
127203  1  0  0  0  0
128204  1  0  0  0  0
129205  1  0  0  0  0
130206  1  0  0  0  0
130207  1  0  0  0  0
131208  1  0  0  0  0
M  END
