
  xtb     02052223483D
 energy: -361.002455369411 gnorm: 0.000675108746 xtb: 6.4.1 (unknown)
216235  0     0  0            999 V2000
    3.7493   -3.7110    4.9804 C   0  0  0  0  0  0  0  0  0  0  0  0
    3.3973   -4.9372    5.4888 C   0  0  0  0  0  0  0  0  0  0  0  0
    2.3261   -5.8210    5.0042 C   0  0  0  0  0  0  0  0  0  0  0  0
    1.3384   -5.5179    4.3613 O   0  0  0  0  0  0  0  0  0  0  0  0
    2.6857   -7.1781    5.4587 C   0  0  0  0  0  0  0  0  0  0  0  0
    2.0359   -8.3694    5.1477 C   0  0  0  0  0  0  0  0  0  0  0  0
    2.6189   -9.4844    5.7013 C   0  0  0  0  0  0  0  0  0  0  0  0
    3.7661   -9.4219    6.5032 C   0  0  0  0  0  0  0  0  0  0  0  0
    4.4104   -8.2512    6.8283 C   0  0  0  0  0  0  0  0  0  0  0  0
    3.8297   -7.1062    6.2790 C   0  0  0  0  0  0  0  0  0  0  0  0
    4.1990   -5.7006    6.4193 C   0  0  0  0  0  0  0  0  0  0  0  0
    5.0475   -5.1848    7.3667 C   0  0  0  0  0  0  0  0  0  0  0  0
    5.1080   -3.8188    7.6941 C   0  0  0  0  0  0  0  0  0  0  0  0
    5.1216   -2.7380    8.0844 N   0  0  0  0  0  0  0  0  0  0  0  0
    5.8406   -5.9636    8.2319 C   0  0  0  0  0  0  0  0  0  0  0  0
    6.5219   -6.5453    8.9504 N   0  0  0  0  0  0  0  0  0  0  0  0
    3.8005  -10.9156    6.7096 C   0  0  0  0  0  0  0  0  0  0  0  0
    3.3093  -11.4664    8.0708 C   0  0  0  0  0  0  0  0  0  0  0  0
    2.3276  -10.4562    8.6109 C   0  0  0  0  0  0  0  0  0  0  0  0
    1.2363  -10.5108    7.8592 C   0  0  0  0  0  0  0  0  0  0  0  0
    1.4597  -11.5597    6.7980 C   0  0  0  0  0  0  0  0  0  0  0  0
    2.3382  -12.5510    7.5777 C   0  0  0  0  0  0  0  0  0  0  0  0
    2.5170  -10.9841    5.8232 C   0  0  0  0  0  0  0  0  0  0  0  0
    3.1165   -2.9468    3.9891 C   0  0  0  0  0  0  0  0  0  0  0  0
    3.7410   -1.9279    3.2341 C   0  0  0  0  0  0  0  0  0  0  0  0
    5.0489   -1.5154    3.3415 N   0  0  0  0  0  0  0  0  0  0  0  0
    5.7276   -1.1421    2.1710 C   0  0  0  0  0  0  0  0  0  0  0  0
    5.5847   -1.8986    1.0106 C   0  0  0  0  0  0  0  0  0  0  0  0
    6.2354   -1.5390   -0.1532 C   0  0  0  0  0  0  0  0  0  0  0  0
    7.0534   -0.4178   -0.1723 C   0  0  0  0  0  0  0  0  0  0  0  0
    7.9321    0.1487   -1.5926 S   0  0  0  0  0  0  0  0  0  0  0  0
    7.5022   -1.0503   -2.8851 C   0  0  0  0  0  0  0  0  0  0  0  0
    7.2148    0.3304    0.9938 C   0  0  0  0  0  0  0  0  0  0  0  0
    6.5605   -0.0230    2.1510 C   0  0  0  0  0  0  0  0  0  0  0  0
    5.6423   -1.2360    4.5841 C   0  0  0  0  0  0  0  0  0  0  0  0
    4.8997   -0.6597    5.6103 C   0  0  0  0  0  0  0  0  0  0  0  0
    5.4984   -0.3312    6.8073 C   0  0  0  0  0  0  0  0  0  0  0  0
    6.8515   -0.5853    7.0018 C   0  0  0  0  0  0  0  0  0  0  0  0
    7.7061   -0.1952    8.4882 S   0  0  0  0  0  0  0  0  0  0  0  0
    6.3658   -0.0953    9.7087 C   0  0  0  0  0  0  0  0  0  0  0  0
    7.5965   -1.1635    5.9760 C   0  0  0  0  0  0  0  0  0  0  0  0
    7.0003   -1.4873    4.7784 C   0  0  0  0  0  0  0  0  0  0  0  0
    2.8559   -1.3987    2.2759 C   0  0  0  0  0  0  0  0  0  0  0  0
    3.0058   -0.1833    1.0494 S   0  0  0  0  0  0  0  0  0  0  0  0
    1.2982   -0.3358    0.6855 C   0  0  0  0  0  0  0  0  0  0  0  0
    0.6848   -1.3341    1.4094 C   0  0  0  0  0  0  0  0  0  0  0  0
   -0.6381   -1.7180    1.1808 N   0  0  0  0  0  0  0  0  0  0  0  0
   -1.5548   -1.7348    2.2297 C   0  0  0  0  0  0  0  0  0  0  0  0
   -2.7270   -2.4898    2.1657 C   0  0  0  0  0  0  0  0  0  0  0  0
   -3.6458   -2.4313    3.1888 C   0  0  0  0  0  0  0  0  0  0  0  0
   -3.4159   -1.6378    4.3109 C   0  0  0  0  0  0  0  0  0  0  0  0
   -4.6916   -1.6128    5.5347 S   0  0  0  0  0  0  0  0  0  0  0  0
   -4.0939   -0.4279    6.7707 C   0  0  0  0  0  0  0  0  0  0  0  0
   -2.2273   -0.9312    4.4072 C   0  0  0  0  0  0  0  0  0  0  0  0
   -1.3119   -0.9817    3.3755 C   0  0  0  0  0  0  0  0  0  0  0  0
   -0.9652   -2.0654   -0.1370 C   0  0  0  0  0  0  0  0  0  0  0  0
   -2.1803   -1.7105   -0.7195 C   0  0  0  0  0  0  0  0  0  0  0  0
   -2.4703   -2.0745   -2.0199 C   0  0  0  0  0  0  0  0  0  0  0  0
   -1.5508   -2.8027   -2.7616 C   0  0  0  0  0  0  0  0  0  0  0  0
   -1.8871   -3.3546   -4.4085 S   0  0  0  0  0  0  0  0  0  0  0  0
   -3.6347   -3.8411   -4.2654 C   0  0  0  0  0  0  0  0  0  0  0  0
   -0.3213   -3.1280   -2.2017 C   0  0  0  0  0  0  0  0  0  0  0  0
   -0.0326   -2.7661   -0.9050 C   0  0  0  0  0  0  0  0  0  0  0  0
    1.5741   -1.9276    2.3380 C   0  0  0  0  0  0  0  0  0  0  0  0
    1.4361   -3.1901    3.4975 S   0  0  0  0  0  0  0  0  0  0  0  0
    0.5958    0.5786   -0.1882 C   0  0  0  0  0  0  0  0  0  0  0  0
   -0.1259    1.6626    0.2665 C   0  0  0  0  0  0  0  0  0  0  0  0
   -0.1620    2.0655    1.6034 N   0  0  0  0  0  0  0  0  0  0  0  0
    1.0630    2.2419    2.2586 C   0  0  0  0  0  0  0  0  0  0  0  0
    2.1295    2.8147    1.5680 C   0  0  0  0  0  0  0  0  0  0  0  0
    3.3742    2.9429    2.1522 C   0  0  0  0  0  0  0  0  0  0  0  0
    3.5770    2.5076    3.4538 C   0  0  0  0  0  0  0  0  0  0  0  0
    5.1267    2.5789    4.2974 S   0  0  0  0  0  0  0  0  0  0  0  0
    6.1777    3.5561    3.1851 C   0  0  0  0  0  0  0  0  0  0  0  0
    2.5070    1.9662    4.1626 C   0  0  0  0  0  0  0  0  0  0  0  0
    1.2681    1.8328    3.5771 C   0  0  0  0  0  0  0  0  0  0  0  0
   -1.3922    2.1489    2.2566 C   0  0  0  0  0  0  0  0  0  0  0  0
   -2.4880    1.4284    1.7879 C   0  0  0  0  0  0  0  0  0  0  0  0
   -3.7010    1.4653    2.4463 C   0  0  0  0  0  0  0  0  0  0  0  0
   -3.8411    2.2259    3.5971 C   0  0  0  0  0  0  0  0  0  0  0  0
   -5.3243    2.3229    4.5532 S   0  0  0  0  0  0  0  0  0  0  0  0
   -6.4464    1.1463    3.7502 C   0  0  0  0  0  0  0  0  0  0  0  0
   -2.7598    2.9793    4.0506 C   0  0  0  0  0  0  0  0  0  0  0  0
   -1.5545    2.9517    3.3869 C   0  0  0  0  0  0  0  0  0  0  0  0
   -0.8029    2.3130   -0.7903 C   0  0  0  0  0  0  0  0  0  0  0  0
   -1.7701    3.7425   -0.9029 S   0  0  0  0  0  0  0  0  0  0  0  0
   -1.8965    3.5210   -2.6361 C   0  0  0  0  0  0  0  0  0  0  0  0
   -1.1823    2.4196   -3.0962 C   0  0  0  0  0  0  0  0  0  0  0  0
   -1.0056    2.1243   -4.4527 N   0  0  0  0  0  0  0  0  0  0  0  0
   -1.7231    1.0730   -5.0334 C   0  0  0  0  0  0  0  0  0  0  0  0
   -1.2375    0.4192   -6.1617 C   0  0  0  0  0  0  0  0  0  0  0  0
   -1.9967   -0.5384   -6.8023 C   0  0  0  0  0  0  0  0  0  0  0  0
   -3.2515   -0.8725   -6.3139 C   0  0  0  0  0  0  0  0  0  0  0  0
   -4.3379   -2.0163   -7.1110 S   0  0  0  0  0  0  0  0  0  0  0  0
   -3.2264   -2.9561   -8.1947 C   0  0  0  0  0  0  0  0  0  0  0  0
   -3.7138   -0.2666   -5.1497 C   0  0  0  0  0  0  0  0  0  0  0  0
   -2.9552    0.6864   -4.5086 C   0  0  0  0  0  0  0  0  0  0  0  0
   -0.3345    3.0867   -5.2143 C   0  0  0  0  0  0  0  0  0  0  0  0
   -0.6702    3.3550   -6.5442 C   0  0  0  0  0  0  0  0  0  0  0  0
    0.0011    4.3314   -7.2440 C   0  0  0  0  0  0  0  0  0  0  0  0
    1.0155    5.0744   -6.6424 C   0  0  0  0  0  0  0  0  0  0  0  0
    1.7909    6.3067   -7.6434 S   0  0  0  0  0  0  0  0  0  0  0  0
    3.0939    6.9839   -6.5751 C   0  0  0  0  0  0  0  0  0  0  0  0
    1.3486    4.8187   -5.3203 C   0  0  0  0  0  0  0  0  0  0  0  0
    0.6820    3.8326   -4.6194 C   0  0  0  0  0  0  0  0  0  0  0  0
   -0.5752    1.7285   -2.0309 C   0  0  0  0  0  0  0  0  0  0  0  0
    0.4968    0.3754   -1.9273 S   0  0  0  0  0  0  0  0  0  0  0  0
   -2.7313    4.3611   -3.4102 C   0  0  0  0  0  0  0  0  0  0  0  0
   -3.2362    5.5976   -3.0113 C   0  0  0  0  0  0  0  0  0  0  0  0
   -2.8855    6.1445   -1.8023 O   0  0  0  0  0  0  0  0  0  0  0  0
   -2.0209    7.2747   -1.8949 C   0  0  0  0  0  0  0  0  0  0  0  0
   -0.6302    6.9072   -2.3978 C   0  0  0  0  0  0  0  0  0  0  0  0
   -4.0797    6.1633   -3.9759 C   0  0  0  0  0  0  0  0  0  0  0  0
   -4.6799    7.3719   -3.9364 O   0  0  0  0  0  0  0  0  0  0  0  0
   -5.4128    7.7117   -2.7581 C   0  0  0  0  0  0  0  0  0  0  0  0
   -6.7862    7.0538   -2.7707 C   0  0  0  0  0  0  0  0  0  0  0  0
   -4.2448    5.3376   -5.1116 C   0  0  0  0  0  0  0  0  0  0  0  0
   -3.2835    3.8946   -4.9779 S   0  0  0  0  0  0  0  0  0  0  0  0
   -5.1637    5.6382   -6.1161 C   0  0  0  0  0  0  0  0  0  0  0  0
   -5.5135    4.9008   -7.2255 C   0  0  0  0  0  0  0  0  0  0  0  0
   -4.8324    3.6913   -7.6852 C   0  0  0  0  0  0  0  0  0  0  0  0
   -3.8918    3.1191   -7.1589 O   0  0  0  0  0  0  0  0  0  0  0  0
   -5.4874    3.3064   -8.9472 C   0  0  0  0  0  0  0  0  0  0  0  0
   -5.2272    2.2367   -9.7863 C   0  0  0  0  0  0  0  0  0  0  0  0
   -3.9997    1.1017   -9.4048 Cl  0  0  0  0  0  0  0  0  0  0  0  0
   -5.9883    2.0947  -10.9448 C   0  0  0  0  0  0  0  0  0  0  0  0
   -6.9798    3.0136  -11.2380 C   0  0  0  0  0  0  0  0  0  0  0  0
   -7.2565    4.0874  -10.3975 C   0  0  0  0  0  0  0  0  0  0  0  0
   -6.5072    4.2308   -9.2434 C   0  0  0  0  0  0  0  0  0  0  0  0
   -6.5721    5.2120   -8.1564 C   0  0  0  0  0  0  0  0  0  0  0  0
   -7.5319    6.1844   -8.0254 C   0  0  0  0  0  0  0  0  0  0  0  0
   -8.5355    6.4423   -8.9814 C   0  0  0  0  0  0  0  0  0  0  0  0
   -9.3717    6.7098   -9.7215 N   0  0  0  0  0  0  0  0  0  0  0  0
   -7.6917    7.0234   -6.9038 C   0  0  0  0  0  0  0  0  0  0  0  0
   -7.9211    7.7151   -6.0151 N   0  0  0  0  0  0  0  0  0  0  0  0
    4.7003   -3.3103    5.3180 H   0  0  0  0  0  0  0  0  0  0  0  0
    1.1562   -8.3754    4.5232 H   0  0  0  0  0  0  0  0  0  0  0  0
    5.2933   -8.2145    7.4451 H   0  0  0  0  0  0  0  0  0  0  0  0
    4.6934  -11.4252    6.3527 H   0  0  0  0  0  0  0  0  0  0  0  0
    4.1030  -11.7736    8.7465 H   0  0  0  0  0  0  0  0  0  0  0  0
    2.5443   -9.7859    9.4219 H   0  0  0  0  0  0  0  0  0  0  0  0
    0.3581   -9.8947    7.9167 H   0  0  0  0  0  0  0  0  0  0  0  0
    0.5682  -11.9524    6.3159 H   0  0  0  0  0  0  0  0  0  0  0  0
    1.8030  -13.0386    8.3911 H   0  0  0  0  0  0  0  0  0  0  0  0
    2.8108  -13.3020    6.9458 H   0  0  0  0  0  0  0  0  0  0  0  0
    2.5695  -11.5446    4.8915 H   0  0  0  0  0  0  0  0  0  0  0  0
    4.9602   -2.7801    1.0210 H   0  0  0  0  0  0  0  0  0  0  0  0
    6.0988   -2.1465   -1.0329 H   0  0  0  0  0  0  0  0  0  0  0  0
    8.0329   -0.7232   -3.7739 H   0  0  0  0  0  0  0  0  0  0  0  0
    7.8407   -2.0418   -2.5989 H   0  0  0  0  0  0  0  0  0  0  0  0
    6.4316   -1.0327   -3.0674 H   0  0  0  0  0  0  0  0  0  0  0  0
    7.8617    1.1946    0.9726 H   0  0  0  0  0  0  0  0  0  0  0  0
    6.6824    0.5626    3.0488 H   0  0  0  0  0  0  0  0  0  0  0  0
    3.8495   -0.4631    5.4565 H   0  0  0  0  0  0  0  0  0  0  0  0
    4.9064    0.1305    7.5789 H   0  0  0  0  0  0  0  0  0  0  0  0
    5.7096   -0.9482    9.5681 H   0  0  0  0  0  0  0  0  0  0  0  0
    6.8445   -0.1424   10.6818 H   0  0  0  0  0  0  0  0  0  0  0  0
    5.8316    0.8452    9.6066 H   0  0  0  0  0  0  0  0  0  0  0  0
    8.6452   -1.3621    6.1350 H   0  0  0  0  0  0  0  0  0  0  0  0
    7.5780   -1.9405    3.9861 H   0  0  0  0  0  0  0  0  0  0  0  0
   -2.9133   -3.1270    1.3150 H   0  0  0  0  0  0  0  0  0  0  0  0
   -4.5568   -3.0083    3.1332 H   0  0  0  0  0  0  0  0  0  0  0  0
   -4.8814   -0.3636    7.5152 H   0  0  0  0  0  0  0  0  0  0  0  0
   -3.9446    0.5443    6.3100 H   0  0  0  0  0  0  0  0  0  0  0  0
   -3.1817   -0.7986    7.2291 H   0  0  0  0  0  0  0  0  0  0  0  0
   -2.0050   -0.3252    5.2706 H   0  0  0  0  0  0  0  0  0  0  0  0
   -0.3942   -0.4216    3.4537 H   0  0  0  0  0  0  0  0  0  0  0  0
   -2.9042   -1.1452   -0.1513 H   0  0  0  0  0  0  0  0  0  0  0  0
   -3.4126   -1.7816   -2.4557 H   0  0  0  0  0  0  0  0  0  0  0  0
   -3.7725   -4.3881   -3.3381 H   0  0  0  0  0  0  0  0  0  0  0  0
   -4.2772   -2.9679   -4.3071 H   0  0  0  0  0  0  0  0  0  0  0  0
   -3.8428   -4.4832   -5.1149 H   0  0  0  0  0  0  0  0  0  0  0  0
    0.3948   -3.6837   -2.7869 H   0  0  0  0  0  0  0  0  0  0  0  0
    0.9150   -3.0438   -0.4683 H   0  0  0  0  0  0  0  0  0  0  0  0
    1.9842    3.1499    0.5516 H   0  0  0  0  0  0  0  0  0  0  0  0
    4.1757    3.3763    1.5768 H   0  0  0  0  0  0  0  0  0  0  0  0
    7.1255    3.6665    3.7031 H   0  0  0  0  0  0  0  0  0  0  0  0
    6.3272    3.0260    2.2488 H   0  0  0  0  0  0  0  0  0  0  0  0
    5.7303    4.5319    3.0210 H   0  0  0  0  0  0  0  0  0  0  0  0
    2.6623    1.6473    5.1820 H   0  0  0  0  0  0  0  0  0  0  0  0
    0.4539    1.4088    4.1443 H   0  0  0  0  0  0  0  0  0  0  0  0
   -2.3856    0.8201    0.9026 H   0  0  0  0  0  0  0  0  0  0  0  0
   -4.5207    0.8820    2.0592 H   0  0  0  0  0  0  0  0  0  0  0  0
   -6.6715    1.4775    2.7405 H   0  0  0  0  0  0  0  0  0  0  0  0
   -6.0080    0.1526    3.7585 H   0  0  0  0  0  0  0  0  0  0  0  0
   -7.3508    1.1529    4.3506 H   0  0  0  0  0  0  0  0  0  0  0  0
   -2.8811    3.5924    4.9310 H   0  0  0  0  0  0  0  0  0  0  0  0
   -0.7319    3.5539    3.7414 H   0  0  0  0  0  0  0  0  0  0  0  0
   -0.2649    0.6785   -6.5517 H   0  0  0  0  0  0  0  0  0  0  0  0
   -1.6027   -1.0081   -7.6889 H   0  0  0  0  0  0  0  0  0  0  0  0
   -2.3716   -3.2975   -7.6181 H   0  0  0  0  0  0  0  0  0  0  0  0
   -3.8039   -3.8044   -8.5489 H   0  0  0  0  0  0  0  0  0  0  0  0
   -2.9187   -2.3453   -9.0387 H   0  0  0  0  0  0  0  0  0  0  0  0
   -4.6911   -0.5283   -4.7703 H   0  0  0  0  0  0  0  0  0  0  0  0
   -3.3311    1.1634   -3.6153 H   0  0  0  0  0  0  0  0  0  0  0  0
   -1.4770    2.8165   -7.0136 H   0  0  0  0  0  0  0  0  0  0  0  0
   -0.2643    4.5422   -8.2687 H   0  0  0  0  0  0  0  0  0  0  0  0
    3.7784    6.1942   -6.2794 H   0  0  0  0  0  0  0  0  0  0  0  0
    2.6532    7.4704   -5.7096 H   0  0  0  0  0  0  0  0  0  0  0  0
    3.6165    7.7165   -7.1820 H   0  0  0  0  0  0  0  0  0  0  0  0
    2.1263    5.3739   -4.8207 H   0  0  0  0  0  0  0  0  0  0  0  0
    0.9595    3.6386   -3.5936 H   0  0  0  0  0  0  0  0  0  0  0  0
   -2.4655    8.0356   -2.5484 H   0  0  0  0  0  0  0  0  0  0  0  0
   -1.9714    7.6619   -0.8747 H   0  0  0  0  0  0  0  0  0  0  0  0
   -0.1755    6.1718   -1.7387 H   0  0  0  0  0  0  0  0  0  0  0  0
   -0.0075    7.7972   -2.4198 H   0  0  0  0  0  0  0  0  0  0  0  0
   -0.6824    6.4903   -3.4027 H   0  0  0  0  0  0  0  0  0  0  0  0
   -5.5083    8.7989   -2.7987 H   0  0  0  0  0  0  0  0  0  0  0  0
   -4.8594    7.4260   -1.8587 H   0  0  0  0  0  0  0  0  0  0  0  0
   -7.3239    7.3303   -3.6749 H   0  0  0  0  0  0  0  0  0  0  0  0
   -7.3544    7.3806   -1.9047 H   0  0  0  0  0  0  0  0  0  0  0  0
   -6.6860    5.9702   -2.7380 H   0  0  0  0  0  0  0  0  0  0  0  0
   -5.6738    6.5804   -5.9538 H   0  0  0  0  0  0  0  0  0  0  0  0
   -5.7965    1.2650  -11.6064 H   0  0  0  0  0  0  0  0  0  0  0  0
   -7.5578    2.8930  -12.1414 H   0  0  0  0  0  0  0  0  0  0  0  0
   -8.0378    4.7829  -10.6550 H   0  0  0  0  0  0  0  0  0  0  0  0
  1  2  2  0  0  0  0
  2  3  1  0  0  0  0
  3  4  2  0  0  0  0
  3  5  1  0  0  0  0
  5  6  2  0  0  0  0
  6  7  1  0  0  0  0
  7  8  2  0  0  0  0
  8  9  1  0  0  0  0
  9 10  2  0  0  0  0
 10 11  1  0  0  0  0
 11 12  2  0  0  0  0
 12 13  1  0  0  0  0
 13 14  3  0  0  0  0
 12 15  1  0  0  0  0
 15 16  3  0  0  0  0
  8 17  1  0  0  0  0
 17 18  1  0  0  0  0
 18 19  1  0  0  0  0
 19 20  2  0  0  0  0
 20 21  1  0  0  0  0
 21 22  1  0  0  0  0
 21 23  1  0  0  0  0
  1 24  1  0  0  0  0
 24 25  2  0  0  0  0
 25 26  1  0  0  0  0
 26 27  1  0  0  0  0
 27 28  2  0  0  0  0
 28 29  1  0  0  0  0
 29 30  2  0  0  0  0
 30 31  1  0  0  0  0
 31 32  1  0  0  0  0
 30 33  1  0  0  0  0
 33 34  2  0  0  0  0
 26 35  1  0  0  0  0
 35 36  2  0  0  0  0
 36 37  1  0  0  0  0
 37 38  2  0  0  0  0
 38 39  1  0  0  0  0
 39 40  1  0  0  0  0
 38 41  1  0  0  0  0
 41 42  2  0  0  0  0
 25 43  1  0  0  0  0
 43 44  1  0  0  0  0
 44 45  1  0  0  0  0
 45 46  2  0  0  0  0
 46 47  1  0  0  0  0
 47 48  1  0  0  0  0
 48 49  2  0  0  0  0
 49 50  1  0  0  0  0
 50 51  2  0  0  0  0
 51 52  1  0  0  0  0
 52 53  1  0  0  0  0
 51 54  1  0  0  0  0
 54 55  2  0  0  0  0
 47 56  1  0  0  0  0
 56 57  2  0  0  0  0
 57 58  1  0  0  0  0
 58 59  2  0  0  0  0
 59 60  1  0  0  0  0
 60 61  1  0  0  0  0
 59 62  1  0  0  0  0
 62 63  2  0  0  0  0
 46 64  1  0  0  0  0
 64 65  1  0  0  0  0
 45 66  1  0  0  0  0
 66 67  2  0  0  0  0
 67 68  1  0  0  0  0
 68 69  1  0  0  0  0
 69 70  2  0  0  0  0
 70 71  1  0  0  0  0
 71 72  2  0  0  0  0
 72 73  1  0  0  0  0
 73 74  1  0  0  0  0
 72 75  1  0  0  0  0
 75 76  2  0  0  0  0
 68 77  1  0  0  0  0
 77 78  2  0  0  0  0
 78 79  1  0  0  0  0
 79 80  2  0  0  0  0
 80 81  1  0  0  0  0
 81 82  1  0  0  0  0
 80 83  1  0  0  0  0
 83 84  2  0  0  0  0
 67 85  1  0  0  0  0
 85 86  1  0  0  0  0
 86 87  1  0  0  0  0
 87 88  2  0  0  0  0
 88 89  1  0  0  0  0
 89 90  1  0  0  0  0
 90 91  2  0  0  0  0
 91 92  1  0  0  0  0
 92 93  2  0  0  0  0
 93 94  1  0  0  0  0
 94 95  1  0  0  0  0
 93 96  1  0  0  0  0
 96 97  2  0  0  0  0
 89 98  1  0  0  0  0
 98 99  2  0  0  0  0
 99100  1  0  0  0  0
100101  2  0  0  0  0
101102  1  0  0  0  0
102103  1  0  0  0  0
101104  1  0  0  0  0
104105  2  0  0  0  0
 88106  1  0  0  0  0
106107  1  0  0  0  0
 87108  1  0  0  0  0
108109  2  0  0  0  0
109110  1  0  0  0  0
110111  1  0  0  0  0
111112  1  0  0  0  0
109113  1  0  0  0  0
113114  1  0  0  0  0
114115  1  0  0  0  0
115116  1  0  0  0  0
113117  2  0  0  0  0
117118  1  0  0  0  0
117119  1  0  0  0  0
119120  2  0  0  0  0
120121  1  0  0  0  0
121122  2  0  0  0  0
121123  1  0  0  0  0
123124  2  0  0  0  0
124125  1  0  0  0  0
124126  1  0  0  0  0
126127  2  0  0  0  0
127128  1  0  0  0  0
128129  2  0  0  0  0
129130  1  0  0  0  0
130131  2  0  0  0  0
131132  1  0  0  0  0
132133  3  0  0  0  0
131134  1  0  0  0  0
134135  3  0  0  0  0
 11  2  1  0  0  0  0
 23 17  1  0  0  0  0
 65 24  1  0  0  0  0
107 66  1  0  0  0  0
118108  1  0  0  0  0
130120  1  0  0  0  0
 10  5  1  0  0  0  0
 22 18  1  0  0  0  0
 34 27  1  0  0  0  0
 42 35  1  0  0  0  0
 64 43  2  0  0  0  0
 76 69  1  0  0  0  0
 84 77  1  0  0  0  0
106 85  2  0  0  0  0
129123  1  0  0  0  0
 23  7  1  0  0  0  0
 55 48  1  0  0  0  0
 63 56  1  0  0  0  0
 97 90  1  0  0  0  0
105 98  1  0  0  0  0
  1136  1  0  0  0  0
  6137  1  0  0  0  0
  9138  1  0  0  0  0
 17139  1  0  0  0  0
 18140  1  0  0  0  0
 19141  1  0  0  0  0
 20142  1  0  0  0  0
 21143  1  0  0  0  0
 22144  1  0  0  0  0
 22145  1  0  0  0  0
 23146  1  0  0  0  0
 28147  1  0  0  0  0
 29148  1  0  0  0  0
 32149  1  0  0  0  0
 32150  1  0  0  0  0
 32151  1  0  0  0  0
 33152  1  0  0  0  0
 34153  1  0  0  0  0
 36154  1  0  0  0  0
 37155  1  0  0  0  0
 40156  1  0  0  0  0
 40157  1  0  0  0  0
 40158  1  0  0  0  0
 41159  1  0  0  0  0
 42160  1  0  0  0  0
 49161  1  0  0  0  0
 50162  1  0  0  0  0
 53163  1  0  0  0  0
 53164  1  0  0  0  0
 53165  1  0  0  0  0
 54166  1  0  0  0  0
 55167  1  0  0  0  0
 57168  1  0  0  0  0
 58169  1  0  0  0  0
 61170  1  0  0  0  0
 61171  1  0  0  0  0
 61172  1  0  0  0  0
 62173  1  0  0  0  0
 63174  1  0  0  0  0
 70175  1  0  0  0  0
 71176  1  0  0  0  0
 74177  1  0  0  0  0
 74178  1  0  0  0  0
 74179  1  0  0  0  0
 75180  1  0  0  0  0
 76181  1  0  0  0  0
 78182  1  0  0  0  0
 79183  1  0  0  0  0
 82184  1  0  0  0  0
 82185  1  0  0  0  0
 82186  1  0  0  0  0
 83187  1  0  0  0  0
 84188  1  0  0  0  0
 91189  1  0  0  0  0
 92190  1  0  0  0  0
 95191  1  0  0  0  0
 95192  1  0  0  0  0
 95193  1  0  0  0  0
 96194  1  0  0  0  0
 97195  1  0  0  0  0
 99196  1  0  0  0  0
100197  1  0  0  0  0
103198  1  0  0  0  0
103199  1  0  0  0  0
103200  1  0  0  0  0
104201  1  0  0  0  0
105202  1  0  0  0  0
111203  1  0  0  0  0
111204  1  0  0  0  0
112205  1  0  0  0  0
112206  1  0  0  0  0
112207  1  0  0  0  0
115208  1  0  0  0  0
115209  1  0  0  0  0
116210  1  0  0  0  0
116211  1  0  0  0  0
116212  1  0  0  0  0
119213  1  0  0  0  0
126214  1  0  0  0  0
127215  1  0  0  0  0
128216  1  0  0  0  0
M  END
