207

C          1.54560        3.40420        9.42490
C          0.49470        4.22610        9.69920
C         -0.52360        4.67700        8.71430
O         -0.72410        4.25660        7.59200
C         -1.19430        5.82890        9.33470
C         -2.19020        6.61550        8.75850
C         -2.64250        7.62660        9.57040
C         -2.13360        7.84950       10.85810
C         -1.14820        7.08500       11.43610
C         -0.68130        6.04200       10.63090
C          0.33130        5.02800       10.90040
C          0.95360        4.80640       12.09930
C          1.84730        3.74280       12.35090
N          2.56010        2.88830       12.63320
C          0.75060        5.58390       13.25870
N          0.63290        6.17820       14.23360
C         -3.04900        9.02260       11.10200
C         -4.28470        8.79330       12.00730
C         -4.62880        7.32820       11.90000
C         -5.11170        7.11370       10.68340
C         -5.10340        8.43010        9.94610
C         -5.37880        9.39470       11.11060
C         -3.61790        8.77160        9.66980
C          1.65310        2.57330        8.27800
C          0.65610        1.93790        7.58870
C          1.10620        1.26400        6.43350
C          0.32970        0.57170        5.48440
C         -1.13000        0.46050        5.60920
C         -1.91960        1.57310        5.89180
C         -3.28980        1.42570        5.98180
F         -4.03080        2.52000        6.25130
C         -3.94380        0.21030        5.81250
C         -5.43650        0.08100        5.87850
C         -6.04880        0.23620        4.48440
C         -3.11910       -0.87310        5.53230
F         -3.68800       -2.08530        5.36280
C         -1.74730       -0.77450        5.42610
C          1.00870        0.04290        4.39920
C          2.41350        0.15350        4.22840
C          3.19320        0.80580        5.19860
C          4.65020        0.90710        5.05790
C          5.30100        2.12350        5.23950
C          6.67080        2.19110        5.08230
C          7.45880        1.09430        4.75120
C          8.94960        1.18660        4.61910
C          9.62450        0.90110        5.96280
C          6.77260       -0.10540        4.59860
C          5.40440       -0.21900        4.73940
F          7.47430       -1.21450        4.28690
F          7.27050        3.38820        5.24090
C          2.51330        1.36840        6.26980
S          3.23180        2.27050        7.57250
C          2.83170       -0.34660        2.96930
C          1.80890       -0.79280        2.18720
S          0.26320       -0.71250        3.01600
C          1.83250       -1.17500        0.81030
C          2.54500       -0.58710       -0.22690
N          3.40540        0.49080       -0.12080
C          4.51850        0.54640       -0.97500
C          5.23180       -0.61500       -1.27410
C          6.30810       -0.56670       -2.13040
C          6.70540        0.64200       -2.69940
S          8.10520        0.58170       -3.76900
C          8.16870        2.24230       -4.50000
C          6.00750        1.80270       -2.39020
C          4.92040        1.75230       -1.54020
C          3.14930        1.52020        0.79200
C          1.84120        1.90440        1.07730
C          1.57170        2.80160        2.09030
C          2.61310        3.35130        2.82640
S          2.37600        4.38970        4.23440
C          0.60210        4.23300        4.57190
C          3.92700        3.06040        2.46540
C          4.19490        2.14760        1.47040
C          2.19700       -1.17820       -1.46820
S          2.68610       -0.89210       -3.09910
C          1.48290       -2.03620       -3.67190
C          0.81740       -2.68320       -2.63560
N         -0.01560       -3.76520       -2.78670
C         -1.05090       -3.95940       -1.86570
C         -1.37040       -5.23940       -1.41170
C         -2.33410       -5.40700       -0.44310
C         -2.99450       -4.30440        0.09630
S         -4.16690       -4.61150        1.37920
C         -4.23950       -3.01700        2.24690
C         -2.71910       -3.03470       -0.39400
C         -1.75690       -2.86580       -1.36920
C          0.16010       -4.65730       -3.85640
C         -0.93920       -5.19670       -4.51580
C         -0.77100       -6.07080       -5.57190
C          0.50590       -6.41320       -5.99460
S          0.85000       -7.51840       -7.32030
C         -0.77150       -7.78220       -8.08850
C          1.61070       -5.88640       -5.32590
C          1.44210       -5.02440       -4.26780
C          1.21990       -2.15690       -1.38230
S          0.71130       -2.40630        0.24950
C          1.20120       -2.13740       -5.07610
C         -0.14810       -2.17440       -5.53670
N         -1.14180       -2.03630       -4.63280
C         -2.36780       -2.00410       -5.05350
C         -2.67500       -2.06350       -6.44230
O         -3.95450       -1.97590       -6.79480
C         -4.27390       -2.06090       -8.18060
C         -3.88520       -0.81230       -8.95950
N         -1.72570       -2.17240       -7.33860
C         -0.45050       -2.25860       -6.91680
C          0.59910       -2.31940       -7.88000
C          1.90110       -2.21160       -7.40080
C          2.19670       -2.12290       -6.04410
F          3.48650       -2.06410       -5.67090
F          2.91620       -2.23720       -8.27550
C          0.33420       -2.30860       -9.28760
C         -0.72550       -2.91170       -9.88760
C         -1.49770       -4.03630       -9.30720
O         -1.28580       -4.63990       -8.27460
C         -2.51940       -4.38270      -10.31430
C         -3.51690       -5.35020      -10.19490
C         -4.35120       -5.43360      -11.28260
C         -4.19260       -4.62910      -12.41930
C         -3.20230       -3.68710      -12.56010
C         -2.35180       -3.57240      -11.45520
C         -1.23450       -2.66160      -11.22340
C         -0.82040       -1.67310      -12.07680
C         -1.37020       -1.43620      -13.35410
N         -1.77110       -1.18920      -14.40130
C          0.18870       -0.72630      -11.79780
N          0.97210        0.09830      -11.64220
C         -5.39410       -5.22640      -13.10770
C         -6.67780       -4.36890      -13.10330
C         -7.77810       -5.36330      -13.39550
C         -7.92960       -6.12520      -12.31980
C         -6.93430       -5.65810      -11.28210
C         -6.90640       -4.15750      -11.60070
C         -5.57170       -6.12240      -11.83990
H          2.40650        3.41500       10.08210
H         -2.55220        6.41000        7.76320
H         -0.76100        7.27370       12.42350
H         -2.56140        9.97530       11.29800
H         -4.18630        9.19080       13.01370
H         -4.43830        6.61050       12.67630
H         -5.40470        6.18060       10.23900
H         -5.75100        8.49710        9.07600
H         -6.37730        9.27600       11.52820
H         -5.20730       10.44020       10.85820
H         -3.50440        9.56110        8.92950
H         -0.36210        1.91990        7.92640
H         -1.49120        2.55280        6.03480
H         -5.69690       -0.89960        6.28060
H         -5.83870        0.84980        6.53970
H         -7.12970        0.13780        4.53910
H         -5.80920        1.21400        4.07220
H         -5.66290       -0.52880        3.81420
H         -1.16940       -1.66230        5.22530
H          4.75220        3.02160        5.47290
H          9.22170        2.18830        4.28250
H          9.29320        0.46110        3.87980
H          9.37370       -0.09930        6.30820
H          9.29880        1.62010        6.71110
H         10.70400        0.97200        5.85920
H          4.94030       -1.18580        4.62540
H          3.85420       -0.34070        2.64160
H          4.93740       -1.55350       -0.82810
H          6.85820       -1.46400       -2.36700
H          8.96170        2.20430       -5.24040
H          7.22260        2.46620       -4.98360
H          8.41140        2.97990       -3.74040
H          6.29380        2.75320       -2.81000
H          4.37370        2.65560       -1.31320
H          1.02400        1.47720        0.51490
H          0.54540        3.06090        2.29420
H          0.44290        4.61110        5.57740
H          0.03120        4.82270        3.86000
H          0.32380        3.18470        4.52970
H          4.73670        3.53750        2.99350
H          5.21680        1.89290        1.23240
H         -0.84080       -6.09320       -1.80670
H         -2.57110       -6.39260       -0.07320
H         -3.23180       -2.63580        2.38220
H         -4.68820       -3.22560        3.21290
H         -4.85670       -2.31300        1.69520
H         -3.25010       -2.17180       -0.02480
H         -1.55070       -1.88300       -1.76510
H         -1.93500       -4.92450       -4.19740
H         -1.64410       -6.46620       -6.06220
H         -1.21080       -6.81280       -8.30320
H         -1.40400       -8.37570       -7.43420
H         -0.58070       -8.32390       -9.00980
H          2.60190       -6.17100       -5.64410
H          2.30570       -4.63430       -3.75010
H         -3.15280       -1.89640       -4.31920
H         -3.77940       -2.93960       -8.60580
H         -5.35680       -2.20630       -8.19740
H         -4.34810        0.06660       -8.51770
H         -4.22210       -0.90980       -9.98810
H         -2.80560       -0.68650       -8.95060
H          1.03220       -1.73630       -9.88580
H         -3.60550       -5.95260       -9.30360
H         -3.08840       -3.08550      -13.44590
H         -5.20620       -5.70730      -14.06530
H         -6.63610       -3.48490      -13.73340
H         -8.27800       -5.44330      -14.34270
H         -8.58120       -6.96890      -12.18870
H         -7.12830       -5.94870      -10.25300
H         -6.10740       -3.61160      -11.10130
H         -7.86060       -3.67560      -11.39430
H         -5.50200       -7.20270      -11.95060
