
  xtb     02082216213D
 energy: -270.669739024721 gnorm: 0.000609839909 xtb: 6.4.1 (unknown)
155170  0     0  0            999 V2000
   -0.8593    1.1986   -7.2665 C   0  0  0  0  0  0  0  0  0  0  0  0
    0.3213    1.5134   -7.8535 C   0  0  0  0  0  0  0  0  0  0  0  0
    1.6438    1.4527   -7.1684 C   0  0  0  0  0  0  0  0  0  0  0  0
    1.8776    1.0695   -6.0421 O   0  0  0  0  0  0  0  0  0  0  0  0
    2.6390    1.8167   -8.1903 C   0  0  0  0  0  0  0  0  0  0  0  0
    4.0165    1.9229   -8.0092 C   0  0  0  0  0  0  0  0  0  0  0  0
    4.7091    2.2487   -9.1496 C   0  0  0  0  0  0  0  0  0  0  0  0
    4.0784    2.4488  -10.3858 C   0  0  0  0  0  0  0  0  0  0  0  0
    2.7220    2.3463  -10.5794 C   0  0  0  0  0  0  0  0  0  0  0  0
    1.9965    2.0170   -9.4294 C   0  0  0  0  0  0  0  0  0  0  0  0
    0.5612    1.8220   -9.2539 C   0  0  0  0  0  0  0  0  0  0  0  0
   -0.3898    1.9549  -10.2307 C   0  0  0  0  0  0  0  0  0  0  0  0
   -0.1174    2.2698  -11.5790 C   0  0  0  0  0  0  0  0  0  0  0  0
    0.0256    2.5148  -12.6915 N   0  0  0  0  0  0  0  0  0  0  0  0
   -1.7796    1.8007  -10.0412 C   0  0  0  0  0  0  0  0  0  0  0  0
   -2.9214    1.6969   -9.9747 N   0  0  0  0  0  0  0  0  0  0  0  0
    5.3802    2.7240  -11.0951 C   0  0  0  0  0  0  0  0  0  0  0  0
    5.9773    1.5928  -11.9686 C   0  0  0  0  0  0  0  0  0  0  0  0
    5.4706    0.2931  -11.3942 C   0  0  0  0  0  0  0  0  0  0  0  0
    6.0677    0.1069  -10.2247 C   0  0  0  0  0  0  0  0  0  0  0  0
    6.9893    1.2778   -9.9869 C   0  0  0  0  0  0  0  0  0  0  0  0
    7.4174    1.5829  -11.4311 C   0  0  0  0  0  0  0  0  0  0  0  0
    6.0823    2.5044   -9.7180 C   0  0  0  0  0  0  0  0  0  0  0  0
   -1.0389    1.0662   -5.8458 C   0  0  0  0  0  0  0  0  0  0  0  0
   -1.8370    0.0772   -5.2982 C   0  0  0  0  0  0  0  0  0  0  0  0
   -1.9220   -0.1264   -3.9218 C   0  0  0  0  0  0  0  0  0  0  0  0
   -2.7428   -1.1144   -3.5215 F   0  0  0  0  0  0  0  0  0  0  0  0
   -1.2487    0.6345   -2.9749 C   0  0  0  0  0  0  0  0  0  0  0  0
   -0.5570    1.7570   -3.5126 C   0  0  0  0  0  0  0  0  0  0  0  0
   -0.4411    1.9681   -4.9288 C   0  0  0  0  0  0  0  0  0  0  0  0
    0.2165    3.0884   -5.2125 N   0  0  0  0  0  0  0  0  0  0  0  0
    0.6822    3.7835   -3.8427 S   0  0  0  0  0  0  0  0  0  0  0  0
    0.0504    2.7167   -2.8191 N   0  0  0  0  0  0  0  0  0  0  0  0
   -1.1461    0.3616   -1.5654 C   0  0  0  0  0  0  0  0  0  0  0  0
   -1.0018   -0.8463   -0.8963 C   0  0  0  0  0  0  0  0  0  0  0  0
   -1.0417   -2.1349   -1.4534 N   0  0  0  0  0  0  0  0  0  0  0  0
    0.1932   -2.7973   -1.4956 C   0  0  0  0  0  0  0  0  0  0  0  0
    1.3175   -2.1042   -1.9392 C   0  0  0  0  0  0  0  0  0  0  0  0
    2.5526   -2.7200   -1.9973 C   0  0  0  0  0  0  0  0  0  0  0  0
    2.6855   -4.0458   -1.6097 C   0  0  0  0  0  0  0  0  0  0  0  0
    4.2033   -4.9465   -1.6522 S   0  0  0  0  0  0  0  0  0  0  0  0
    5.3832   -3.7815   -2.3915 C   0  0  0  0  0  0  0  0  0  0  0  0
    1.5672   -4.7371   -1.1448 C   0  0  0  0  0  0  0  0  0  0  0  0
    0.3379   -4.1225   -1.0813 C   0  0  0  0  0  0  0  0  0  0  0  0
   -2.2530   -2.8185   -1.5405 C   0  0  0  0  0  0  0  0  0  0  0  0
   -3.3639   -2.3970   -0.8147 C   0  0  0  0  0  0  0  0  0  0  0  0
   -4.5735   -3.0544   -0.9248 C   0  0  0  0  0  0  0  0  0  0  0  0
   -4.6948   -4.1503   -1.7657 C   0  0  0  0  0  0  0  0  0  0  0  0
   -6.1809   -5.0803   -1.9792 S   0  0  0  0  0  0  0  0  0  0  0  0
   -7.4196   -4.1465   -1.0357 C   0  0  0  0  0  0  0  0  0  0  0  0
   -3.5880   -4.5722   -2.5013 C   0  0  0  0  0  0  0  0  0  0  0  0
   -2.3856   -3.9141   -2.3973 C   0  0  0  0  0  0  0  0  0  0  0  0
   -0.6550   -0.6387    0.4578 C   0  0  0  0  0  0  0  0  0  0  0  0
   -0.3446   -1.6954    1.7884 S   0  0  0  0  0  0  0  0  0  0  0  0
   -0.0508   -0.3131    2.8424 C   0  0  0  0  0  0  0  0  0  0  0  0
   -0.2431    0.9056    2.1921 C   0  0  0  0  0  0  0  0  0  0  0  0
   -0.1498    2.1810    2.7173 N   0  0  0  0  0  0  0  0  0  0  0  0
   -0.5427    2.5274    4.0106 C   0  0  0  0  0  0  0  0  0  0  0  0
   -1.4820    1.7772    4.7159 C   0  0  0  0  0  0  0  0  0  0  0  0
   -1.7775    2.0736    6.0315 C   0  0  0  0  0  0  0  0  0  0  0  0
   -1.1545    3.1403    6.6645 C   0  0  0  0  0  0  0  0  0  0  0  0
   -1.4491    3.5796    8.3498 S   0  0  0  0  0  0  0  0  0  0  0  0
   -1.9010    1.9984    9.1194 C   0  0  0  0  0  0  0  0  0  0  0  0
   -0.2696    3.9371    5.9420 C   0  0  0  0  0  0  0  0  0  0  0  0
    0.0414    3.6314    4.6365 C   0  0  0  0  0  0  0  0  0  0  0  0
    0.2696    3.1793    1.8109 C   0  0  0  0  0  0  0  0  0  0  0  0
   -0.4846    4.3289    1.6049 C   0  0  0  0  0  0  0  0  0  0  0  0
   -0.1244    5.2316    0.6233 C   0  0  0  0  0  0  0  0  0  0  0  0
    0.9913    4.9910   -0.1678 C   0  0  0  0  0  0  0  0  0  0  0  0
    1.4881    6.0432   -1.4962 S   0  0  0  0  0  0  0  0  0  0  0  0
   -0.0461    6.9227   -1.9136 C   0  0  0  0  0  0  0  0  0  0  0  0
    1.7830    3.8729    0.0775 C   0  0  0  0  0  0  0  0  0  0  0  0
    1.4272    2.9763    1.0595 C   0  0  0  0  0  0  0  0  0  0  0  0
   -0.5754    0.6929    0.8304 C   0  0  0  0  0  0  0  0  0  0  0  0
   -0.9060    1.7337   -0.5061 S   0  0  0  0  0  0  0  0  0  0  0  0
    0.2841   -0.5736    4.1978 C   0  0  0  0  0  0  0  0  0  0  0  0
    0.9491    0.2525    5.0892 C   0  0  0  0  0  0  0  0  0  0  0  0
    0.9845   -0.2661    6.3778 C   0  0  0  0  0  0  0  0  0  0  0  0
    1.5036    0.5028    7.5296 C   0  0  0  0  0  0  0  0  0  0  0  0
    1.0067    0.4754    8.6318 O   0  0  0  0  0  0  0  0  0  0  0  0
    2.5552    1.2422    7.1925 O   0  0  0  0  0  0  0  0  0  0  0  0
    3.1453    2.0396    8.2240 C   0  0  0  0  0  0  0  0  0  0  0  0
    2.4888    3.4087    8.3096 C   0  0  0  0  0  0  0  0  0  0  0  0
    0.3880   -1.5322    6.4953 C   0  0  0  0  0  0  0  0  0  0  0  0
   -0.2442   -2.0453    4.9559 S   0  0  0  0  0  0  0  0  0  0  0  0
    0.4145   -2.2816    7.6826 C   0  0  0  0  0  0  0  0  0  0  0  0
   -0.0977   -3.5220    7.9495 C   0  0  0  0  0  0  0  0  0  0  0  0
   -0.9621   -4.3130    7.0606 C   0  0  0  0  0  0  0  0  0  0  0  0
   -1.2559   -4.0655    5.9042 O   0  0  0  0  0  0  0  0  0  0  0  0
   -1.4247   -5.4562    7.8618 C   0  0  0  0  0  0  0  0  0  0  0  0
   -2.2835   -6.4795    7.5094 C   0  0  0  0  0  0  0  0  0  0  0  0
   -2.5693   -7.4523    8.4538 C   0  0  0  0  0  0  0  0  0  0  0  0
   -2.0146   -7.4073    9.7314 C   0  0  0  0  0  0  0  0  0  0  0  0
   -2.3620   -8.4556   10.7398 C   0  0  0  0  0  0  0  0  0  0  0  0
   -1.1475   -6.3715   10.0784 C   0  0  0  0  0  0  0  0  0  0  0  0
   -0.8470   -5.3968    9.1434 C   0  0  0  0  0  0  0  0  0  0  0  0
    0.0358   -4.2329    9.2064 C   0  0  0  0  0  0  0  0  0  0  0  0
    0.8972   -3.9356   10.2288 C   0  0  0  0  0  0  0  0  0  0  0  0
    0.9832   -4.6764   11.4262 C   0  0  0  0  0  0  0  0  0  0  0  0
    1.0951   -5.2334   12.4240 N   0  0  0  0  0  0  0  0  0  0  0  0
    1.8616   -2.9038   10.2143 C   0  0  0  0  0  0  0  0  0  0  0  0
    2.7066   -2.1282   10.2745 N   0  0  0  0  0  0  0  0  0  0  0  0
   -1.7338    1.0086   -7.8749 H   0  0  0  0  0  0  0  0  0  0  0  0
    4.4607    1.7581   -7.0400 H   0  0  0  0  0  0  0  0  0  0  0  0
    2.2543    2.5005  -11.5373 H   0  0  0  0  0  0  0  0  0  0  0  0
    5.4705    3.7015  -11.5644 H   0  0  0  0  0  0  0  0  0  0  0  0
    5.8422    1.7298  -13.0379 H   0  0  0  0  0  0  0  0  0  0  0  0
    4.7114   -0.3102  -11.8567 H   0  0  0  0  0  0  0  0  0  0  0  0
    5.9067   -0.6829   -9.5145 H   0  0  0  0  0  0  0  0  0  0  0  0
    7.7763    1.1282   -9.2523 H   0  0  0  0  0  0  0  0  0  0  0  0
    7.9280    2.5387  -11.5399 H   0  0  0  0  0  0  0  0  0  0  0  0
    8.0238    0.7902  -11.8666 H   0  0  0  0  0  0  0  0  0  0  0  0
    6.6304    3.3396   -9.2862 H   0  0  0  0  0  0  0  0  0  0  0  0
   -2.3750   -0.6047   -5.9392 H   0  0  0  0  0  0  0  0  0  0  0  0
    1.2238   -1.0755   -2.2554 H   0  0  0  0  0  0  0  0  0  0  0  0
    3.3969   -2.1526   -2.3535 H   0  0  0  0  0  0  0  0  0  0  0  0
    5.0393   -3.4817   -3.3771 H   0  0  0  0  0  0  0  0  0  0  0  0
    5.5177   -2.9224   -1.7408 H   0  0  0  0  0  0  0  0  0  0  0  0
    6.3175   -4.3278   -2.4770 H   0  0  0  0  0  0  0  0  0  0  0  0
    1.6804   -5.7615   -0.8247 H   0  0  0  0  0  0  0  0  0  0  0  0
   -0.5159   -4.6615   -0.7006 H   0  0  0  0  0  0  0  0  0  0  0  0
   -3.2841   -1.5461   -0.1545 H   0  0  0  0  0  0  0  0  0  0  0  0
   -5.4088   -2.7019   -0.3415 H   0  0  0  0  0  0  0  0  0  0  0  0
   -8.3628   -4.6561   -1.2062 H   0  0  0  0  0  0  0  0  0  0  0  0
   -7.4761   -3.1285   -1.4097 H   0  0  0  0  0  0  0  0  0  0  0  0
   -7.1770   -4.1667    0.0229 H   0  0  0  0  0  0  0  0  0  0  0  0
   -3.6912   -5.4168   -3.1652 H   0  0  0  0  0  0  0  0  0  0  0  0
   -1.5427   -4.2319   -2.9916 H   0  0  0  0  0  0  0  0  0  0  0  0
   -1.9862    0.9545    4.2324 H   0  0  0  0  0  0  0  0  0  0  0  0
   -2.4967    1.4644    6.5552 H   0  0  0  0  0  0  0  0  0  0  0  0
   -1.9458    2.1975   10.1856 H   0  0  0  0  0  0  0  0  0  0  0  0
   -1.1271    1.2642    8.9137 H   0  0  0  0  0  0  0  0  0  0  0  0
   -2.8737    1.6668    8.7687 H   0  0  0  0  0  0  0  0  0  0  0  0
    0.1856    4.7870    6.4264 H   0  0  0  0  0  0  0  0  0  0  0  0
    0.7581    4.2331    4.0974 H   0  0  0  0  0  0  0  0  0  0  0  0
   -1.3672    4.5020    2.2024 H   0  0  0  0  0  0  0  0  0  0  0  0
   -0.7310    6.1100    0.4735 H   0  0  0  0  0  0  0  0  0  0  0  0
   -0.8599    6.2077   -1.9839 H   0  0  0  0  0  0  0  0  0  0  0  0
    0.1300    7.3856   -2.8795 H   0  0  0  0  0  0  0  0  0  0  0  0
   -0.2574    7.6902   -1.1748 H   0  0  0  0  0  0  0  0  0  0  0  0
    2.6653    3.7096   -0.5209 H   0  0  0  0  0  0  0  0  0  0  0  0
    2.0258    2.0946    1.2354 H   0  0  0  0  0  0  0  0  0  0  0  0
    1.4049    1.1885    4.8272 H   0  0  0  0  0  0  0  0  0  0  0  0
    4.1983    2.1233    7.9471 H   0  0  0  0  0  0  0  0  0  0  0  0
    3.0504    1.5082    9.1763 H   0  0  0  0  0  0  0  0  0  0  0  0
    1.4426    3.3095    8.5876 H   0  0  0  0  0  0  0  0  0  0  0  0
    2.9951    4.0060    9.0622 H   0  0  0  0  0  0  0  0  0  0  0  0
    2.5521    3.9158    7.3497 H   0  0  0  0  0  0  0  0  0  0  0  0
    0.9056   -1.7700    8.5013 H   0  0  0  0  0  0  0  0  0  0  0  0
   -2.7107   -6.5109    6.5189 H   0  0  0  0  0  0  0  0  0  0  0  0
   -3.2343   -8.2646    8.1991 H   0  0  0  0  0  0  0  0  0  0  0  0
   -2.5219   -9.4186   10.2605 H   0  0  0  0  0  0  0  0  0  0  0  0
   -3.2835   -8.1800   11.2539 H   0  0  0  0  0  0  0  0  0  0  0  0
   -1.5775   -8.5528   11.4857 H   0  0  0  0  0  0  0  0  0  0  0  0
   -0.7263   -6.3449   11.0706 H   0  0  0  0  0  0  0  0  0  0  0  0
  1  2  2  0  0  0  0
  2  3  1  0  0  0  0
  3  4  2  0  0  0  0
  3  5  1  0  0  0  0
  5  6  2  0  0  0  0
  6  7  1  0  0  0  0
  7  8  2  0  0  0  0
  8  9  1  0  0  0  0
  9 10  2  0  0  0  0
 10 11  1  0  0  0  0
 11 12  2  0  0  0  0
 12 13  1  0  0  0  0
 13 14  3  0  0  0  0
 12 15  1  0  0  0  0
 15 16  3  0  0  0  0
  8 17  1  0  0  0  0
 17 18  1  0  0  0  0
 18 19  1  0  0  0  0
 19 20  2  0  0  0  0
 20 21  1  0  0  0  0
 21 22  1  0  0  0  0
 21 23  1  0  0  0  0
  1 24  1  0  0  0  0
 24 25  2  0  0  0  0
 25 26  1  0  0  0  0
 26 27  1  0  0  0  0
 26 28  2  0  0  0  0
 28 29  1  0  0  0  0
 29 30  1  0  0  0  0
 30 31  2  0  0  0  0
 31 32  1  0  0  0  0
 32 33  1  0  0  0  0
 28 34  1  0  0  0  0
 34 35  2  0  0  0  0
 35 36  1  0  0  0  0
 36 37  1  0  0  0  0
 37 38  2  0  0  0  0
 38 39  1  0  0  0  0
 39 40  2  0  0  0  0
 40 41  1  0  0  0  0
 41 42  1  0  0  0  0
 40 43  1  0  0  0  0
 43 44  2  0  0  0  0
 36 45  1  0  0  0  0
 45 46  2  0  0  0  0
 46 47  1  0  0  0  0
 47 48  2  0  0  0  0
 48 49  1  0  0  0  0
 49 50  1  0  0  0  0
 48 51  1  0  0  0  0
 51 52  2  0  0  0  0
 35 53  1  0  0  0  0
 53 54  1  0  0  0  0
 54 55  1  0  0  0  0
 55 56  2  0  0  0  0
 56 57  1  0  0  0  0
 57 58  1  0  0  0  0
 58 59  2  0  0  0  0
 59 60  1  0  0  0  0
 60 61  2  0  0  0  0
 61 62  1  0  0  0  0
 62 63  1  0  0  0  0
 61 64  1  0  0  0  0
 64 65  2  0  0  0  0
 57 66  1  0  0  0  0
 66 67  2  0  0  0  0
 67 68  1  0  0  0  0
 68 69  2  0  0  0  0
 69 70  1  0  0  0  0
 70 71  1  0  0  0  0
 69 72  1  0  0  0  0
 72 73  2  0  0  0  0
 56 74  1  0  0  0  0
 74 75  1  0  0  0  0
 55 76  1  0  0  0  0
 76 77  2  0  0  0  0
 77 78  1  0  0  0  0
 78 79  1  0  0  0  0
 79 80  2  0  0  0  0
 79 81  1  0  0  0  0
 81 82  1  0  0  0  0
 82 83  1  0  0  0  0
 78 84  2  0  0  0  0
 84 85  1  0  0  0  0
 84 86  1  0  0  0  0
 86 87  2  0  0  0  0
 87 88  1  0  0  0  0
 88 89  2  0  0  0  0
 88 90  1  0  0  0  0
 90 91  2  0  0  0  0
 91 92  1  0  0  0  0
 92 93  2  0  0  0  0
 93 94  1  0  0  0  0
 93 95  1  0  0  0  0
 95 96  2  0  0  0  0
 96 97  1  0  0  0  0
 97 98  2  0  0  0  0
 98 99  1  0  0  0  0
 99100  3  0  0  0  0
 98101  1  0  0  0  0
101102  3  0  0  0  0
 11  2  1  0  0  0  0
 23 17  1  0  0  0  0
 30 24  1  0  0  0  0
 75 34  1  0  0  0  0
 85 76  1  0  0  0  0
 97 87  1  0  0  0  0
 10  5  1  0  0  0  0
 22 18  1  0  0  0  0
 33 29  2  0  0  0  0
 44 37  1  0  0  0  0
 52 45  1  0  0  0  0
 74 53  2  0  0  0  0
 96 90  1  0  0  0  0
 23  7  1  0  0  0  0
 65 58  1  0  0  0  0
 73 66  1  0  0  0  0
  1103  1  0  0  0  0
  6104  1  0  0  0  0
  9105  1  0  0  0  0
 17106  1  0  0  0  0
 18107  1  0  0  0  0
 19108  1  0  0  0  0
 20109  1  0  0  0  0
 21110  1  0  0  0  0
 22111  1  0  0  0  0
 22112  1  0  0  0  0
 23113  1  0  0  0  0
 25114  1  0  0  0  0
 38115  1  0  0  0  0
 39116  1  0  0  0  0
 42117  1  0  0  0  0
 42118  1  0  0  0  0
 42119  1  0  0  0  0
 43120  1  0  0  0  0
 44121  1  0  0  0  0
 46122  1  0  0  0  0
 47123  1  0  0  0  0
 50124  1  0  0  0  0
 50125  1  0  0  0  0
 50126  1  0  0  0  0
 51127  1  0  0  0  0
 52128  1  0  0  0  0
 59129  1  0  0  0  0
 60130  1  0  0  0  0
 63131  1  0  0  0  0
 63132  1  0  0  0  0
 63133  1  0  0  0  0
 64134  1  0  0  0  0
 65135  1  0  0  0  0
 67136  1  0  0  0  0
 68137  1  0  0  0  0
 71138  1  0  0  0  0
 71139  1  0  0  0  0
 71140  1  0  0  0  0
 72141  1  0  0  0  0
 73142  1  0  0  0  0
 77143  1  0  0  0  0
 82144  1  0  0  0  0
 82145  1  0  0  0  0
 83146  1  0  0  0  0
 83147  1  0  0  0  0
 83148  1  0  0  0  0
 86149  1  0  0  0  0
 91150  1  0  0  0  0
 92151  1  0  0  0  0
 94152  1  0  0  0  0
 94153  1  0  0  0  0
 94154  1  0  0  0  0
 95155  1  0  0  0  0
M  END
