
  xtb     02072213083D
 energy: -432.760112269793 gnorm: 0.000456862589 xtb: 6.4.1 (unknown)
264287  0     0  0            999 V2000
   -4.7205    4.1187    5.8661 C   0  0  0  0  0  0  0  0  0  0  0  0
   -5.3316    5.0262    5.0593 C   0  0  0  0  0  0  0  0  0  0  0  0
   -5.1471    6.4699    5.3921 C   0  0  0  0  0  0  0  0  0  0  0  0
   -4.9853    6.9474    6.4933 O   0  0  0  0  0  0  0  0  0  0  0  0
   -5.0707    7.1532    4.0880 C   0  0  0  0  0  0  0  0  0  0  0  0
   -4.7429    8.4855    3.8415 C   0  0  0  0  0  0  0  0  0  0  0  0
   -4.6261    8.8003    2.5083 C   0  0  0  0  0  0  0  0  0  0  0  0
   -4.8380    7.8661    1.4858 C   0  0  0  0  0  0  0  0  0  0  0  0
   -5.1923    6.5575    1.7090 C   0  0  0  0  0  0  0  0  0  0  0  0
   -5.3105    6.2190    3.0569 C   0  0  0  0  0  0  0  0  0  0  0  0
   -5.7258    4.9604    3.6684 C   0  0  0  0  0  0  0  0  0  0  0  0
   -6.5398    4.0399    3.0637 C   0  0  0  0  0  0  0  0  0  0  0  0
   -6.8093    4.0388    1.6828 C   0  0  0  0  0  0  0  0  0  0  0  0
   -7.0360    3.9544    0.5589 N   0  0  0  0  0  0  0  0  0  0  0  0
   -7.3360    3.1157    3.7721 C   0  0  0  0  0  0  0  0  0  0  0  0
   -8.0997    2.4368    4.2956 N   0  0  0  0  0  0  0  0  0  0  0  0
   -4.5315    8.8627    0.3980 C   0  0  0  0  0  0  0  0  0  0  0  0
   -3.1494    8.7671   -0.2920 C   0  0  0  0  0  0  0  0  0  0  0  0
   -2.2158    8.1299    0.7082 C   0  0  0  0  0  0  0  0  0  0  0  0
   -2.0000    9.0113    1.6759 C   0  0  0  0  0  0  0  0  0  0  0  0
   -2.7863   10.2569    1.3496 C   0  0  0  0  0  0  0  0  0  0  0  0
   -2.7043   10.2340   -0.1853 C   0  0  0  0  0  0  0  0  0  0  0  0
   -4.2832    9.9023    1.5366 C   0  0  0  0  0  0  0  0  0  0  0  0
   -4.2210    2.8215    5.5626 C   0  0  0  0  0  0  0  0  0  0  0  0
   -2.9148    2.4234    5.8632 C   0  0  0  0  0  0  0  0  0  0  0  0
   -1.9954    3.1975    6.5463 N   0  0  0  0  0  0  0  0  0  0  0  0
   -1.9153    4.5795    6.2860 C   0  0  0  0  0  0  0  0  0  0  0  0
   -2.0069    5.0548    4.9789 C   0  0  0  0  0  0  0  0  0  0  0  0
   -1.9751    6.4102    4.7278 C   0  0  0  0  0  0  0  0  0  0  0  0
   -1.8447    7.3095    5.7800 C   0  0  0  0  0  0  0  0  0  0  0  0
   -1.8379    9.0381    5.4158 S   0  0  0  0  0  0  0  0  0  0  0  0
   -2.7092    9.7084    6.8661 C   0  0  0  0  0  0  0  0  0  0  0  0
   -1.7142    6.8385    7.0800 C   0  0  0  0  0  0  0  0  0  0  0  0
   -1.7530    5.4835    7.3315 C   0  0  0  0  0  0  0  0  0  0  0  0
   -1.0345    2.5722    7.3469 C   0  0  0  0  0  0  0  0  0  0  0  0
   -1.3395    1.3859    8.0167 C   0  0  0  0  0  0  0  0  0  0  0  0
   -0.4012    0.7803    8.8224 C   0  0  0  0  0  0  0  0  0  0  0  0
    0.8531    1.3559    8.9965 C   0  0  0  0  0  0  0  0  0  0  0  0
    1.9829    0.5266   10.0726 S   0  0  0  0  0  0  0  0  0  0  0  0
    3.1115    1.8574   10.5799 C   0  0  0  0  0  0  0  0  0  0  0  0
    1.1665    2.5307    8.3274 C   0  0  0  0  0  0  0  0  0  0  0  0
    0.2341    3.1262    7.5040 C   0  0  0  0  0  0  0  0  0  0  0  0
   -2.5958    1.1993    5.2420 C   0  0  0  0  0  0  0  0  0  0  0  0
   -1.0954    0.3696    4.9753 S   0  0  0  0  0  0  0  0  0  0  0  0
   -1.8954   -0.6804    3.8098 C   0  0  0  0  0  0  0  0  0  0  0  0
   -3.2797   -0.5076    3.7915 C   0  0  0  0  0  0  0  0  0  0  0  0
   -4.1114   -1.3834    3.1346 N   0  0  0  0  0  0  0  0  0  0  0  0
   -5.3699   -0.9933    2.6447 C   0  0  0  0  0  0  0  0  0  0  0  0
   -5.5295    0.1843    1.9220 C   0  0  0  0  0  0  0  0  0  0  0  0
   -6.7716    0.5340    1.4244 C   0  0  0  0  0  0  0  0  0  0  0  0
   -7.8691   -0.2863    1.6478 C   0  0  0  0  0  0  0  0  0  0  0  0
   -9.4835    0.0380    1.0151 S   0  0  0  0  0  0  0  0  0  0  0  0
   -9.5335    1.8459    0.8787 C   0  0  0  0  0  0  0  0  0  0  0  0
   -7.7076   -1.4691    2.3662 C   0  0  0  0  0  0  0  0  0  0  0  0
   -6.4731   -1.8189    2.8607 C   0  0  0  0  0  0  0  0  0  0  0  0
   -3.7596   -2.7452    3.0564 C   0  0  0  0  0  0  0  0  0  0  0  0
   -3.1518   -3.3945    4.1264 C   0  0  0  0  0  0  0  0  0  0  0  0
   -2.8298   -4.7349    4.0489 C   0  0  0  0  0  0  0  0  0  0  0  0
   -3.1145   -5.4527    2.8950 C   0  0  0  0  0  0  0  0  0  0  0  0
   -2.7514   -7.1691    2.6930 S   0  0  0  0  0  0  0  0  0  0  0  0
   -2.1445   -7.6852    4.3254 C   0  0  0  0  0  0  0  0  0  0  0  0
   -3.7154   -4.8060    1.8168 C   0  0  0  0  0  0  0  0  0  0  0  0
   -4.0347   -3.4684    1.8960 C   0  0  0  0  0  0  0  0  0  0  0  0
   -3.6540    0.6240    4.5488 C   0  0  0  0  0  0  0  0  0  0  0  0
   -5.0578    1.6243    4.5814 S   0  0  0  0  0  0  0  0  0  0  0  0
   -1.2136   -1.2565    2.6979 C   0  0  0  0  0  0  0  0  0  0  0  0
    0.0238   -1.8463    2.5383 C   0  0  0  0  0  0  0  0  0  0  0  0
    0.8085   -2.3682    3.5744 N   0  0  0  0  0  0  0  0  0  0  0  0
    1.4622   -1.4919    4.4469 C   0  0  0  0  0  0  0  0  0  0  0  0
    1.7038   -1.8478    5.7728 C   0  0  0  0  0  0  0  0  0  0  0  0
    2.4507   -1.0283    6.5940 C   0  0  0  0  0  0  0  0  0  0  0  0
    2.9645    0.1641    6.1008 C   0  0  0  0  0  0  0  0  0  0  0  0
    4.0469    1.1901    7.0501 S   0  0  0  0  0  0  0  0  0  0  0  0
    4.9619   -0.0435    8.0284 C   0  0  0  0  0  0  0  0  0  0  0  0
    2.6453    0.5718    4.8113 C   0  0  0  0  0  0  0  0  0  0  0  0
    1.8995   -0.2471    3.9909 C   0  0  0  0  0  0  0  0  0  0  0  0
    1.1204   -3.7266    3.4834 C   0  0  0  0  0  0  0  0  0  0  0  0
    2.2716   -4.2732    4.0549 C   0  0  0  0  0  0  0  0  0  0  0  0
    2.5419   -5.6188    3.9354 C   0  0  0  0  0  0  0  0  0  0  0  0
    1.6879   -6.4582    3.2246 C   0  0  0  0  0  0  0  0  0  0  0  0
    2.1126   -8.1730    3.1573 S   0  0  0  0  0  0  0  0  0  0  0  0
    0.9739   -8.8468    1.9135 C   0  0  0  0  0  0  0  0  0  0  0  0
    0.5553   -5.9195    2.6327 C   0  0  0  0  0  0  0  0  0  0  0  0
    0.2726   -4.5760    2.7714 C   0  0  0  0  0  0  0  0  0  0  0  0
    0.3636   -1.9552    1.1673 C   0  0  0  0  0  0  0  0  0  0  0  0
    1.7731   -2.4079    0.2806 S   0  0  0  0  0  0  0  0  0  0  0  0
    1.0576   -1.8583   -1.2519 C   0  0  0  0  0  0  0  0  0  0  0  0
   -0.2434   -1.4365   -1.0640 C   0  0  0  0  0  0  0  0  0  0  0  0
   -1.2033   -0.9818   -2.0059 N   0  0  0  0  0  0  0  0  0  0  0  0
   -2.1156   -2.0478   -2.2737 C   0  0  0  0  0  0  0  0  0  0  0  0
   -3.3768   -2.1287   -1.6841 C   0  0  0  0  0  0  0  0  0  0  0  0
   -4.1874   -3.2152   -1.9284 C   0  0  0  0  0  0  0  0  0  0  0  0
   -3.7557   -4.2555   -2.7497 C   0  0  0  0  0  0  0  0  0  0  0  0
   -4.8808   -5.5966   -2.9682 S   0  0  0  0  0  0  0  0  0  0  0  0
   -4.0110   -6.7208   -4.0969 C   0  0  0  0  0  0  0  0  0  0  0  0
   -2.4919   -4.1899   -3.3188 C   0  0  0  0  0  0  0  0  0  0  0  0
   -1.6825   -3.0967   -3.0723 C   0  0  0  0  0  0  0  0  0  0  0  0
   -1.6890    0.3107   -1.7639 C   0  0  0  0  0  0  0  0  0  0  0  0
   -0.9134    1.2266   -1.0485 C   0  0  0  0  0  0  0  0  0  0  0  0
   -1.3837    2.4918   -0.7764 C   0  0  0  0  0  0  0  0  0  0  0  0
   -2.6410    2.8897   -1.2186 C   0  0  0  0  0  0  0  0  0  0  0  0
   -3.1743    4.5120   -0.7499 S   0  0  0  0  0  0  0  0  0  0  0  0
   -4.6208    4.8141   -1.8032 C   0  0  0  0  0  0  0  0  0  0  0  0
   -3.3911    2.0125   -1.9871 C   0  0  0  0  0  0  0  0  0  0  0  0
   -2.9123    0.7476   -2.2691 C   0  0  0  0  0  0  0  0  0  0  0  0
   -0.6043   -1.4869    0.3016 C   0  0  0  0  0  0  0  0  0  0  0  0
   -1.9859   -0.9064    1.1438 S   0  0  0  0  0  0  0  0  0  0  0  0
    1.9799   -1.8681   -2.3445 C   0  0  0  0  0  0  0  0  0  0  0  0
    1.8962   -1.7135   -3.7226 C   0  0  0  0  0  0  0  0  0  0  0  0
    0.7628   -1.4672   -4.5060 N   0  0  0  0  0  0  0  0  0  0  0  0
    0.7066   -2.2385   -5.6831 C   0  0  0  0  0  0  0  0  0  0  0  0
    0.9528   -3.6116   -5.5968 C   0  0  0  0  0  0  0  0  0  0  0  0
    0.9661   -4.3936   -6.7285 C   0  0  0  0  0  0  0  0  0  0  0  0
    0.7303   -3.8289   -7.9804 C   0  0  0  0  0  0  0  0  0  0  0  0
    0.8025   -4.9263   -9.3612 S   0  0  0  0  0  0  0  0  0  0  0  0
    0.3788   -3.8780  -10.7803 C   0  0  0  0  0  0  0  0  0  0  0  0
    0.4774   -2.4673   -8.0724 C   0  0  0  0  0  0  0  0  0  0  0  0
    0.4707   -1.6815   -6.9363 C   0  0  0  0  0  0  0  0  0  0  0  0
    0.1263   -0.2184   -4.4513 C   0  0  0  0  0  0  0  0  0  0  0  0
   -1.1504   -0.0684   -4.9950 C   0  0  0  0  0  0  0  0  0  0  0  0
   -1.7582    1.1655   -5.0079 C   0  0  0  0  0  0  0  0  0  0  0  0
   -1.1174    2.2789   -4.4665 C   0  0  0  0  0  0  0  0  0  0  0  0
   -1.9903    3.8094   -4.5562 S   0  0  0  0  0  0  0  0  0  0  0  0
   -0.9439    4.9711   -3.6362 C   0  0  0  0  0  0  0  0  0  0  0  0
    0.1361    2.1288   -3.8962 C   0  0  0  0  0  0  0  0  0  0  0  0
    0.7521    0.8907   -3.8938 C   0  0  0  0  0  0  0  0  0  0  0  0
    3.1717   -1.8645   -4.3263 C   0  0  0  0  0  0  0  0  0  0  0  0
    3.7162   -1.8746   -5.9653 S   0  0  0  0  0  0  0  0  0  0  0  0
    5.3956   -2.0910   -5.4365 C   0  0  0  0  0  0  0  0  0  0  0  0
    5.4950   -2.2183   -4.0410 C   0  0  0  0  0  0  0  0  0  0  0  0
    6.5929   -2.5302   -3.2822 N   0  0  0  0  0  0  0  0  0  0  0  0
    6.5456   -2.0831   -1.9362 C   0  0  0  0  0  0  0  0  0  0  0  0
    6.5554   -2.9915   -0.8846 C   0  0  0  0  0  0  0  0  0  0  0  0
    6.3216   -2.5589    0.4072 C   0  0  0  0  0  0  0  0  0  0  0  0
    6.0837   -1.2128    0.6567 C   0  0  0  0  0  0  0  0  0  0  0  0
    5.6547   -0.5752    2.2438 S   0  0  0  0  0  0  0  0  0  0  0  0
    5.0195   -2.0325    3.1200 C   0  0  0  0  0  0  0  0  0  0  0  0
    6.1732   -0.2917   -0.3863 C   0  0  0  0  0  0  0  0  0  0  0  0
    6.3974   -0.7221   -1.6745 C   0  0  0  0  0  0  0  0  0  0  0  0
    7.6757   -3.3003   -3.7138 C   0  0  0  0  0  0  0  0  0  0  0  0
    7.5206   -4.2942   -4.6772 C   0  0  0  0  0  0  0  0  0  0  0  0
    8.6124   -4.9894   -5.1591 C   0  0  0  0  0  0  0  0  0  0  0  0
    9.8841   -4.7123   -4.6716 C   0  0  0  0  0  0  0  0  0  0  0  0
   11.3513   -5.4869   -5.2539 S   0  0  0  0  0  0  0  0  0  0  0  0
   10.8468   -6.2502   -6.8232 C   0  0  0  0  0  0  0  0  0  0  0  0
   10.0316   -3.7747   -3.6477 C   0  0  0  0  0  0  0  0  0  0  0  0
    8.9459   -3.0778   -3.1742 C   0  0  0  0  0  0  0  0  0  0  0  0
    4.2177   -2.0692   -3.4473 C   0  0  0  0  0  0  0  0  0  0  0  0
    3.6449   -2.1237   -1.8241 S   0  0  0  0  0  0  0  0  0  0  0  0
    6.4359   -2.1043   -6.3784 C   0  0  0  0  0  0  0  0  0  0  0  0
    7.7572   -1.7712   -6.1485 C   0  0  0  0  0  0  0  0  0  0  0  0
    8.2181   -0.9685   -5.0991 C   0  0  0  0  0  0  0  0  0  0  0  0
    8.4833   -0.2003   -4.2876 N   0  0  0  0  0  0  0  0  0  0  0  0
    8.5192   -2.2081   -7.2850 C   0  0  0  0  0  0  0  0  0  0  0  0
    9.8835   -2.2531   -7.4019 C   0  0  0  0  0  0  0  0  0  0  0  0
   10.4975   -2.8306   -8.5280 C   0  0  0  0  0  0  0  0  0  0  0  0
   10.9960   -3.3364   -9.4297 N   0  0  0  0  0  0  0  0  0  0  0  0
   10.7313   -1.8028   -6.3745 C   0  0  0  0  0  0  0  0  0  0  0  0
   11.4546   -1.4694   -5.5487 N   0  0  0  0  0  0  0  0  0  0  0  0
    7.7034   -2.6879   -8.2362 O   0  0  0  0  0  0  0  0  0  0  0  0
    6.3335   -2.5838   -7.8114 C   0  0  0  0  0  0  0  0  0  0  0  0
    5.6847   -3.9599   -7.9480 C   0  0  0  0  0  0  0  0  0  0  0  0
    5.6344   -1.5575   -8.7097 C   0  0  0  0  0  0  0  0  0  0  0  0
   -4.3761    4.5285    6.8117 H   0  0  0  0  0  0  0  0  0  0  0  0
   -4.5970    9.1840    4.6485 H   0  0  0  0  0  0  0  0  0  0  0  0
   -5.3382    5.8411    0.9192 H   0  0  0  0  0  0  0  0  0  0  0  0
   -5.3381    9.0623   -0.3053 H   0  0  0  0  0  0  0  0  0  0  0  0
   -3.1673    8.3183   -1.2819 H   0  0  0  0  0  0  0  0  0  0  0  0
   -1.8730    7.1143    0.6332 H   0  0  0  0  0  0  0  0  0  0  0  0
   -1.4303    8.8944    2.5792 H   0  0  0  0  0  0  0  0  0  0  0  0
   -2.4719   11.1648    1.8565 H   0  0  0  0  0  0  0  0  0  0  0  0
   -1.6926   10.3949   -0.5543 H   0  0  0  0  0  0  0  0  0  0  0  0
   -3.3876   10.9315   -0.6682 H   0  0  0  0  0  0  0  0  0  0  0  0
   -4.9173   10.7860    1.5688 H   0  0  0  0  0  0  0  0  0  0  0  0
   -2.1143    4.3567    4.1613 H   0  0  0  0  0  0  0  0  0  0  0  0
   -2.0570    6.7780    3.7162 H   0  0  0  0  0  0  0  0  0  0  0  0
   -2.0256    9.8200    7.7027 H   0  0  0  0  0  0  0  0  0  0  0  0
   -3.0841   10.6840    6.5721 H   0  0  0  0  0  0  0  0  0  0  0  0
   -3.5304    9.0416    7.1144 H   0  0  0  0  0  0  0  0  0  0  0  0
   -1.5928    7.5245    7.9027 H   0  0  0  0  0  0  0  0  0  0  0  0
   -1.6679    5.1171    8.3438 H   0  0  0  0  0  0  0  0  0  0  0  0
   -2.3229    0.9506    7.9193 H   0  0  0  0  0  0  0  0  0  0  0  0
   -0.6393   -0.1353    9.3418 H   0  0  0  0  0  0  0  0  0  0  0  0
    3.6971    1.4550   11.4007 H   0  0  0  0  0  0  0  0  0  0  0  0
    2.5286    2.7081   10.9193 H   0  0  0  0  0  0  0  0  0  0  0  0
    3.7654    2.1328    9.7575 H   0  0  0  0  0  0  0  0  0  0  0  0
    2.1404    2.9814    8.4218 H   0  0  0  0  0  0  0  0  0  0  0  0
    0.4946    4.0291    6.9730 H   0  0  0  0  0  0  0  0  0  0  0  0
   -4.6715    0.8107    1.7214 H   0  0  0  0  0  0  0  0  0  0  0  0
   -6.8697    1.4383    0.8465 H   0  0  0  0  0  0  0  0  0  0  0  0
   -8.8810    2.1960    0.0849 H   0  0  0  0  0  0  0  0  0  0  0  0
   -9.2537    2.2775    1.8348 H   0  0  0  0  0  0  0  0  0  0  0  0
  -10.5638    2.0949    0.6447 H   0  0  0  0  0  0  0  0  0  0  0  0
   -8.5645   -2.1022    2.5347 H   0  0  0  0  0  0  0  0  0  0  0  0
   -6.3524   -2.7323    3.4239 H   0  0  0  0  0  0  0  0  0  0  0  0
   -2.9334   -2.8503    5.0332 H   0  0  0  0  0  0  0  0  0  0  0  0
   -2.3591   -5.2042    4.8972 H   0  0  0  0  0  0  0  0  0  0  0  0
   -1.2040   -7.1886    4.5499 H   0  0  0  0  0  0  0  0  0  0  0  0
   -1.9897   -8.7580    4.2568 H   0  0  0  0  0  0  0  0  0  0  0  0
   -2.8961   -7.4733    5.0798 H   0  0  0  0  0  0  0  0  0  0  0  0
   -3.9281   -5.3617    0.9162 H   0  0  0  0  0  0  0  0  0  0  0  0
   -4.5021   -2.9737    1.0592 H   0  0  0  0  0  0  0  0  0  0  0  0
    1.3093   -2.7768    6.1560 H   0  0  0  0  0  0  0  0  0  0  0  0
    2.6279   -1.3225    7.6162 H   0  0  0  0  0  0  0  0  0  0  0  0
    5.2649   -0.8571    7.3769 H   0  0  0  0  0  0  0  0  0  0  0  0
    4.3514   -0.4076    8.8497 H   0  0  0  0  0  0  0  0  0  0  0  0
    5.8373    0.4683    8.4157 H   0  0  0  0  0  0  0  0  0  0  0  0
    3.0184    1.5159    4.4462 H   0  0  0  0  0  0  0  0  0  0  0  0
    1.6883    0.0562    2.9764 H   0  0  0  0  0  0  0  0  0  0  0  0
    2.9645   -3.6414    4.5878 H   0  0  0  0  0  0  0  0  0  0  0  0
    3.4302   -6.0338    4.3868 H   0  0  0  0  0  0  0  0  0  0  0  0
    1.2694   -9.8828    1.7793 H   0  0  0  0  0  0  0  0  0  0  0  0
   -0.0515   -8.7999    2.2682 H   0  0  0  0  0  0  0  0  0  0  0  0
    1.0898   -8.3036    0.9804 H   0  0  0  0  0  0  0  0  0  0  0  0
   -0.1259   -6.5315    2.0649 H   0  0  0  0  0  0  0  0  0  0  0  0
   -0.6282   -4.1879    2.3204 H   0  0  0  0  0  0  0  0  0  0  0  0
   -3.7198   -1.3450   -1.0253 H   0  0  0  0  0  0  0  0  0  0  0  0
   -5.1665   -3.2769   -1.4774 H   0  0  0  0  0  0  0  0  0  0  0  0
   -4.6933   -7.5481   -4.2657 H   0  0  0  0  0  0  0  0  0  0  0  0
   -3.8028   -6.2169   -5.0363 H   0  0  0  0  0  0  0  0  0  0  0  0
   -3.0996   -7.0847   -3.6317 H   0  0  0  0  0  0  0  0  0  0  0  0
   -2.1192   -4.9792   -3.9516 H   0  0  0  0  0  0  0  0  0  0  0  0
   -0.6959   -3.0562   -3.5003 H   0  0  0  0  0  0  0  0  0  0  0  0
    0.0694    0.9470   -0.6993 H   0  0  0  0  0  0  0  0  0  0  0  0
   -0.7801    3.1811   -0.2039 H   0  0  0  0  0  0  0  0  0  0  0  0
   -5.4656    4.2261   -1.4544 H   0  0  0  0  0  0  0  0  0  0  0  0
   -4.8435    5.8723   -1.7006 H   0  0  0  0  0  0  0  0  0  0  0  0
   -4.3682    4.5851   -2.8344 H   0  0  0  0  0  0  0  0  0  0  0  0
   -4.3554    2.2983   -2.3743 H   0  0  0  0  0  0  0  0  0  0  0  0
   -3.5063    0.0917   -2.8856 H   0  0  0  0  0  0  0  0  0  0  0  0
    1.1513   -4.0606   -4.6337 H   0  0  0  0  0  0  0  0  0  0  0  0
    1.1631   -5.4526   -6.6588 H   0  0  0  0  0  0  0  0  0  0  0  0
    0.3794   -4.5395  -11.6412 H   0  0  0  0  0  0  0  0  0  0  0  0
   -0.6107   -3.4518  -10.6436 H   0  0  0  0  0  0  0  0  0  0  0  0
    1.1296   -3.1039  -10.9106 H   0  0  0  0  0  0  0  0  0  0  0  0
    0.3013   -1.9964   -9.0258 H   0  0  0  0  0  0  0  0  0  0  0  0
    0.3018   -0.6196   -7.0290 H   0  0  0  0  0  0  0  0  0  0  0  0
   -1.6609   -0.9278   -5.4028 H   0  0  0  0  0  0  0  0  0  0  0  0
   -2.7405    1.2845   -5.4389 H   0  0  0  0  0  0  0  0  0  0  0  0
    0.0041    5.1052   -4.1488 H   0  0  0  0  0  0  0  0  0  0  0  0
   -0.8025    4.6109   -2.6217 H   0  0  0  0  0  0  0  0  0  0  0  0
   -1.4893    5.9097   -3.6213 H   0  0  0  0  0  0  0  0  0  0  0  0
    0.6556    2.9662   -3.4597 H   0  0  0  0  0  0  0  0  0  0  0  0
    1.7380    0.7940   -3.4627 H   0  0  0  0  0  0  0  0  0  0  0  0
    6.7130   -4.0408   -1.0856 H   0  0  0  0  0  0  0  0  0  0  0  0
    6.3051   -3.2817    1.2067 H   0  0  0  0  0  0  0  0  0  0  0  0
    4.3051   -2.5515    2.4870 H   0  0  0  0  0  0  0  0  0  0  0  0
    4.5193   -1.6418    4.0014 H   0  0  0  0  0  0  0  0  0  0  0  0
    5.8343   -2.6872    3.4157 H   0  0  0  0  0  0  0  0  0  0  0  0
    6.0386    0.7574   -0.1743 H   0  0  0  0  0  0  0  0  0  0  0  0
    6.4468   -0.0189   -2.4918 H   0  0  0  0  0  0  0  0  0  0  0  0
    6.5325   -4.5277   -5.0465 H   0  0  0  0  0  0  0  0  0  0  0  0
    8.4613   -5.7447   -5.9143 H   0  0  0  0  0  0  0  0  0  0  0  0
   10.3835   -5.5061   -7.4646 H   0  0  0  0  0  0  0  0  0  0  0  0
   11.7658   -6.6011   -7.2821 H   0  0  0  0  0  0  0  0  0  0  0  0
   10.1835   -7.0912   -6.6423 H   0  0  0  0  0  0  0  0  0  0  0  0
   11.0168   -3.5763   -3.2580 H   0  0  0  0  0  0  0  0  0  0  0  0
    9.0751   -2.3226   -2.4149 H   0  0  0  0  0  0  0  0  0  0  0  0
    6.2420   -4.6972   -7.3753 H   0  0  0  0  0  0  0  0  0  0  0  0
    4.6581   -3.9258   -7.5937 H   0  0  0  0  0  0  0  0  0  0  0  0
    5.6921   -4.2577   -8.9929 H   0  0  0  0  0  0  0  0  0  0  0  0
    4.5774   -1.5045   -8.4661 H   0  0  0  0  0  0  0  0  0  0  0  0
    5.7517   -1.8581   -9.7476 H   0  0  0  0  0  0  0  0  0  0  0  0
    6.0818   -0.5745   -8.5766 H   0  0  0  0  0  0  0  0  0  0  0  0
  1  2  2  0  0  0  0
  2  3  1  0  0  0  0
  3  4  2  0  0  0  0
  3  5  1  0  0  0  0
  5  6  2  0  0  0  0
  6  7  1  0  0  0  0
  7  8  2  0  0  0  0
  8  9  1  0  0  0  0
  9 10  2  0  0  0  0
 10 11  1  0  0  0  0
 11 12  2  0  0  0  0
 12 13  1  0  0  0  0
 13 14  3  0  0  0  0
 12 15  1  0  0  0  0
 15 16  3  0  0  0  0
  8 17  1  0  0  0  0
 17 18  1  0  0  0  0
 18 19  1  0  0  0  0
 19 20  2  0  0  0  0
 20 21  1  0  0  0  0
 21 22  1  0  0  0  0
 21 23  1  0  0  0  0
  1 24  1  0  0  0  0
 24 25  2  0  0  0  0
 25 26  1  0  0  0  0
 26 27  1  0  0  0  0
 27 28  2  0  0  0  0
 28 29  1  0  0  0  0
 29 30  2  0  0  0  0
 30 31  1  0  0  0  0
 31 32  1  0  0  0  0
 30 33  1  0  0  0  0
 33 34  2  0  0  0  0
 26 35  1  0  0  0  0
 35 36  2  0  0  0  0
 36 37  1  0  0  0  0
 37 38  2  0  0  0  0
 38 39  1  0  0  0  0
 39 40  1  0  0  0  0
 38 41  1  0  0  0  0
 41 42  2  0  0  0  0
 25 43  1  0  0  0  0
 43 44  1  0  0  0  0
 44 45  1  0  0  0  0
 45 46  2  0  0  0  0
 46 47  1  0  0  0  0
 47 48  1  0  0  0  0
 48 49  2  0  0  0  0
 49 50  1  0  0  0  0
 50 51  2  0  0  0  0
 51 52  1  0  0  0  0
 52 53  1  0  0  0  0
 51 54  1  0  0  0  0
 54 55  2  0  0  0  0
 47 56  1  0  0  0  0
 56 57  2  0  0  0  0
 57 58  1  0  0  0  0
 58 59  2  0  0  0  0
 59 60  1  0  0  0  0
 60 61  1  0  0  0  0
 59 62  1  0  0  0  0
 62 63  2  0  0  0  0
 46 64  1  0  0  0  0
 64 65  1  0  0  0  0
 45 66  1  0  0  0  0
 66 67  2  0  0  0  0
 67 68  1  0  0  0  0
 68 69  1  0  0  0  0
 69 70  2  0  0  0  0
 70 71  1  0  0  0  0
 71 72  2  0  0  0  0
 72 73  1  0  0  0  0
 73 74  1  0  0  0  0
 72 75  1  0  0  0  0
 75 76  2  0  0  0  0
 68 77  1  0  0  0  0
 77 78  2  0  0  0  0
 78 79  1  0  0  0  0
 79 80  2  0  0  0  0
 80 81  1  0  0  0  0
 81 82  1  0  0  0  0
 80 83  1  0  0  0  0
 83 84  2  0  0  0  0
 67 85  1  0  0  0  0
 85 86  1  0  0  0  0
 86 87  1  0  0  0  0
 87 88  2  0  0  0  0
 88 89  1  0  0  0  0
 89 90  1  0  0  0  0
 90 91  2  0  0  0  0
 91 92  1  0  0  0  0
 92 93  2  0  0  0  0
 93 94  1  0  0  0  0
 94 95  1  0  0  0  0
 93 96  1  0  0  0  0
 96 97  2  0  0  0  0
 89 98  1  0  0  0  0
 98 99  2  0  0  0  0
 99100  1  0  0  0  0
100101  2  0  0  0  0
101102  1  0  0  0  0
102103  1  0  0  0  0
101104  1  0  0  0  0
104105  2  0  0  0  0
 88106  1  0  0  0  0
106107  1  0  0  0  0
 87108  1  0  0  0  0
108109  2  0  0  0  0
109110  1  0  0  0  0
110111  1  0  0  0  0
111112  2  0  0  0  0
112113  1  0  0  0  0
113114  2  0  0  0  0
114115  1  0  0  0  0
115116  1  0  0  0  0
114117  1  0  0  0  0
117118  2  0  0  0  0
110119  1  0  0  0  0
119120  2  0  0  0  0
120121  1  0  0  0  0
121122  2  0  0  0  0
122123  1  0  0  0  0
123124  1  0  0  0  0
122125  1  0  0  0  0
125126  2  0  0  0  0
109127  1  0  0  0  0
127128  1  0  0  0  0
128129  1  0  0  0  0
129130  2  0  0  0  0
130131  1  0  0  0  0
131132  1  0  0  0  0
132133  2  0  0  0  0
133134  1  0  0  0  0
134135  2  0  0  0  0
135136  1  0  0  0  0
136137  1  0  0  0  0
135138  1  0  0  0  0
138139  2  0  0  0  0
131140  1  0  0  0  0
140141  2  0  0  0  0
141142  1  0  0  0  0
142143  2  0  0  0  0
143144  1  0  0  0  0
144145  1  0  0  0  0
143146  1  0  0  0  0
146147  2  0  0  0  0
130148  1  0  0  0  0
148149  1  0  0  0  0
129150  1  0  0  0  0
150151  2  0  0  0  0
151152  1  0  0  0  0
152153  3  0  0  0  0
151154  1  0  0  0  0
154155  2  0  0  0  0
155156  1  0  0  0  0
156157  3  0  0  0  0
155158  1  0  0  0  0
158159  3  0  0  0  0
154160  1  0  0  0  0
160161  1  0  0  0  0
161162  1  0  0  0  0
161163  1  0  0  0  0
 11  2  1  0  0  0  0
 23 17  1  0  0  0  0
 65 24  1  0  0  0  0
107 66  1  0  0  0  0
149108  1  0  0  0  0
161150  1  0  0  0  0
 10  5  1  0  0  0  0
 22 18  1  0  0  0  0
 34 27  1  0  0  0  0
 42 35  1  0  0  0  0
 64 43  2  0  0  0  0
 76 69  1  0  0  0  0
 84 77  1  0  0  0  0
106 85  2  0  0  0  0
118111  1  0  0  0  0
126119  1  0  0  0  0
148127  2  0  0  0  0
 23  7  1  0  0  0  0
 55 48  1  0  0  0  0
 63 56  1  0  0  0  0
 97 90  1  0  0  0  0
105 98  1  0  0  0  0
139132  1  0  0  0  0
147140  1  0  0  0  0
  1164  1  0  0  0  0
  6165  1  0  0  0  0
  9166  1  0  0  0  0
 17167  1  0  0  0  0
 18168  1  0  0  0  0
 19169  1  0  0  0  0
 20170  1  0  0  0  0
 21171  1  0  0  0  0
 22172  1  0  0  0  0
 22173  1  0  0  0  0
 23174  1  0  0  0  0
 28175  1  0  0  0  0
 29176  1  0  0  0  0
 32177  1  0  0  0  0
 32178  1  0  0  0  0
 32179  1  0  0  0  0
 33180  1  0  0  0  0
 34181  1  0  0  0  0
 36182  1  0  0  0  0
 37183  1  0  0  0  0
 40184  1  0  0  0  0
 40185  1  0  0  0  0
 40186  1  0  0  0  0
 41187  1  0  0  0  0
 42188  1  0  0  0  0
 49189  1  0  0  0  0
 50190  1  0  0  0  0
 53191  1  0  0  0  0
 53192  1  0  0  0  0
 53193  1  0  0  0  0
 54194  1  0  0  0  0
 55195  1  0  0  0  0
 57196  1  0  0  0  0
 58197  1  0  0  0  0
 61198  1  0  0  0  0
 61199  1  0  0  0  0
 61200  1  0  0  0  0
 62201  1  0  0  0  0
 63202  1  0  0  0  0
 70203  1  0  0  0  0
 71204  1  0  0  0  0
 74205  1  0  0  0  0
 74206  1  0  0  0  0
 74207  1  0  0  0  0
 75208  1  0  0  0  0
 76209  1  0  0  0  0
 78210  1  0  0  0  0
 79211  1  0  0  0  0
 82212  1  0  0  0  0
 82213  1  0  0  0  0
 82214  1  0  0  0  0
 83215  1  0  0  0  0
 84216  1  0  0  0  0
 91217  1  0  0  0  0
 92218  1  0  0  0  0
 95219  1  0  0  0  0
 95220  1  0  0  0  0
 95221  1  0  0  0  0
 96222  1  0  0  0  0
 97223  1  0  0  0  0
 99224  1  0  0  0  0
100225  1  0  0  0  0
103226  1  0  0  0  0
103227  1  0  0  0  0
103228  1  0  0  0  0
104229  1  0  0  0  0
105230  1  0  0  0  0
112231  1  0  0  0  0
113232  1  0  0  0  0
116233  1  0  0  0  0
116234  1  0  0  0  0
116235  1  0  0  0  0
117236  1  0  0  0  0
118237  1  0  0  0  0
120238  1  0  0  0  0
121239  1  0  0  0  0
124240  1  0  0  0  0
124241  1  0  0  0  0
124242  1  0  0  0  0
125243  1  0  0  0  0
126244  1  0  0  0  0
133245  1  0  0  0  0
134246  1  0  0  0  0
137247  1  0  0  0  0
137248  1  0  0  0  0
137249  1  0  0  0  0
138250  1  0  0  0  0
139251  1  0  0  0  0
141252  1  0  0  0  0
142253  1  0  0  0  0
145254  1  0  0  0  0
145255  1  0  0  0  0
145256  1  0  0  0  0
146257  1  0  0  0  0
147258  1  0  0  0  0
162259  1  0  0  0  0
162260  1  0  0  0  0
162261  1  0  0  0  0
163262  1  0  0  0  0
163263  1  0  0  0  0
163264  1  0  0  0  0
M  END
