222

C         -6.06520       -2.05720        5.14400
C         -5.51340       -2.35190        6.35600
C         -4.25470       -3.12320        6.49420
O         -3.56140       -3.55080        5.59460
C         -4.11790       -3.40930        7.93220
C         -3.09120       -4.11910        8.54990
C         -3.23660       -4.24750        9.91010
C         -4.33250       -3.71880       10.60650
C         -5.35860       -3.02630       10.00930
C         -5.22510       -2.87800        8.62580
C         -6.10080       -2.21040        7.66860
C         -7.21960       -1.47230        7.95960
C         -7.76380       -1.31670        9.24990
N         -8.26150       -1.15950       10.27270
C         -7.94880       -0.74530        6.99610
N         -8.56410       -0.11160        6.26200
C         -3.84120       -4.23740       11.93410
C         -3.17160       -3.23270       12.90330
C         -2.57790       -2.13770       12.05100
C         -1.54100       -2.64770       11.40040
C         -1.41790       -4.09740       11.79610
C         -1.89990       -4.02230       13.25370
C         -2.62300       -4.83130       11.15870
C         -5.28710       -1.86040        3.97360
C         -4.15450       -1.06090        3.87110
N         -3.57990       -0.30510        4.89980
C         -3.70950        1.08170        4.74040
C         -4.90790        1.59850        4.25090
C         -5.06060        2.95220        4.03070
C         -4.01010        3.82080        4.29300
S         -4.07580        5.56000        4.00180
C         -5.72760        5.82080        3.29670
C         -2.81810        3.31310        4.80770
C         -2.66580        1.96240        5.02820
C         -2.56090       -0.84610        5.69610
C         -1.67920       -1.79080        5.18120
C         -0.69420       -2.34000        5.97870
C         -0.56880       -1.93820        7.30070
S          0.66210       -2.57060        8.39940
C          1.78310       -3.49130        7.31010
C         -1.45030       -0.99070        7.81960
C         -2.44130       -0.45450        7.02810
C         -3.77430       -0.89890        2.52530
S         -2.41200       -0.14840        1.79680
C         -2.91450       -0.73720        0.21160
C         -4.07960       -1.48460        0.26700
N         -4.68810       -2.11550       -0.80300
C         -3.93090       -2.55860       -1.89400
C         -2.65250       -3.08090       -1.71070
C         -1.87430       -3.43400       -2.79530
C         -2.37470       -3.29370       -4.08140
S         -1.39830       -3.61960       -5.52370
C          0.26250       -3.14160       -4.95290
C         -3.68450       -2.85870       -4.26690
C         -4.45000       -2.48070       -3.18640
C         -6.06760       -2.37340       -0.76510
C         -6.57170       -3.56710       -1.27470
C         -7.92620       -3.83340       -1.24820
C         -8.80620       -2.91230       -0.69530
S        -10.55420       -3.13190       -0.60390
C        -10.82370       -4.79920       -1.26640
C         -8.30470       -1.72200       -0.17500
C         -6.95520       -1.45100       -0.21070
C         -4.56370       -1.56140        1.60140
S         -5.86340       -2.38450        2.39840
C         -1.94250       -0.50540       -0.82630
C         -1.98480        0.17730       -2.02850
N         -3.11350        0.77330       -2.55730
C         -3.21330        1.00840       -3.93540
C         -3.82440        2.16720       -4.41830
C         -3.91470        2.39110       -5.77290
C         -3.39390        1.47230       -6.68360
S         -3.56990        1.87070       -8.39430
C         -2.64220        0.55910       -9.24020
C         -2.78530        0.32020       -6.21010
C         -2.69700        0.09640       -4.84970
C         -4.10840        1.26540       -1.69580
C         -3.77150        1.90410       -0.50160
C         -4.75500        2.36230        0.34580
C         -6.09950        2.22320        0.00590
S         -7.27550        2.84260        1.16780
C         -8.88500        2.47400        0.41970
C         -6.43970        1.62090       -1.19870
C         -5.45100        1.13430       -2.03260
C         -0.68270        0.27090       -2.59710
S         -0.02360        0.98790       -4.03150
C          1.61310        0.59570       -3.50940
C          1.63400       -0.11070       -2.31760
N          2.75050       -0.63080       -1.68070
C          3.85080       -1.08940       -2.40820
C          5.14950       -0.85930       -1.95020
C          6.23140       -1.16360       -2.74880
C          6.03990       -1.71140       -4.01290
S          7.45580       -1.93830       -5.05390
C          7.06760       -3.52000       -5.87130
C          4.75430       -2.01090       -4.44310
C          3.67150       -1.71280       -3.64320
C          2.73780       -0.66740       -0.27550
C          3.18460       -1.79330        0.41470
C          3.04040       -1.86570        1.78260
C          2.44620       -0.82120        2.48960
S          2.21410       -1.05650        4.22340
C          1.13450        0.31870        4.70510
C          2.06600        0.33010        1.81480
C          2.21730        0.40480        0.44430
C          0.31900       -0.27840       -1.81590
S         -0.30560       -0.98400       -0.37840
C          2.73290        0.98070       -4.31020
S          4.17410        1.61660       -3.56200
C          4.99630        1.55940       -5.07380
C          6.35850        1.79770       -5.35100
C          6.78460        1.64030       -6.67520
Ge         5.24460        1.08880       -7.77380
C          4.68050        2.47480       -9.10670
C          4.56150        3.85220       -8.47370
C          5.44820       -0.78220       -8.47610
C          4.12250       -1.51800       -8.59770
C          4.17140        1.15640       -6.11710
C          2.88610        0.84970       -5.67440
C          8.13740        1.86520       -6.82380
C          8.78290        2.19390       -5.63180
S          7.63670        2.20070       -4.29100
C         10.11560        2.47450       -5.31010
C         11.22700        2.66380       -6.09960
C         11.29940        2.78500       -7.56690
O         10.43720        2.59890       -8.40150
C         12.68490        3.22210       -7.86090
C         13.23610        3.52560       -9.08860
C         14.56320        3.93500       -9.13050
Cl        15.31330        4.33180      -10.62790
C         15.28870        4.02570       -7.94140
F         16.56520        4.42870       -7.98800
C         14.74130        3.71680       -6.70560
C         13.41760        3.30770       -6.66710
C         12.54990        2.91300       -5.55910
C         12.96610        2.75140       -4.26160
C         12.18430        2.27260       -3.18900
N         11.63820        1.87220       -2.26060
C         14.28020        3.01200       -3.81960
N         15.32760        3.20900       -3.39250
H         -7.13520       -1.92590        5.04120
H         -2.26960       -4.51550        7.97490
H         -6.20360       -2.63910       10.55460
H         -4.50520       -4.92920       12.44900
H         -3.80440       -2.91050       13.72610
H         -2.99480       -1.15060       11.97180
H         -0.90650       -2.18200       10.67050
H         -0.45410       -4.56200       11.60760
H         -1.21910       -3.46220       13.89270
H         -2.10240       -4.99680       13.69630
H         -2.49840       -5.91260       11.16110
H         -5.73620        0.93790        4.04420
H         -6.00390        3.30840        3.65230
H         -6.48780        5.56530        4.02900
H         -5.78010        6.87990        3.06430
H         -5.84500        5.23480        2.38960
H         -2.00660        3.99280        5.01900
H         -1.73130        1.58160        5.41240
H         -1.76690       -2.10580        4.15330
H         -0.03100       -3.07330        5.55140
H          2.62330       -3.78000        7.93410
H          1.28760       -4.37900        6.92740
H          2.12260       -2.84870        6.50270
H         -1.35700       -0.68590        8.85050
H         -3.13010        0.27270        7.43210
H         -2.26750       -3.22180       -0.71240
H         -0.88190       -3.82110       -2.62580
H          0.85600       -2.99290       -5.84990
H          0.70210       -3.93040       -4.34890
H          0.19040       -2.21420       -4.39150
H         -4.07840       -2.78190       -5.26840
H         -5.45020       -2.10460       -3.33810
H         -5.89460       -4.29630       -1.69440
H         -8.27840       -4.76810       -1.65330
H        -11.89200       -4.97490       -1.18670
H        -10.28460       -5.52680       -0.66690
H        -10.52110       -4.84100       -2.30880
H         -8.99410       -1.01600        0.26240
H         -6.58000       -0.51950        0.18250
H         -4.21970        2.89410       -3.72480
H         -4.38280        3.28950       -6.14500
H         -1.61430        0.55170       -8.89000
H         -2.67220        0.81400      -10.29500
H         -3.12110       -0.40260       -9.08070
H         -2.37940       -0.42020       -6.87980
H         -2.23670       -0.80910       -4.49310
H         -2.73370        2.05240       -0.24430
H         -4.48940        2.83710        1.27830
H         -8.98820        1.40350        0.27010
H         -9.62370        2.81810        1.13720
H         -8.99530        3.01730       -0.51440
H         -7.46960        1.50700       -1.49550
H         -5.72270        0.65110       -2.95920
H          5.29930       -0.40170       -0.98430
H          7.23330       -0.94830       -2.41180
H          7.99520       -3.85780       -6.32200
H          6.73410       -4.23280       -5.12380
H          6.31410       -3.38590       -6.64180
H          4.58990       -2.46220       -5.40910
H          2.67340       -1.93490       -3.99000
H          3.61920       -2.61700       -0.13180
H          3.36260       -2.74540        2.31810
H          0.24960        0.32170        4.07450
H          1.67440        1.25920        4.64130
H          0.85190        0.12640        5.73600
H          1.64340        1.17220        2.33780
H          1.91280        1.29980       -0.07870
H          5.41730        2.48950       -9.90920
H          3.72790        2.17390       -9.54230
H          4.25490        4.58790       -9.21480
H          3.82520        3.84470       -7.67190
H          5.51690        4.16380       -8.05590
H          5.94380       -0.73450       -9.44500
H          6.11750       -1.30630       -7.79570
H          3.46270       -1.00940       -9.29750
H          3.62140       -1.56290       -7.63240
H          4.27840       -2.53470       -8.95650
H          2.09250        0.49100       -6.30740
H          8.66480        1.80100       -7.75800
H         10.27910        2.58170       -4.24410
H         12.64830        3.44760       -9.98920
H         15.35700        3.81090       -5.82640
