181

C          7.73200       -2.46630        3.51840
C          8.90760       -1.79570        3.64700
C          9.86500       -2.21740        4.70900
O          9.82090       -3.24020        5.35370
C         10.82980       -1.10880        4.82970
C         11.83500       -0.96420        5.78400
C         12.55760        0.19850        5.66370
C         12.29530        1.15690        4.67520
C         11.30950        1.02670        3.72600
C         10.57240       -0.15680        3.82170
C          9.47810       -0.64660        2.98440
C          9.23700       -0.24700        1.69460
C          9.97620        0.75440        1.03800
N         10.54670        1.56170        0.45250
C          8.31510       -0.86880        0.82890
N          7.60610       -1.35580        0.06900
C         13.39750        2.06850        5.15360
C         14.69700        2.07120        4.32080
C         15.72800        2.65150        5.26180
C         15.97900        1.74260        6.19540
C         15.12170        0.53270        5.90120
C         15.09960        0.59160        4.36830
C         13.69270        0.99820        6.25300
C          6.52810       -2.07520        2.88620
C          6.04500       -0.82060        2.60410
C          4.73320       -0.81440        2.08980
C          3.94170        0.29970        1.72270
C          4.44670        1.64910        1.66430
C          3.76300        2.82110        1.86210
C          4.50780        3.97090        1.56920
C          5.77370        3.68890        1.13200
S          6.94760        4.90430        0.69610
C          8.39860        3.91250        0.20780
C          8.29340        3.34880       -1.19360
S          6.06980        1.97940        1.10370
C          2.63530        0.01610        1.33270
C          2.13880       -1.29730        1.14500
C          2.95030       -2.40840        1.44880
C          2.54380       -3.77480        1.19470
C          2.75900       -4.88160        1.96830
C          2.38280       -6.08680        1.35030
C          1.89310       -5.90650        0.09070
S          1.32660       -7.16700       -0.97520
C          1.99110       -6.57170       -2.57740
C          3.50510       -6.61030       -2.60930
S          1.82550       -4.21870       -0.33040
C          4.20650       -2.12810        1.97370
S          5.35040       -3.31730        2.51270
C          0.81850       -1.29640        0.64680
C          0.30140       -0.04560        0.43470
S          1.43340        1.20070        0.91170
C         -1.01890        0.23560       -0.01630
C         -1.60370        1.38450       -0.54560
N         -0.98800        2.57710       -0.85820
C         -1.74770        3.76350       -0.78890
C         -1.69080        4.69230       -1.82740
C         -2.43950        5.84450       -1.76480
C         -3.26910        6.09340       -0.67140
S         -4.17510        7.60080       -0.69780
C         -5.40070        7.38700        0.62340
C         -3.31880        5.17580        0.37000
C         -2.55950        4.02340        0.31090
C          0.33190        2.66090       -1.31330
C          1.10830        3.76480       -0.96100
C          2.42930        3.84930       -1.34530
C          2.99950        2.83060       -2.09700
S          4.69720        2.83520       -2.57910
C          5.09870        4.60890       -2.60750
C          2.22320        1.73850       -2.47530
C          0.90070        1.65660       -2.09720
C         -2.99380        1.17850       -0.76020
S         -4.27530        2.19300       -1.31860
C         -5.43590        0.87720       -1.12350
C         -4.84480       -0.28040       -0.61230
N         -5.47510       -1.44260       -0.21940
C         -4.75510       -2.64900       -0.31900
C         -4.03660       -2.94570       -1.47210
C         -3.32080       -4.12300       -1.57040
C         -3.32040       -5.02620       -0.51530
S         -2.44850       -6.55670       -0.52140
C         -1.85780       -6.70670       -2.22950
C         -4.04580       -4.73090        0.63970
C         -4.75520       -3.55670        0.73930
C         -6.78090       -1.47690        0.27430
C         -7.60310       -2.56960       -0.01430
C         -8.92760       -2.55740        0.35450
C         -9.47190       -1.45030        1.00150
S        -11.21620       -1.47730        1.27610
C        -11.60560        0.24140        1.70930
C         -8.63990       -0.40100        1.37150
C         -7.30380       -0.42370        1.02380
C         -3.45200       -0.08650       -0.43660
S         -2.17240       -1.09200        0.13930
C         -6.79390        1.11540       -1.45100
C         -7.49080        2.32250       -1.28780
C         -6.93750        3.49920       -0.76130
N         -6.53670        4.46500       -0.28690
C         -8.85370        2.18990       -1.55230
C         -9.23100        0.90460       -1.92070
S         -7.83170       -0.13330       -2.05590
C        -10.57910        0.50700       -1.97250
C        -11.10170       -0.75340       -2.07960
C        -10.32740       -1.96220       -2.40810
O         -9.15550       -2.00240       -2.74090
C        -11.26720       -3.08180       -2.31470
C        -11.01740       -4.44830       -2.46950
O         -9.75300       -4.82370       -2.72040
C         -9.45730       -6.19250       -2.87140
C        -12.10820       -5.31510       -2.33230
C        -13.37060       -4.82410       -2.05280
C        -13.61620       -3.46730       -1.88530
C        -12.55100       -2.59380       -2.01460
C        -12.47860       -1.14050       -1.86360
C        -13.52800       -0.32770       -1.51810
C        -13.44440        1.05970       -1.28500
N        -13.45440        2.18540       -1.05230
C        -14.85010       -0.77310       -1.31170
N        -15.94850       -1.05270       -1.12780
H          7.69390       -3.41510        4.04620
H         11.99860       -1.72010        6.53590
H         11.10700        1.77670        2.97880
H         13.08920        3.06460        5.46570
H         14.60920        2.53550        3.34240
H         16.11480        3.65080        5.18590
H         16.61700        1.83090        7.05510
H         15.42210       -0.40390        6.36300
H         14.37730       -0.08000        3.90790
H         16.08370        0.41910        3.93590
H         13.58230        1.28030        7.29850
H          6.59610        0.07410        2.83360
H          2.76250        2.86160        2.25140
H          4.13780        4.97440        1.67310
H          8.50840        3.12550        0.95230
H          9.23970        4.60000        0.29080
H          9.16980        2.73530       -1.38880
H          7.40780        2.72700       -1.30490
H          8.25430        4.15200       -1.92530
H          3.16640       -4.83280        2.96170
H          2.48700       -7.05610        1.80150
H          1.61070       -5.56250       -2.73650
H          1.56000       -7.24330       -3.31920
H          3.86210       -6.28530       -3.58440
H          3.92270       -5.94980       -1.85210
H          3.86320       -7.62030       -2.42370
H          0.25760       -2.19020        0.43870
H         -1.06220        4.49610       -2.68330
H         -2.40360        6.56300       -2.56920
H         -6.09470        8.21470        0.51490
H         -4.91700        7.43970        1.59490
H         -5.91490        6.44260        0.47650
H         -3.94270        5.34680        1.23110
H         -2.59230        3.31610        1.12740
H          0.67550        4.54690       -0.35600
H          3.01400        4.69940       -1.03320
H          6.00890        4.69600       -3.19220
H          4.29250        5.14900       -3.09390
H          5.27130        4.98040       -1.60140
H          2.66970        0.95530       -3.06850
H          0.30530        0.80710       -2.39750
H         -4.04500       -2.25040       -2.29860
H         -2.77180       -4.32320       -2.47590
H         -1.36980       -7.67470       -2.28050
H         -2.69950       -6.67340       -2.91510
H         -1.13750       -5.92360       -2.44470
H         -4.03680       -5.43560        1.45680
H         -5.31290       -3.32960        1.63550
H         -7.20950       -3.40280       -0.57420
H         -9.56850       -3.38950        0.10760
H        -11.19930        0.90930        0.95480
H        -12.68940        0.30850        1.71670
H        -11.21970        0.47840        2.69650
H         -9.02020        0.44230        1.92550
H         -6.66710        0.40070        1.31000
H         -9.56200        2.99000       -1.42080
H        -11.27200        1.32520       -1.81570
H         -9.68690       -6.75570       -1.96140
H         -8.38680       -6.23900       -3.06320
H         -9.99590       -6.62900       -3.71800
H        -11.97500       -6.37970       -2.44250
H        -14.19000       -5.52060       -1.95660
H        -14.61140       -3.12420       -1.66070
