136

C         -3.71370        1.64270       -7.71390
C         -4.96170        1.08480       -7.62120
C         -5.75140        0.90400       -6.39590
O         -5.52270        1.35650       -5.28850
C         -6.89970        0.06000       -6.76570
C         -7.87510       -0.44410       -5.90940
C         -8.80920       -1.23580       -6.53250
C         -8.77540       -1.50520       -7.90730
C         -7.81960       -1.01070       -8.76300
C         -6.85910       -0.20100       -8.14990
C         -5.69170        0.47340       -8.71650
C         -5.37600        0.52270      -10.05040
C         -4.26290        1.18460      -10.60910
N         -3.38470        1.69640      -11.14570
C         -6.14290       -0.07190      -11.07420
N         -6.71420       -0.52540      -11.96110
C        -10.00890       -2.37130       -7.84780
C        -11.34290       -1.76510       -8.34870
C        -11.22850       -0.27150       -8.17020
C        -11.26030       -0.01540       -6.86930
C        -11.39630       -1.33160       -6.14430
C        -12.24960       -2.11190       -7.15680
C        -10.04610       -2.07040       -6.31620
C         -2.86270        2.15680       -6.72350
C         -1.52840        2.51170       -6.98260
C         -0.83760        2.43590       -8.30540
C         -0.28840        1.02790       -8.55270
C         -0.87480        2.87020       -5.80820
C         -1.68520        2.84620       -4.66490
S         -3.29190        2.34480       -5.02220
C         -0.99670        3.14420       -3.48880
C          0.34300        3.37310       -3.71270
S          0.76350        3.26180       -5.40980
C          1.33750        3.54080       -2.68450
C          2.66220        3.17350       -2.85030
F          3.11520        2.79290       -4.05750
C          3.55850        3.07640       -1.77690
F          4.78500        2.60220       -2.05740
C          3.18710        3.34040       -0.47420
C          1.87790        3.86670       -0.29070
N          1.49000        4.24510        0.94050
C          0.30010        4.75840        1.12210
C         -0.07060        5.07920        2.53860
C         -0.86730        3.92350        3.15000
C         -0.57580        4.95290        0.01810
N         -0.22800        4.55370       -1.17990
C          0.97410        3.98930       -1.37760
C         -1.88600        5.67350        0.11640
C         -1.66460        7.17900       -0.05370
C          4.02670        2.97530        0.66940
C          3.41670        2.31850        1.73260
C          4.21270        1.84120        2.75830
N          3.85530        1.10910        3.86020
C          2.51530        0.74890        4.23840
C          1.88470        1.81880        5.12870
C          4.99380        0.78260        4.55040
C          6.12390        1.33180        3.88850
C          5.62060        2.01870        2.74030
C          6.20940        2.72020        1.69180
C          5.41490        3.18680        0.66840
C          7.39820        1.11260        4.40870
C          7.53180        0.32320        5.52530
C          6.41360       -0.27860        6.14380
C          5.12750        0.00440        5.68430
C          6.64310       -1.18980        7.23190
C          5.93840       -2.31460        7.52620
C          4.95700       -3.00790        6.64660
O          4.37500       -2.58680        5.66950
C          4.85380       -4.38010        7.17670
C          4.12150       -5.42690        6.62040
C          4.20920       -6.60460        7.32120
C          4.97280       -6.73590        8.48980
C          5.69400       -5.71040        9.05270
C          5.61590       -4.50050        8.35530
C          6.23190       -3.21000        8.63730
C          6.88980       -2.86660        9.78720
C          7.37120       -1.57180       10.07900
N          7.76630       -0.54250       10.39960
C          7.12770       -3.74870       10.86200
N          7.35680       -4.41720       11.76670
C          4.62070       -8.19380        8.64960
C          5.68470       -9.24280        8.24140
C          6.55030       -8.59140        7.19150
C          5.82440       -8.46590        6.08860
C          4.45430       -9.03030        6.37290
C          4.82290      -10.15490        7.35350
C          3.76670       -8.04570        7.35100
H         -3.26730        1.64020       -8.69930
H         -7.85810       -0.21560       -4.85520
H         -7.80500       -1.23560       -9.81630
H         -9.87970       -3.40550       -8.16100
H        -11.65350       -2.10870       -9.33160
H        -11.08250        0.41840       -8.98060
H        -11.14590        0.93150       -6.37500
H        -11.75600       -1.28090       -5.11980
H        -13.25510       -1.70720       -7.26070
H        -12.30230       -3.17960       -6.94790
H         -9.94130       -2.90840       -5.62950
H         -1.51230        2.71210       -9.11700
H         -0.00580        3.14320       -8.29750
H         -1.09330        0.29630       -8.55880
H          0.42100        0.75670       -7.77420
H          0.21780        0.99260       -9.51330
H         -1.43880        3.16290       -2.51200
H          0.85260        5.21720        3.10280
H         -0.65430        5.99820        2.58650
H         -0.28440        3.00670        3.11300
H         -1.10530        4.14150        4.18810
H         -1.79640        3.75910        2.60840
H         -2.53100        5.31880       -0.68830
H         -2.36890        5.47500        1.07270
H         -2.61370        7.70520        0.00690
H         -1.21600        7.37990       -1.02340
H         -1.00230        7.56590        0.71820
H          2.35200        2.15510        1.72470
H          1.92160        0.61910        3.32970
H          2.55140       -0.21120        4.75900
H          1.86630        2.77400        4.60880
H          2.46090        1.93590        6.04350
H          0.86740        1.53990        5.39050
H          7.27660        2.87970        1.67300
H          5.86450        3.72600       -0.15020
H          8.26420        1.54690        3.93290
H          8.51380        0.11910        5.92560
H          4.26840       -0.36800        6.21430
H          7.53220       -0.98880        7.81960
H          3.54900       -5.28300        5.71730
H          6.27960       -5.82590        9.94960
H          4.10690       -8.46160        9.57070
H          6.20670       -9.70360        9.07560
H          7.55240       -8.24790        7.37040
H          6.09860       -7.99630        5.16200
H          3.85590       -9.29780        5.50590
H          5.39850      -10.95100        6.88380
H          3.96330      -10.57840        7.87110
H          2.69410       -8.21480        7.42460
