
  xtb     02082207383D
 energy: -424.682212229625 gnorm: 0.000894590241 xtb: 6.4.1 (unknown)
235257  0     0  0            999 V2000
    6.7236   -4.3412    1.8400 C   0  0  0  0  0  0  0  0  0  0  0  0
    7.8236   -4.7315    1.1168 C   0  0  0  0  0  0  0  0  0  0  0  0
    7.9824   -4.6341   -0.3367 C   0  0  0  0  0  0  0  0  0  0  0  0
    7.2181   -4.1180   -1.1350 O   0  0  0  0  0  0  0  0  0  0  0  0
    9.2464   -5.3172   -0.6602 C   0  0  0  0  0  0  0  0  0  0  0  0
    9.8092   -5.4875   -1.9230 C   0  0  0  0  0  0  0  0  0  0  0  0
   10.9992   -6.1752   -1.9162 C   0  0  0  0  0  0  0  0  0  0  0  0
   11.5823   -6.6644   -0.7402 C   0  0  0  0  0  0  0  0  0  0  0  0
   11.0377   -6.5027    0.5121 C   0  0  0  0  0  0  0  0  0  0  0  0
    9.8304   -5.7985    0.5292 C   0  0  0  0  0  0  0  0  0  0  0  0
    8.9812   -5.4098    1.6550 C   0  0  0  0  0  0  0  0  0  0  0  0
    9.2714   -5.6213    2.9811 C   0  0  0  0  0  0  0  0  0  0  0  0
    8.5314   -5.1184    4.0688 C   0  0  0  0  0  0  0  0  0  0  0  0
    8.0092   -4.7106    5.0088 N   0  0  0  0  0  0  0  0  0  0  0  0
   10.3904   -6.3400    3.4480 C   0  0  0  0  0  0  0  0  0  0  0  0
   11.2696   -6.9258    3.8987 N   0  0  0  0  0  0  0  0  0  0  0  0
   12.7644   -7.2481   -1.4732 C   0  0  0  0  0  0  0  0  0  0  0  0
   14.0865   -6.4568   -1.3871 C   0  0  0  0  0  0  0  0  0  0  0  0
   14.8961   -6.9770   -2.5528 C   0  0  0  0  0  0  0  0  0  0  0  0
   14.3459   -6.5102   -3.6663 C   0  0  0  0  0  0  0  0  0  0  0  0
   13.1550   -5.6666   -3.2719 C   0  0  0  0  0  0  0  0  0  0  0  0
   13.6676   -5.0907   -1.9456 C   0  0  0  0  0  0  0  0  0  0  0  0
   12.1162   -6.6991   -2.7846 C   0  0  0  0  0  0  0  0  0  0  0  0
    5.5681   -3.6658    1.4395 C   0  0  0  0  0  0  0  0  0  0  0  0
    4.5298   -3.3329    2.3395 C   0  0  0  0  0  0  0  0  0  0  0  0
    4.4374   -3.7077    3.6585 N   0  0  0  0  0  0  0  0  0  0  0  0
    4.7333   -5.0060    4.0973 C   0  0  0  0  0  0  0  0  0  0  0  0
    5.2340   -5.2210    5.3820 C   0  0  0  0  0  0  0  0  0  0  0  0
    5.5203   -6.4991    5.8055 C   0  0  0  0  0  0  0  0  0  0  0  0
    5.3278   -7.5886    4.9582 C   0  0  0  0  0  0  0  0  0  0  0  0
    5.7499   -9.1720    5.6084 S   0  0  0  0  0  0  0  0  0  0  0  0
    5.4992  -10.3046    4.2111 C   0  0  0  0  0  0  0  0  0  0  0  0
    4.8183   -7.3783    3.6824 C   0  0  0  0  0  0  0  0  0  0  0  0
    4.5172   -6.0992    3.2610 C   0  0  0  0  0  0  0  0  0  0  0  0
    3.9299   -2.7544    4.5600 C   0  0  0  0  0  0  0  0  0  0  0  0
    4.3591   -1.4320    4.4680 C   0  0  0  0  0  0  0  0  0  0  0  0
    3.8649   -0.4686    5.3223 C   0  0  0  0  0  0  0  0  0  0  0  0
    2.9432   -0.8202    6.2994 C   0  0  0  0  0  0  0  0  0  0  0  0
    2.2669    0.3405    7.4424 S   0  0  0  0  0  0  0  0  0  0  0  0
    3.4896    1.6849    7.4415 C   0  0  0  0  0  0  0  0  0  0  0  0
    2.5096   -2.1409    6.3949 C   0  0  0  0  0  0  0  0  0  0  0  0
    2.9943   -3.1002    5.5332 C   0  0  0  0  0  0  0  0  0  0  0  0
    3.5787   -2.5018    1.7219 C   0  0  0  0  0  0  0  0  0  0  0  0
    2.0800   -1.8093    2.2417 S   0  0  0  0  0  0  0  0  0  0  0  0
    1.8484   -1.0972    0.6504 C   0  0  0  0  0  0  0  0  0  0  0  0
    2.8613   -1.4124   -0.2290 C   0  0  0  0  0  0  0  0  0  0  0  0
    2.9347   -1.0020   -1.5526 N   0  0  0  0  0  0  0  0  0  0  0  0
    4.1844   -0.6233   -2.0572 C   0  0  0  0  0  0  0  0  0  0  0  0
    4.5156   -0.8178   -3.3962 C   0  0  0  0  0  0  0  0  0  0  0  0
    5.7413   -0.4163   -3.8855 C   0  0  0  0  0  0  0  0  0  0  0  0
    6.6730    0.1690   -3.0397 C   0  0  0  0  0  0  0  0  0  0  0  0
    8.2608    0.7249   -3.5838 S   0  0  0  0  0  0  0  0  0  0  0  0
    7.9681    1.0917   -5.3391 C   0  0  0  0  0  0  0  0  0  0  0  0
    6.3687    0.3202   -1.6922 C   0  0  0  0  0  0  0  0  0  0  0  0
    5.1370   -0.0586   -1.2087 C   0  0  0  0  0  0  0  0  0  0  0  0
    1.7901   -1.0380   -2.3562 C   0  0  0  0  0  0  0  0  0  0  0  0
    0.8174   -2.0198   -2.1623 C   0  0  0  0  0  0  0  0  0  0  0  0
   -0.3102   -2.0546   -2.9529 C   0  0  0  0  0  0  0  0  0  0  0  0
   -0.4961   -1.1083   -3.9566 C   0  0  0  0  0  0  0  0  0  0  0  0
   -1.9548   -1.2473   -4.9434 S   0  0  0  0  0  0  0  0  0  0  0  0
   -2.0742    0.3570   -5.7840 C   0  0  0  0  0  0  0  0  0  0  0  0
    0.4736   -0.1383   -4.1665 C   0  0  0  0  0  0  0  0  0  0  0  0
    1.6039   -0.1078   -3.3760 C   0  0  0  0  0  0  0  0  0  0  0  0
    3.8508   -2.2208    0.3933 C   0  0  0  0  0  0  0  0  0  0  0  0
    5.2893   -2.9948   -0.1709 S   0  0  0  0  0  0  0  0  0  0  0  0
    0.6766   -0.2712    0.4644 C   0  0  0  0  0  0  0  0  0  0  0  0
    0.6288    1.0998    0.5429 C   0  0  0  0  0  0  0  0  0  0  0  0
    1.7323    1.9202    0.8403 N   0  0  0  0  0  0  0  0  0  0  0  0
    1.7180    2.4964    2.1171 C   0  0  0  0  0  0  0  0  0  0  0  0
    1.2176    1.7683    3.1965 C   0  0  0  0  0  0  0  0  0  0  0  0
    1.1425    2.3277    4.4562 C   0  0  0  0  0  0  0  0  0  0  0  0
    1.5677    3.6330    4.6621 C   0  0  0  0  0  0  0  0  0  0  0  0
    1.5107    4.4358    6.2379 S   0  0  0  0  0  0  0  0  0  0  0  0
    0.1831    3.5431    7.0990 C   0  0  0  0  0  0  0  0  0  0  0  0
    2.0854    4.3599    3.5930 C   0  0  0  0  0  0  0  0  0  0  0  0
    2.1545    3.8044    2.3350 C   0  0  0  0  0  0  0  0  0  0  0  0
    2.6013    2.3386   -0.1643 C   0  0  0  0  0  0  0  0  0  0  0  0
    2.1656    2.4364   -1.4854 C   0  0  0  0  0  0  0  0  0  0  0  0
    3.0359    2.8343   -2.4761 C   0  0  0  0  0  0  0  0  0  0  0  0
    4.3636    3.1287   -2.1805 C   0  0  0  0  0  0  0  0  0  0  0  0
    5.3939    3.5575   -3.5469 S   0  0  0  0  0  0  0  0  0  0  0  0
    6.9645    4.0482   -2.7841 C   0  0  0  0  0  0  0  0  0  0  0  0
    4.8000    3.0473   -0.8653 C   0  0  0  0  0  0  0  0  0  0  0  0
    3.9268    2.6563    0.1297 C   0  0  0  0  0  0  0  0  0  0  0  0
   -0.7037    1.5747    0.4838 C   0  0  0  0  0  0  0  0  0  0  0  0
   -1.4051    3.1453    0.5662 S   0  0  0  0  0  0  0  0  0  0  0  0
   -3.0108    2.4419    0.4977 C   0  0  0  0  0  0  0  0  0  0  0  0
   -2.9918    1.0481    0.4968 C   0  0  0  0  0  0  0  0  0  0  0  0
   -4.0850    0.2306    0.7222 N   0  0  0  0  0  0  0  0  0  0  0  0
   -4.1987   -0.9650    0.0065 C   0  0  0  0  0  0  0  0  0  0  0  0
   -4.8674   -2.0620    0.5474 C   0  0  0  0  0  0  0  0  0  0  0  0
   -5.0237   -3.2244   -0.1811 C   0  0  0  0  0  0  0  0  0  0  0  0
   -4.4969   -3.3179   -1.4633 C   0  0  0  0  0  0  0  0  0  0  0  0
   -4.6365   -4.7422   -2.4936 S   0  0  0  0  0  0  0  0  0  0  0  0
   -6.0153   -5.6630   -1.7547 C   0  0  0  0  0  0  0  0  0  0  0  0
   -3.7976   -2.2365   -1.9928 C   0  0  0  0  0  0  0  0  0  0  0  0
   -3.6532   -1.0727   -1.2737 C   0  0  0  0  0  0  0  0  0  0  0  0
   -5.1284    0.6834    1.5480 C   0  0  0  0  0  0  0  0  0  0  0  0
   -4.8494    1.4673    2.6705 C   0  0  0  0  0  0  0  0  0  0  0  0
   -5.8697    2.0452    3.3904 C   0  0  0  0  0  0  0  0  0  0  0  0
   -7.2008    1.8476    3.0226 C   0  0  0  0  0  0  0  0  0  0  0  0
   -8.4197    2.7386    3.9298 S   0  0  0  0  0  0  0  0  0  0  0  0
   -9.9896    2.0163    3.3755 C   0  0  0  0  0  0  0  0  0  0  0  0
   -7.4875    0.9907    1.9692 C   0  0  0  0  0  0  0  0  0  0  0  0
   -6.4609    0.4116    1.2499 C   0  0  0  0  0  0  0  0  0  0  0  0
   -1.6581    0.5715    0.4260 C   0  0  0  0  0  0  0  0  0  0  0  0
   -0.9226   -0.9922    0.3607 S   0  0  0  0  0  0  0  0  0  0  0  0
   -4.1750    3.2818    0.5286 C   0  0  0  0  0  0  0  0  0  0  0  0
   -4.2548    4.4066    1.3412 C   0  0  0  0  0  0  0  0  0  0  0  0
   -3.1887    4.7676    2.0735 F   0  0  0  0  0  0  0  0  0  0  0  0
   -5.4361    5.1252    1.5290 C   0  0  0  0  0  0  0  0  0  0  0  0
   -5.4272    6.0925    2.4510 F   0  0  0  0  0  0  0  0  0  0  0  0
   -6.6253    4.7490    0.9183 C   0  0  0  0  0  0  0  0  0  0  0  0
   -6.5740    3.6027    0.0746 C   0  0  0  0  0  0  0  0  0  0  0  0
   -7.7097    3.1714   -0.4809 N   0  0  0  0  0  0  0  0  0  0  0  0
   -7.6850    2.1404   -1.2985 C   0  0  0  0  0  0  0  0  0  0  0  0
   -8.9908    1.7312   -1.7596 C   0  0  0  0  0  0  0  0  0  0  0  0
  -10.3058    1.9932   -0.6600 S   0  0  0  0  0  0  0  0  0  0  0  0
  -11.4732    1.4110   -1.7849 C   0  0  0  0  0  0  0  0  0  0  0  0
  -12.9233    1.3544   -1.4537 C   0  0  0  0  0  0  0  0  0  0  0  0
  -13.4455    2.7197   -1.0063 C   0  0  0  0  0  0  0  0  0  0  0  0
  -10.8621    1.0637   -2.9573 C   0  0  0  0  0  0  0  0  0  0  0  0
   -9.4616    1.2418   -2.9506 C   0  0  0  0  0  0  0  0  0  0  0  0
   -8.7000    1.0051   -4.0286 F   0  0  0  0  0  0  0  0  0  0  0  0
  -11.5266    0.5939   -4.0235 F   0  0  0  0  0  0  0  0  0  0  0  0
   -6.4426    1.5200   -1.6384 C   0  0  0  0  0  0  0  0  0  0  0  0
   -5.3211    1.9344   -1.0937 N   0  0  0  0  0  0  0  0  0  0  0  0
   -5.3553    2.9280   -0.1927 C   0  0  0  0  0  0  0  0  0  0  0  0
   -6.3964    0.3559   -2.5082 C   0  0  0  0  0  0  0  0  0  0  0  0
   -5.3261    0.2064   -3.8583 S   0  0  0  0  0  0  0  0  0  0  0  0
   -5.9158   -1.3648   -4.2675 C   0  0  0  0  0  0  0  0  0  0  0  0
   -5.4561   -2.1104   -5.4692 C   0  0  0  0  0  0  0  0  0  0  0  0
   -6.0236   -1.4890   -6.7471 C   0  0  0  0  0  0  0  0  0  0  0  0
   -6.8752   -1.7466   -3.3770 C   0  0  0  0  0  0  0  0  0  0  0  0
   -7.5030   -2.9309   -3.4193 F   0  0  0  0  0  0  0  0  0  0  0  0
   -7.1510   -0.7797   -2.3889 C   0  0  0  0  0  0  0  0  0  0  0  0
   -8.0525   -0.9800   -1.4117 F   0  0  0  0  0  0  0  0  0  0  0  0
   -7.8997    5.3684    1.1374 C   0  0  0  0  0  0  0  0  0  0  0  0
   -8.1347    6.6970    1.2919 C   0  0  0  0  0  0  0  0  0  0  0  0
   -7.1433    7.7731    1.0130 C   0  0  0  0  0  0  0  0  0  0  0  0
   -6.0719    7.6615    0.4727 O   0  0  0  0  0  0  0  0  0  0  0  0
   -7.8223    9.0306    1.4137 C   0  0  0  0  0  0  0  0  0  0  0  0
   -9.1485    8.7537    1.7939 C   0  0  0  0  0  0  0  0  0  0  0  0
   -9.9862    9.7743    2.2156 C   0  0  0  0  0  0  0  0  0  0  0  0
   -9.4789   11.0644    2.2481 C   0  0  0  0  0  0  0  0  0  0  0  0
  -10.2677   12.0618    2.6553 F   0  0  0  0  0  0  0  0  0  0  0  0
   -8.1706   11.3561    1.8667 C   0  0  0  0  0  0  0  0  0  0  0  0
   -7.7228   12.6135    1.9096 F   0  0  0  0  0  0  0  0  0  0  0  0
   -7.3320   10.3239    1.4390 C   0  0  0  0  0  0  0  0  0  0  0  0
   -6.0859   10.6057    1.0754 F   0  0  0  0  0  0  0  0  0  0  0  0
   -9.3936    7.3203    1.6489 C   0  0  0  0  0  0  0  0  0  0  0  0
  -10.6103    6.7051    1.7980 C   0  0  0  0  0  0  0  0  0  0  0  0
  -11.8010    7.3764    2.1496 C   0  0  0  0  0  0  0  0  0  0  0  0
  -12.8050    7.8577    2.4290 N   0  0  0  0  0  0  0  0  0  0  0  0
  -10.8799    5.3399    1.5765 C   0  0  0  0  0  0  0  0  0  0  0  0
  -11.2209    4.2575    1.3945 N   0  0  0  0  0  0  0  0  0  0  0  0
    6.7412   -4.5797    2.8958 H   0  0  0  0  0  0  0  0  0  0  0  0
    9.3224   -5.0967   -2.8028 H   0  0  0  0  0  0  0  0  0  0  0  0
   11.4990   -6.8883    1.4057 H   0  0  0  0  0  0  0  0  0  0  0  0
   12.9036   -8.3227   -1.3709 H   0  0  0  0  0  0  0  0  0  0  0  0
   14.5645   -6.4749   -0.4115 H   0  0  0  0  0  0  0  0  0  0  0  0
   15.7245   -7.6537   -2.4534 H   0  0  0  0  0  0  0  0  0  0  0  0
   14.6230   -6.7192   -4.6830 H   0  0  0  0  0  0  0  0  0  0  0  0
   12.7857   -4.9637   -4.0139 H   0  0  0  0  0  0  0  0  0  0  0  0
   14.5180   -4.4258   -2.0872 H   0  0  0  0  0  0  0  0  0  0  0  0
   12.9045   -4.5851   -1.3569 H   0  0  0  0  0  0  0  0  0  0  0  0
   11.8254   -7.4076   -3.5583 H   0  0  0  0  0  0  0  0  0  0  0  0
    5.4107   -4.3831    6.0368 H   0  0  0  0  0  0  0  0  0  0  0  0
    5.9180   -6.6661    6.7938 H   0  0  0  0  0  0  0  0  0  0  0  0
    6.1253  -10.0062    3.3753 H   0  0  0  0  0  0  0  0  0  0  0  0
    5.8066  -11.2815    4.5708 H   0  0  0  0  0  0  0  0  0  0  0  0
    4.4498  -10.3299    3.9317 H   0  0  0  0  0  0  0  0  0  0  0  0
    4.6403   -8.2012    3.0091 H   0  0  0  0  0  0  0  0  0  0  0  0
    4.1134   -5.9447    2.2711 H   0  0  0  0  0  0  0  0  0  0  0  0
    5.0899   -1.1603    3.7202 H   0  0  0  0  0  0  0  0  0  0  0  0
    4.2042    0.5494    5.2190 H   0  0  0  0  0  0  0  0  0  0  0  0
    3.4261    2.2595    6.5222 H   0  0  0  0  0  0  0  0  0  0  0  0
    3.2348    2.3201    8.2842 H   0  0  0  0  0  0  0  0  0  0  0  0
    4.4813    1.2654    7.5789 H   0  0  0  0  0  0  0  0  0  0  0  0
    1.7860   -2.4036    7.1511 H   0  0  0  0  0  0  0  0  0  0  0  0
    2.6524   -4.1213    5.6079 H   0  0  0  0  0  0  0  0  0  0  0  0
    3.8121   -1.2981   -4.0592 H   0  0  0  0  0  0  0  0  0  0  0  0
    5.9667   -0.5793   -4.9272 H   0  0  0  0  0  0  0  0  0  0  0  0
    7.9294    0.1729   -5.9171 H   0  0  0  0  0  0  0  0  0  0  0  0
    8.8123    1.6917   -5.6639 H   0  0  0  0  0  0  0  0  0  0  0  0
    7.0462    1.6579   -5.4334 H   0  0  0  0  0  0  0  0  0  0  0  0
    7.1039    0.7484   -1.0277 H   0  0  0  0  0  0  0  0  0  0  0  0
    4.9026    0.1017   -0.1679 H   0  0  0  0  0  0  0  0  0  0  0  0
    0.9527   -2.7671   -1.3949 H   0  0  0  0  0  0  0  0  0  0  0  0
   -1.0509   -2.8235   -2.8002 H   0  0  0  0  0  0  0  0  0  0  0  0
   -1.2954    0.4489   -6.5355 H   0  0  0  0  0  0  0  0  0  0  0  0
   -3.0488    0.3660   -6.2614 H   0  0  0  0  0  0  0  0  0  0  0  0
   -2.0171    1.1559   -5.0514 H   0  0  0  0  0  0  0  0  0  0  0  0
    0.3652    0.5984   -4.9463 H   0  0  0  0  0  0  0  0  0  0  0  0
    2.3565    0.6426   -3.5519 H   0  0  0  0  0  0  0  0  0  0  0  0
    0.8885    0.7495    3.0553 H   0  0  0  0  0  0  0  0  0  0  0  0
    0.7570    1.7327    5.2688 H   0  0  0  0  0  0  0  0  0  0  0  0
   -0.0526    4.1395    7.9748 H   0  0  0  0  0  0  0  0  0  0  0  0
    0.5183    2.5563    7.4057 H   0  0  0  0  0  0  0  0  0  0  0  0
   -0.6826    3.4796    6.4473 H   0  0  0  0  0  0  0  0  0  0  0  0
    2.4115    5.3754    3.7571 H   0  0  0  0  0  0  0  0  0  0  0  0
    2.5221    4.3924    1.5080 H   0  0  0  0  0  0  0  0  0  0  0  0
    1.1383    2.2077   -1.7272 H   0  0  0  0  0  0  0  0  0  0  0  0
    2.6947    2.9379   -3.4955 H   0  0  0  0  0  0  0  0  0  0  0  0
    7.4372    3.1882   -2.3191 H   0  0  0  0  0  0  0  0  0  0  0  0
    6.7912    4.8477   -2.0700 H   0  0  0  0  0  0  0  0  0  0  0  0
    7.5851    4.4093   -3.5985 H   0  0  0  0  0  0  0  0  0  0  0  0
    5.8207    3.2733   -0.6033 H   0  0  0  0  0  0  0  0  0  0  0  0
    4.2774    2.5837    1.1487 H   0  0  0  0  0  0  0  0  0  0  0  0
   -5.2684   -2.0030    1.5482 H   0  0  0  0  0  0  0  0  0  0  0  0
   -5.5522   -4.0520    0.2641 H   0  0  0  0  0  0  0  0  0  0  0  0
   -6.8676   -5.0012   -1.6371 H   0  0  0  0  0  0  0  0  0  0  0  0
   -5.7155   -6.0999   -0.8066 H   0  0  0  0  0  0  0  0  0  0  0  0
   -6.2550   -6.4507   -2.4620 H   0  0  0  0  0  0  0  0  0  0  0  0
   -3.3920   -2.3133   -2.9888 H   0  0  0  0  0  0  0  0  0  0  0  0
   -3.1482   -0.2278   -1.7150 H   0  0  0  0  0  0  0  0  0  0  0  0
   -3.8243    1.6347    2.9658 H   0  0  0  0  0  0  0  0  0  0  0  0
   -5.6484    2.6670    4.2441 H   0  0  0  0  0  0  0  0  0  0  0  0
  -10.7512    2.4596    4.0095 H   0  0  0  0  0  0  0  0  0  0  0  0
  -10.1827    2.2793    2.3394 H   0  0  0  0  0  0  0  0  0  0  0  0
   -9.9666    0.9407    3.5218 H   0  0  0  0  0  0  0  0  0  0  0  0
   -8.5041    0.7862    1.6754 H   0  0  0  0  0  0  0  0  0  0  0  0
   -6.7028   -0.2371    0.4248 H   0  0  0  0  0  0  0  0  0  0  0  0
  -13.0797    0.6312   -0.6487 H   0  0  0  0  0  0  0  0  0  0  0  0
  -13.4678    1.0080   -2.3345 H   0  0  0  0  0  0  0  0  0  0  0  0
  -13.3362    3.4486   -1.8058 H   0  0  0  0  0  0  0  0  0  0  0  0
  -14.4975    2.6480   -0.7453 H   0  0  0  0  0  0  0  0  0  0  0  0
  -12.8911    3.0708   -0.1389 H   0  0  0  0  0  0  0  0  0  0  0  0
   -5.7886   -3.1460   -5.3790 H   0  0  0  0  0  0  0  0  0  0  0  0
   -4.3661   -2.1017   -5.5123 H   0  0  0  0  0  0  0  0  0  0  0  0
   -7.1102   -1.5196   -6.7352 H   0  0  0  0  0  0  0  0  0  0  0  0
   -5.6688   -2.0369   -7.6154 H   0  0  0  0  0  0  0  0  0  0  0  0
   -5.7111   -0.4508   -6.8343 H   0  0  0  0  0  0  0  0  0  0  0  0
   -8.7302    4.6752    1.1293 H   0  0  0  0  0  0  0  0  0  0  0  0
  -11.0064    9.6102    2.5201 H   0  0  0  0  0  0  0  0  0  0  0  0
  1  2  2  0  0  0  0
  2  3  1  0  0  0  0
  3  4  2  0  0  0  0
  3  5  1  0  0  0  0
  5  6  2  0  0  0  0
  6  7  1  0  0  0  0
  7  8  2  0  0  0  0
  8  9  1  0  0  0  0
  9 10  2  0  0  0  0
 10 11  1  0  0  0  0
 11 12  2  0  0  0  0
 12 13  1  0  0  0  0
 13 14  3  0  0  0  0
 12 15  1  0  0  0  0
 15 16  3  0  0  0  0
  8 17  1  0  0  0  0
 17 18  1  0  0  0  0
 18 19  1  0  0  0  0
 19 20  2  0  0  0  0
 20 21  1  0  0  0  0
 21 22  1  0  0  0  0
 21 23  1  0  0  0  0
  1 24  1  0  0  0  0
 24 25  2  0  0  0  0
 25 26  1  0  0  0  0
 26 27  1  0  0  0  0
 27 28  2  0  0  0  0
 28 29  1  0  0  0  0
 29 30  2  0  0  0  0
 30 31  1  0  0  0  0
 31 32  1  0  0  0  0
 30 33  1  0  0  0  0
 33 34  2  0  0  0  0
 26 35  1  0  0  0  0
 35 36  2  0  0  0  0
 36 37  1  0  0  0  0
 37 38  2  0  0  0  0
 38 39  1  0  0  0  0
 39 40  1  0  0  0  0
 38 41  1  0  0  0  0
 41 42  2  0  0  0  0
 25 43  1  0  0  0  0
 43 44  1  0  0  0  0
 44 45  1  0  0  0  0
 45 46  2  0  0  0  0
 46 47  1  0  0  0  0
 47 48  1  0  0  0  0
 48 49  2  0  0  0  0
 49 50  1  0  0  0  0
 50 51  2  0  0  0  0
 51 52  1  0  0  0  0
 52 53  1  0  0  0  0
 51 54  1  0  0  0  0
 54 55  2  0  0  0  0
 47 56  1  0  0  0  0
 56 57  2  0  0  0  0
 57 58  1  0  0  0  0
 58 59  2  0  0  0  0
 59 60  1  0  0  0  0
 60 61  1  0  0  0  0
 59 62  1  0  0  0  0
 62 63  2  0  0  0  0
 46 64  1  0  0  0  0
 64 65  1  0  0  0  0
 45 66  1  0  0  0  0
 66 67  2  0  0  0  0
 67 68  1  0  0  0  0
 68 69  1  0  0  0  0
 69 70  2  0  0  0  0
 70 71  1  0  0  0  0
 71 72  2  0  0  0  0
 72 73  1  0  0  0  0
 73 74  1  0  0  0  0
 72 75  1  0  0  0  0
 75 76  2  0  0  0  0
 68 77  1  0  0  0  0
 77 78  2  0  0  0  0
 78 79  1  0  0  0  0
 79 80  2  0  0  0  0
 80 81  1  0  0  0  0
 81 82  1  0  0  0  0
 80 83  1  0  0  0  0
 83 84  2  0  0  0  0
 67 85  1  0  0  0  0
 85 86  1  0  0  0  0
 86 87  1  0  0  0  0
 87 88  2  0  0  0  0
 88 89  1  0  0  0  0
 89 90  1  0  0  0  0
 90 91  2  0  0  0  0
 91 92  1  0  0  0  0
 92 93  2  0  0  0  0
 93 94  1  0  0  0  0
 94 95  1  0  0  0  0
 93 96  1  0  0  0  0
 96 97  2  0  0  0  0
 89 98  1  0  0  0  0
 98 99  2  0  0  0  0
 99100  1  0  0  0  0
100101  2  0  0  0  0
101102  1  0  0  0  0
102103  1  0  0  0  0
101104  1  0  0  0  0
104105  2  0  0  0  0
 88106  1  0  0  0  0
106107  1  0  0  0  0
 87108  1  0  0  0  0
108109  2  0  0  0  0
109110  1  0  0  0  0
109111  1  0  0  0  0
111112  1  0  0  0  0
111113  2  0  0  0  0
113114  1  0  0  0  0
114115  2  0  0  0  0
115116  1  0  0  0  0
116117  1  0  0  0  0
117118  1  0  0  0  0
118119  1  0  0  0  0
119120  1  0  0  0  0
120121  1  0  0  0  0
119122  2  0  0  0  0
122123  1  0  0  0  0
123124  1  0  0  0  0
122125  1  0  0  0  0
116126  2  0  0  0  0
126127  1  0  0  0  0
127128  2  0  0  0  0
126129  1  0  0  0  0
129130  1  0  0  0  0
130131  1  0  0  0  0
131132  1  0  0  0  0
132133  1  0  0  0  0
131134  2  0  0  0  0
134135  1  0  0  0  0
134136  1  0  0  0  0
136137  1  0  0  0  0
113138  1  0  0  0  0
138139  2  0  0  0  0
139140  1  0  0  0  0
140141  2  0  0  0  0
140142  1  0  0  0  0
142143  2  0  0  0  0
143144  1  0  0  0  0
144145  2  0  0  0  0
145146  1  0  0  0  0
145147  1  0  0  0  0
147148  1  0  0  0  0
147149  2  0  0  0  0
149150  1  0  0  0  0
143151  1  0  0  0  0
151152  2  0  0  0  0
152153  1  0  0  0  0
153154  3  0  0  0  0
152155  1  0  0  0  0
155156  3  0  0  0  0
 11  2  1  0  0  0  0
 23 17  1  0  0  0  0
 65 24  1  0  0  0  0
107 66  1  0  0  0  0
128108  1  0  0  0  0
136129  2  0  0  0  0
151139  1  0  0  0  0
 10  5  1  0  0  0  0
 22 18  1  0  0  0  0
 34 27  1  0  0  0  0
 42 35  1  0  0  0  0
 64 43  2  0  0  0  0
 76 69  1  0  0  0  0
 84 77  1  0  0  0  0
106 85  2  0  0  0  0
128114  1  0  0  0  0
149142  1  0  0  0  0
 23  7  1  0  0  0  0
 55 48  1  0  0  0  0
 63 56  1  0  0  0  0
 97 90  1  0  0  0  0
105 98  1  0  0  0  0
123117  2  0  0  0  0
  1157  1  0  0  0  0
  6158  1  0  0  0  0
  9159  1  0  0  0  0
 17160  1  0  0  0  0
 18161  1  0  0  0  0
 19162  1  0  0  0  0
 20163  1  0  0  0  0
 21164  1  0  0  0  0
 22165  1  0  0  0  0
 22166  1  0  0  0  0
 23167  1  0  0  0  0
 28168  1  0  0  0  0
 29169  1  0  0  0  0
 32170  1  0  0  0  0
 32171  1  0  0  0  0
 32172  1  0  0  0  0
 33173  1  0  0  0  0
 34174  1  0  0  0  0
 36175  1  0  0  0  0
 37176  1  0  0  0  0
 40177  1  0  0  0  0
 40178  1  0  0  0  0
 40179  1  0  0  0  0
 41180  1  0  0  0  0
 42181  1  0  0  0  0
 49182  1  0  0  0  0
 50183  1  0  0  0  0
 53184  1  0  0  0  0
 53185  1  0  0  0  0
 53186  1  0  0  0  0
 54187  1  0  0  0  0
 55188  1  0  0  0  0
 57189  1  0  0  0  0
 58190  1  0  0  0  0
 61191  1  0  0  0  0
 61192  1  0  0  0  0
 61193  1  0  0  0  0
 62194  1  0  0  0  0
 63195  1  0  0  0  0
 70196  1  0  0  0  0
 71197  1  0  0  0  0
 74198  1  0  0  0  0
 74199  1  0  0  0  0
 74200  1  0  0  0  0
 75201  1  0  0  0  0
 76202  1  0  0  0  0
 78203  1  0  0  0  0
 79204  1  0  0  0  0
 82205  1  0  0  0  0
 82206  1  0  0  0  0
 82207  1  0  0  0  0
 83208  1  0  0  0  0
 84209  1  0  0  0  0
 91210  1  0  0  0  0
 92211  1  0  0  0  0
 95212  1  0  0  0  0
 95213  1  0  0  0  0
 95214  1  0  0  0  0
 96215  1  0  0  0  0
 97216  1  0  0  0  0
 99217  1  0  0  0  0
100218  1  0  0  0  0
103219  1  0  0  0  0
103220  1  0  0  0  0
103221  1  0  0  0  0
104222  1  0  0  0  0
105223  1  0  0  0  0
120224  1  0  0  0  0
120225  1  0  0  0  0
121226  1  0  0  0  0
121227  1  0  0  0  0
121228  1  0  0  0  0
132229  1  0  0  0  0
132230  1  0  0  0  0
133231  1  0  0  0  0
133232  1  0  0  0  0
133233  1  0  0  0  0
138234  1  0  0  0  0
144235  1  0  0  0  0
M  END
