
  xtb     02162214433D
 energy: -364.692971322946 gnorm: 0.000584859166 xtb: 6.4.1 (unknown)
218240  0     0  0            999 V2000
    0.3711   -4.7597   -7.1738 C   0  0  0  0  0  0  0  0  0  0  0  0
   -0.5090   -5.8069   -7.3297 C   0  0  0  0  0  0  0  0  0  0  0  0
   -1.6840   -6.0334   -6.4723 C   0  0  0  0  0  0  0  0  0  0  0  0
   -2.0299   -5.3777   -5.5063 O   0  0  0  0  0  0  0  0  0  0  0  0
   -2.4340   -7.1380   -7.1055 C   0  0  0  0  0  0  0  0  0  0  0  0
   -3.6142   -7.7195   -6.6527 C   0  0  0  0  0  0  0  0  0  0  0  0
   -4.0634   -8.7569   -7.4357 C   0  0  0  0  0  0  0  0  0  0  0  0
   -3.3932   -9.1804   -8.5896 C   0  0  0  0  0  0  0  0  0  0  0  0
   -2.2303   -8.6105   -9.0520 C   0  0  0  0  0  0  0  0  0  0  0  0
   -1.7568   -7.5567   -8.2676 C   0  0  0  0  0  0  0  0  0  0  0  0
   -0.5490   -6.7493   -8.4125 C   0  0  0  0  0  0  0  0  0  0  0  0
    0.4617   -6.9617   -9.3190 C   0  0  0  0  0  0  0  0  0  0  0  0
    0.4366   -7.9324  -10.3372 C   0  0  0  0  0  0  0  0  0  0  0  0
    0.4977   -8.7016  -11.1889 N   0  0  0  0  0  0  0  0  0  0  0  0
    1.6978   -6.2879   -9.2864 C   0  0  0  0  0  0  0  0  0  0  0  0
    2.7487   -5.8219   -9.2897 N   0  0  0  0  0  0  0  0  0  0  0  0
   -4.4067  -10.2592   -8.8808 C   0  0  0  0  0  0  0  0  0  0  0  0
   -5.4308   -9.9613   -9.9961 C   0  0  0  0  0  0  0  0  0  0  0  0
   -6.5496  -10.9426   -9.7315 C   0  0  0  0  0  0  0  0  0  0  0  0
   -7.1841  -10.5453   -8.6359 C   0  0  0  0  0  0  0  0  0  0  0  0
   -6.5051   -9.2882   -8.1421 C   0  0  0  0  0  0  0  0  0  0  0  0
   -6.0843   -8.6717   -9.4824 C   0  0  0  0  0  0  0  0  0  0  0  0
   -5.1533   -9.7893   -7.5912 C   0  0  0  0  0  0  0  0  0  0  0  0
    0.6373   -4.0825   -5.9793 C   0  0  0  0  0  0  0  0  0  0  0  0
    0.5145   -4.4790   -4.6330 C   0  0  0  0  0  0  0  0  0  0  0  0
    0.2439   -5.7348   -4.1673 N   0  0  0  0  0  0  0  0  0  0  0  0
   -0.3054   -5.8740   -2.8758 C   0  0  0  0  0  0  0  0  0  0  0  0
    0.2270   -6.8049   -1.9862 C   0  0  0  0  0  0  0  0  0  0  0  0
   -0.2660   -6.8858   -0.7026 C   0  0  0  0  0  0  0  0  0  0  0  0
   -1.2914   -6.0373   -0.2847 C   0  0  0  0  0  0  0  0  0  0  0  0
   -1.7788   -6.1515    1.4059 S   0  0  0  0  0  0  0  0  0  0  0  0
   -2.7329   -4.6288    1.6683 C   0  0  0  0  0  0  0  0  0  0  0  0
   -1.8659   -5.1564   -1.1917 C   0  0  0  0  0  0  0  0  0  0  0  0
   -1.3758   -5.0786   -2.4800 C   0  0  0  0  0  0  0  0  0  0  0  0
    0.4929   -6.8958   -4.9080 C   0  0  0  0  0  0  0  0  0  0  0  0
    1.6283   -7.0197   -5.7060 C   0  0  0  0  0  0  0  0  0  0  0  0
    1.8254   -8.1406   -6.4860 C   0  0  0  0  0  0  0  0  0  0  0  0
    0.8842   -9.1649   -6.4863 C   0  0  0  0  0  0  0  0  0  0  0  0
    0.9708  -10.5919   -7.5115 S   0  0  0  0  0  0  0  0  0  0  0  0
    2.4932  -10.3644   -8.4709 C   0  0  0  0  0  0  0  0  0  0  0  0
   -0.2197   -9.0743   -5.6390 C   0  0  0  0  0  0  0  0  0  0  0  0
   -0.4130   -7.9583   -4.8569 C   0  0  0  0  0  0  0  0  0  0  0  0
    0.8324   -3.3965   -3.7731 C   0  0  0  0  0  0  0  0  0  0  0  0
    0.8039   -3.1758   -2.0604 S   0  0  0  0  0  0  0  0  0  0  0  0
    1.3633   -1.5282   -2.2323 C   0  0  0  0  0  0  0  0  0  0  0  0
    1.5496   -1.1615   -3.5546 C   0  0  0  0  0  0  0  0  0  0  0  0
    1.9066    0.0994   -4.0051 N   0  0  0  0  0  0  0  0  0  0  0  0
    1.4883    1.2442   -3.3177 C   0  0  0  0  0  0  0  0  0  0  0  0
    0.2094    1.3156   -2.7637 C   0  0  0  0  0  0  0  0  0  0  0  0
   -0.1486    2.3862   -1.9750 C   0  0  0  0  0  0  0  0  0  0  0  0
    0.7568    3.4155   -1.7373 C   0  0  0  0  0  0  0  0  0  0  0  0
    0.2709    4.7135   -0.6377 S   0  0  0  0  0  0  0  0  0  0  0  0
    1.8662    5.1881    0.0889 C   0  0  0  0  0  0  0  0  0  0  0  0
    1.9976    3.3936   -2.3595 C   0  0  0  0  0  0  0  0  0  0  0  0
    2.3621    2.3142   -3.1374 C   0  0  0  0  0  0  0  0  0  0  0  0
    2.7101    0.2060   -5.1502 C   0  0  0  0  0  0  0  0  0  0  0  0
    2.4977    1.2323   -6.0707 C   0  0  0  0  0  0  0  0  0  0  0  0
    3.2600    1.3040   -7.2142 C   0  0  0  0  0  0  0  0  0  0  0  0
    4.2444    0.3508   -7.4717 C   0  0  0  0  0  0  0  0  0  0  0  0
    5.1430    0.5214   -8.9806 S   0  0  0  0  0  0  0  0  0  0  0  0
    5.9523   -1.0927   -9.1756 C   0  0  0  0  0  0  0  0  0  0  0  0
    4.4778   -0.6552   -6.5448 C   0  0  0  0  0  0  0  0  0  0  0  0
    3.7196   -0.7214   -5.3922 C   0  0  0  0  0  0  0  0  0  0  0  0
    1.2520   -2.2440   -4.4206 C   0  0  0  0  0  0  0  0  0  0  0  0
    1.2825   -2.4404   -6.1324 S   0  0  0  0  0  0  0  0  0  0  0  0
    1.4837   -0.6741   -1.0648 C   0  0  0  0  0  0  0  0  0  0  0  0
    2.5779    0.1738   -0.8785 C   0  0  0  0  0  0  0  0  0  0  0  0
    2.6255    1.0635    0.1700 C   0  0  0  0  0  0  0  0  0  0  0  0
    1.5832    1.1562    1.0941 C   0  0  0  0  0  0  0  0  0  0  0  0
    0.5040    0.2883    0.9294 C   0  0  0  0  0  0  0  0  0  0  0  0
   -0.5100    0.2981    1.8130 F   0  0  0  0  0  0  0  0  0  0  0  0
    0.4651   -0.6180   -0.1129 C   0  0  0  0  0  0  0  0  0  0  0  0
   -0.6019   -1.4376   -0.2097 F   0  0  0  0  0  0  0  0  0  0  0  0
    1.6210    2.0913    2.2066 C   0  0  0  0  0  0  0  0  0  0  0  0
    2.6435    2.2571    3.1262 C   0  0  0  0  0  0  0  0  0  0  0  0
    3.7956    1.4923    3.1691 N   0  0  0  0  0  0  0  0  0  0  0  0
    4.9958    2.0576    3.6097 C   0  0  0  0  0  0  0  0  0  0  0  0
    5.2882    3.3945    3.3531 C   0  0  0  0  0  0  0  0  0  0  0  0
    6.4637    3.9616    3.8077 C   0  0  0  0  0  0  0  0  0  0  0  0
    7.3744    3.1950    4.5194 C   0  0  0  0  0  0  0  0  0  0  0  0
    8.9082    3.8031    5.1466 S   0  0  0  0  0  0  0  0  0  0  0  0
    8.8314    5.5890    4.8294 C   0  0  0  0  0  0  0  0  0  0  0  0
    7.0948    1.8499    4.7603 C   0  0  0  0  0  0  0  0  0  0  0  0
    5.9211    1.2872    4.3159 C   0  0  0  0  0  0  0  0  0  0  0  0
    3.7320    0.1493    2.7594 C   0  0  0  0  0  0  0  0  0  0  0  0
    4.7110   -0.3886    1.9253 C   0  0  0  0  0  0  0  0  0  0  0  0
    4.5500   -1.6501    1.3971 C   0  0  0  0  0  0  0  0  0  0  0  0
    3.4128   -2.4007    1.6887 C   0  0  0  0  0  0  0  0  0  0  0  0
    3.2387   -3.9447    0.8536 S   0  0  0  0  0  0  0  0  0  0  0  0
    1.5380   -4.4462    1.2310 C   0  0  0  0  0  0  0  0  0  0  0  0
    2.4834   -1.9039    2.5932 C   0  0  0  0  0  0  0  0  0  0  0  0
    2.6464   -0.6410    3.1252 C   0  0  0  0  0  0  0  0  0  0  0  0
    2.3060    3.2572    4.0728 C   0  0  0  0  0  0  0  0  0  0  0  0
    3.0692    3.9323    5.4666 S   0  0  0  0  0  0  0  0  0  0  0  0
    1.6408    4.8905    5.8240 C   0  0  0  0  0  0  0  0  0  0  0  0
    0.6452    4.7235    4.8702 C   0  0  0  0  0  0  0  0  0  0  0  0
   -0.4903    5.5300    4.7267 N   0  0  0  0  0  0  0  0  0  0  0  0
   -1.6927    5.2581    5.3875 C   0  0  0  0  0  0  0  0  0  0  0  0
   -2.5173    6.3205    5.7614 C   0  0  0  0  0  0  0  0  0  0  0  0
   -3.6918    6.0791    6.4345 C   0  0  0  0  0  0  0  0  0  0  0  0
   -4.0736    4.7736    6.7468 C   0  0  0  0  0  0  0  0  0  0  0  0
   -5.5766    4.5916    7.6530 S   0  0  0  0  0  0  0  0  0  0  0  0
   -5.5760    2.8467    8.1520 C   0  0  0  0  0  0  0  0  0  0  0  0
   -3.2726    3.7135    6.3475 C   0  0  0  0  0  0  0  0  0  0  0  0
   -2.0861    3.9561    5.6775 C   0  0  0  0  0  0  0  0  0  0  0  0
   -0.4953    6.3167    3.5620 C   0  0  0  0  0  0  0  0  0  0  0  0
    0.6475    7.0450    3.2295 C   0  0  0  0  0  0  0  0  0  0  0  0
    0.6896    7.7763    2.0628 C   0  0  0  0  0  0  0  0  0  0  0  0
   -0.4022    7.7875    1.1968 C   0  0  0  0  0  0  0  0  0  0  0  0
   -0.2227    8.7048   -0.2990 S   0  0  0  0  0  0  0  0  0  0  0  0
   -1.5365    8.0350   -1.3566 C   0  0  0  0  0  0  0  0  0  0  0  0
   -1.5525    7.0902    1.5420 C   0  0  0  0  0  0  0  0  0  0  0  0
   -1.5975    6.3615    2.7135 C   0  0  0  0  0  0  0  0  0  0  0  0
    1.0469    3.8015    3.8782 C   0  0  0  0  0  0  0  0  0  0  0  0
    0.2336    3.1082    2.5270 S   0  0  0  0  0  0  0  0  0  0  0  0
    1.6847    5.8302    6.8914 C   0  0  0  0  0  0  0  0  0  0  0  0
    0.7068    6.1464    7.7777 C   0  0  0  0  0  0  0  0  0  0  0  0
    0.7467    7.4573    8.4900 C   0  0  0  0  0  0  0  0  0  0  0  0
    1.6627    8.2478    8.4861 O   0  0  0  0  0  0  0  0  0  0  0  0
   -0.5685    7.5886    9.1417 C   0  0  0  0  0  0  0  0  0  0  0  0
   -1.0767    8.7034    9.8078 C   0  0  0  0  0  0  0  0  0  0  0  0
   -2.3486    8.5310   10.2990 C   0  0  0  0  0  0  0  0  0  0  0  0
   -3.0683    7.3382   10.1399 C   0  0  0  0  0  0  0  0  0  0  0  0
   -2.5786    6.2301    9.4936 C   0  0  0  0  0  0  0  0  0  0  0  0
   -1.2872    6.3856    8.9839 C   0  0  0  0  0  0  0  0  0  0  0  0
   -0.4641    5.4382    8.2393 C   0  0  0  0  0  0  0  0  0  0  0  0
   -0.6582    4.0821    8.2101 C   0  0  0  0  0  0  0  0  0  0  0  0
    0.2028    3.1533    7.5930 C   0  0  0  0  0  0  0  0  0  0  0  0
    0.8537    2.3284    7.1296 N   0  0  0  0  0  0  0  0  0  0  0  0
   -1.7076    3.4208    8.8774 C   0  0  0  0  0  0  0  0  0  0  0  0
   -2.5193    2.8100    9.4141 N   0  0  0  0  0  0  0  0  0  0  0  0
   -4.2729    7.8712   10.8721 C   0  0  0  0  0  0  0  0  0  0  0  0
   -4.4663    7.3819   12.3228 C   0  0  0  0  0  0  0  0  0  0  0  0
   -5.4008    8.4041   12.9280 C   0  0  0  0  0  0  0  0  0  0  0  0
   -4.7183    9.5310   13.0860 C   0  0  0  0  0  0  0  0  0  0  0  0
   -3.3107    9.2893   12.5899 C   0  0  0  0  0  0  0  0  0  0  0  0
   -3.1458    7.8133   12.9741 C   0  0  0  0  0  0  0  0  0  0  0  0
   -3.4696    9.1990   11.0570 C   0  0  0  0  0  0  0  0  0  0  0  0
    0.8881   -4.3830   -8.0486 H   0  0  0  0  0  0  0  0  0  0  0  0
   -4.0975   -7.3682   -5.7542 H   0  0  0  0  0  0  0  0  0  0  0  0
   -1.7238   -8.9454   -9.9418 H   0  0  0  0  0  0  0  0  0  0  0  0
   -4.0194  -11.2755   -8.9177 H   0  0  0  0  0  0  0  0  0  0  0  0
   -5.0182   -9.9483  -11.0011 H   0  0  0  0  0  0  0  0  0  0  0  0
   -6.7234  -11.8264  -10.3168 H   0  0  0  0  0  0  0  0  0  0  0  0
   -7.9937  -11.0311   -8.1233 H   0  0  0  0  0  0  0  0  0  0  0  0
   -7.0725   -8.6621   -7.4585 H   0  0  0  0  0  0  0  0  0  0  0  0
   -5.3970   -7.8331   -9.3880 H   0  0  0  0  0  0  0  0  0  0  0  0
   -6.9405   -8.3752  -10.0862 H   0  0  0  0  0  0  0  0  0  0  0  0
   -5.2631  -10.4931   -6.7681 H   0  0  0  0  0  0  0  0  0  0  0  0
    1.0380   -7.4450   -2.3004 H   0  0  0  0  0  0  0  0  0  0  0  0
    0.1480   -7.5951   -0.0020 H   0  0  0  0  0  0  0  0  0  0  0  0
   -2.1713   -3.7775    1.2956 H   0  0  0  0  0  0  0  0  0  0  0  0
   -2.8663   -4.5468    2.7425 H   0  0  0  0  0  0  0  0  0  0  0  0
   -3.7026   -4.7034    1.1848 H   0  0  0  0  0  0  0  0  0  0  0  0
   -2.6922   -4.5258   -0.9087 H   0  0  0  0  0  0  0  0  0  0  0  0
   -1.8285   -4.4132   -3.1981 H   0  0  0  0  0  0  0  0  0  0  0  0
    2.3619   -6.2279   -5.7268 H   0  0  0  0  0  0  0  0  0  0  0  0
    2.7105   -8.1951   -7.0988 H   0  0  0  0  0  0  0  0  0  0  0  0
    3.3517  -10.3381   -7.8062 H   0  0  0  0  0  0  0  0  0  0  0  0
    2.4278   -9.4633   -9.0735 H   0  0  0  0  0  0  0  0  0  0  0  0
    2.5552  -11.2309   -9.1217 H   0  0  0  0  0  0  0  0  0  0  0  0
   -0.9352   -9.8818   -5.6230 H   0  0  0  0  0  0  0  0  0  0  0  0
   -1.2794   -7.8872   -4.2173 H   0  0  0  0  0  0  0  0  0  0  0  0
   -0.4936    0.5149   -2.9384 H   0  0  0  0  0  0  0  0  0  0  0  0
   -1.1282    2.4315   -1.5250 H   0  0  0  0  0  0  0  0  0  0  0  0
    2.3991    5.8636   -0.5738 H   0  0  0  0  0  0  0  0  0  0  0  0
    2.4431    4.2890    0.2843 H   0  0  0  0  0  0  0  0  0  0  0  0
    1.6324    5.6981    1.0185 H   0  0  0  0  0  0  0  0  0  0  0  0
    2.6927    4.2076   -2.2293 H   0  0  0  0  0  0  0  0  0  0  0  0
    3.3393    2.2874   -3.5964 H   0  0  0  0  0  0  0  0  0  0  0  0
    1.7219    1.9604   -5.8873 H   0  0  0  0  0  0  0  0  0  0  0  0
    3.0911    2.0901   -7.9338 H   0  0  0  0  0  0  0  0  0  0  0  0
    6.7532   -1.2047   -8.4504 H   0  0  0  0  0  0  0  0  0  0  0  0
    6.3659   -1.0935  -10.1793 H   0  0  0  0  0  0  0  0  0  0  0  0
    5.2149   -1.8837   -9.0777 H   0  0  0  0  0  0  0  0  0  0  0  0
    5.2495   -1.3908   -6.7030 H   0  0  0  0  0  0  0  0  0  0  0  0
    3.9152   -1.5013   -4.6704 H   0  0  0  0  0  0  0  0  0  0  0  0
    3.4009    0.1193   -1.5727 H   0  0  0  0  0  0  0  0  0  0  0  0
    3.4788    1.7146    0.2792 H   0  0  0  0  0  0  0  0  0  0  0  0
    4.5956    3.9974    2.7833 H   0  0  0  0  0  0  0  0  0  0  0  0
    6.6560    4.9996    3.5900 H   0  0  0  0  0  0  0  0  0  0  0  0
    8.8425    5.7816    3.7604 H   0  0  0  0  0  0  0  0  0  0  0  0
    9.7244    6.0048    5.2856 H   0  0  0  0  0  0  0  0  0  0  0  0
    7.9469    6.0087    5.2992 H   0  0  0  0  0  0  0  0  0  0  0  0
    7.8083    1.2577    5.3120 H   0  0  0  0  0  0  0  0  0  0  0  0
    5.7045    0.2495    4.5188 H   0  0  0  0  0  0  0  0  0  0  0  0
    5.5809    0.1995    1.6732 H   0  0  0  0  0  0  0  0  0  0  0  0
    5.2902   -2.0599    0.7276 H   0  0  0  0  0  0  0  0  0  0  0  0
    1.4437   -4.7127    2.2795 H   0  0  0  0  0  0  0  0  0  0  0  0
    0.8523   -3.6497    0.9585 H   0  0  0  0  0  0  0  0  0  0  0  0
    1.3459   -5.3166    0.6115 H   0  0  0  0  0  0  0  0  0  0  0  0
    1.6255   -2.4863    2.8875 H   0  0  0  0  0  0  0  0  0  0  0  0
    1.9131   -0.2534    3.8168 H   0  0  0  0  0  0  0  0  0  0  0  0
   -2.2179    7.3305    5.5243 H   0  0  0  0  0  0  0  0  0  0  0  0
   -4.3246    6.8977    6.7412 H   0  0  0  0  0  0  0  0  0  0  0  0
   -6.4152    2.7387    8.8320 H   0  0  0  0  0  0  0  0  0  0  0  0
   -4.6464    2.6158    8.6663 H   0  0  0  0  0  0  0  0  0  0  0  0
   -5.7221    2.2101    7.2840 H   0  0  0  0  0  0  0  0  0  0  0  0
   -3.5551    2.6935    6.5514 H   0  0  0  0  0  0  0  0  0  0  0  0
   -1.4680    3.1265    5.3666 H   0  0  0  0  0  0  0  0  0  0  0  0
    1.5019    7.0300    3.8901 H   0  0  0  0  0  0  0  0  0  0  0  0
    1.5724    8.3409    1.8030 H   0  0  0  0  0  0  0  0  0  0  0  0
   -1.4820    6.9503   -1.3463 H   0  0  0  0  0  0  0  0  0  0  0  0
   -1.3316    8.4109   -2.3542 H   0  0  0  0  0  0  0  0  0  0  0  0
   -2.5076    8.3901   -1.0240 H   0  0  0  0  0  0  0  0  0  0  0  0
   -2.4164    7.0939    0.8980 H   0  0  0  0  0  0  0  0  0  0  0  0
   -2.4882    5.8061    2.9659 H   0  0  0  0  0  0  0  0  0  0  0  0
    2.5880    6.4308    6.9589 H   0  0  0  0  0  0  0  0  0  0  0  0
   -0.4922    9.6048    9.9060 H   0  0  0  0  0  0  0  0  0  0  0  0
   -3.1473    5.3248    9.3684 H   0  0  0  0  0  0  0  0  0  0  0  0
   -5.1997    7.8937   10.3024 H   0  0  0  0  0  0  0  0  0  0  0  0
   -4.7542    6.3384   12.4148 H   0  0  0  0  0  0  0  0  0  0  0  0
   -6.4422    8.2250   13.1208 H   0  0  0  0  0  0  0  0  0  0  0  0
   -5.0755   10.4811   13.4375 H   0  0  0  0  0  0  0  0  0  0  0  0
   -2.5467    9.9840   12.9285 H   0  0  0  0  0  0  0  0  0  0  0  0
   -3.1517    7.6662   14.0528 H   0  0  0  0  0  0  0  0  0  0  0  0
   -2.2644    7.3385   12.5470 H   0  0  0  0  0  0  0  0  0  0  0  0
   -3.8626   10.1130   10.6157 H   0  0  0  0  0  0  0  0  0  0  0  0
  1  2  2  0  0  0  0
  2  3  1  0  0  0  0
  3  4  2  0  0  0  0
  3  5  1  0  0  0  0
  5  6  2  0  0  0  0
  6  7  1  0  0  0  0
  7  8  2  0  0  0  0
  8  9  1  0  0  0  0
  9 10  2  0  0  0  0
 10 11  1  0  0  0  0
 11 12  2  0  0  0  0
 12 13  1  0  0  0  0
 13 14  3  0  0  0  0
 12 15  1  0  0  0  0
 15 16  3  0  0  0  0
  8 17  1  0  0  0  0
 17 18  1  0  0  0  0
 18 19  1  0  0  0  0
 19 20  2  0  0  0  0
 20 21  1  0  0  0  0
 21 22  1  0  0  0  0
 21 23  1  0  0  0  0
  1 24  1  0  0  0  0
 24 25  2  0  0  0  0
 25 26  1  0  0  0  0
 26 27  1  0  0  0  0
 27 28  2  0  0  0  0
 28 29  1  0  0  0  0
 29 30  2  0  0  0  0
 30 31  1  0  0  0  0
 31 32  1  0  0  0  0
 30 33  1  0  0  0  0
 33 34  2  0  0  0  0
 26 35  1  0  0  0  0
 35 36  2  0  0  0  0
 36 37  1  0  0  0  0
 37 38  2  0  0  0  0
 38 39  1  0  0  0  0
 39 40  1  0  0  0  0
 38 41  1  0  0  0  0
 41 42  2  0  0  0  0
 25 43  1  0  0  0  0
 43 44  1  0  0  0  0
 44 45  1  0  0  0  0
 45 46  2  0  0  0  0
 46 47  1  0  0  0  0
 47 48  1  0  0  0  0
 48 49  2  0  0  0  0
 49 50  1  0  0  0  0
 50 51  2  0  0  0  0
 51 52  1  0  0  0  0
 52 53  1  0  0  0  0
 51 54  1  0  0  0  0
 54 55  2  0  0  0  0
 47 56  1  0  0  0  0
 56 57  2  0  0  0  0
 57 58  1  0  0  0  0
 58 59  2  0  0  0  0
 59 60  1  0  0  0  0
 60 61  1  0  0  0  0
 59 62  1  0  0  0  0
 62 63  2  0  0  0  0
 46 64  1  0  0  0  0
 64 65  1  0  0  0  0
 45 66  1  0  0  0  0
 66 67  2  0  0  0  0
 67 68  1  0  0  0  0
 68 69  2  0  0  0  0
 69 70  1  0  0  0  0
 70 71  1  0  0  0  0
 70 72  2  0  0  0  0
 72 73  1  0  0  0  0
 69 74  1  0  0  0  0
 74 75  2  0  0  0  0
 75 76  1  0  0  0  0
 76 77  1  0  0  0  0
 77 78  2  0  0  0  0
 78 79  1  0  0  0  0
 79 80  2  0  0  0  0
 80 81  1  0  0  0  0
 81 82  1  0  0  0  0
 80 83  1  0  0  0  0
 83 84  2  0  0  0  0
 76 85  1  0  0  0  0
 85 86  2  0  0  0  0
 86 87  1  0  0  0  0
 87 88  2  0  0  0  0
 88 89  1  0  0  0  0
 89 90  1  0  0  0  0
 88 91  1  0  0  0  0
 91 92  2  0  0  0  0
 75 93  1  0  0  0  0
 93 94  1  0  0  0  0
 94 95  1  0  0  0  0
 95 96  2  0  0  0  0
 96 97  1  0  0  0  0
 97 98  1  0  0  0  0
 98 99  2  0  0  0  0
 99100  1  0  0  0  0
100101  2  0  0  0  0
101102  1  0  0  0  0
102103  1  0  0  0  0
101104  1  0  0  0  0
104105  2  0  0  0  0
 97106  1  0  0  0  0
106107  2  0  0  0  0
107108  1  0  0  0  0
108109  2  0  0  0  0
109110  1  0  0  0  0
110111  1  0  0  0  0
109112  1  0  0  0  0
112113  2  0  0  0  0
 96114  1  0  0  0  0
114115  1  0  0  0  0
 95116  1  0  0  0  0
116117  2  0  0  0  0
117118  1  0  0  0  0
118119  2  0  0  0  0
118120  1  0  0  0  0
120121  2  0  0  0  0
121122  1  0  0  0  0
122123  2  0  0  0  0
123124  1  0  0  0  0
124125  2  0  0  0  0
125126  1  0  0  0  0
126127  2  0  0  0  0
127128  1  0  0  0  0
128129  3  0  0  0  0
127130  1  0  0  0  0
130131  3  0  0  0  0
123132  1  0  0  0  0
132133  1  0  0  0  0
133134  1  0  0  0  0
134135  2  0  0  0  0
135136  1  0  0  0  0
136137  1  0  0  0  0
136138  1  0  0  0  0
 11  2  1  0  0  0  0
 23 17  1  0  0  0  0
 65 24  1  0  0  0  0
 72 66  1  0  0  0  0
115 74  1  0  0  0  0
126117  1  0  0  0  0
138132  1  0  0  0  0
 10  5  1  0  0  0  0
 22 18  1  0  0  0  0
 34 27  1  0  0  0  0
 42 35  1  0  0  0  0
 64 43  2  0  0  0  0
 84 77  1  0  0  0  0
 92 85  1  0  0  0  0
114 93  2  0  0  0  0
125120  1  0  0  0  0
137133  1  0  0  0  0
 23  7  1  0  0  0  0
 55 48  1  0  0  0  0
 63 56  1  0  0  0  0
105 98  1  0  0  0  0
113106  1  0  0  0  0
138122  1  0  0  0  0
  1139  1  0  0  0  0
  6140  1  0  0  0  0
  9141  1  0  0  0  0
 17142  1  0  0  0  0
 18143  1  0  0  0  0
 19144  1  0  0  0  0
 20145  1  0  0  0  0
 21146  1  0  0  0  0
 22147  1  0  0  0  0
 22148  1  0  0  0  0
 23149  1  0  0  0  0
 28150  1  0  0  0  0
 29151  1  0  0  0  0
 32152  1  0  0  0  0
 32153  1  0  0  0  0
 32154  1  0  0  0  0
 33155  1  0  0  0  0
 34156  1  0  0  0  0
 36157  1  0  0  0  0
 37158  1  0  0  0  0
 40159  1  0  0  0  0
 40160  1  0  0  0  0
 40161  1  0  0  0  0
 41162  1  0  0  0  0
 42163  1  0  0  0  0
 49164  1  0  0  0  0
 50165  1  0  0  0  0
 53166  1  0  0  0  0
 53167  1  0  0  0  0
 53168  1  0  0  0  0
 54169  1  0  0  0  0
 55170  1  0  0  0  0
 57171  1  0  0  0  0
 58172  1  0  0  0  0
 61173  1  0  0  0  0
 61174  1  0  0  0  0
 61175  1  0  0  0  0
 62176  1  0  0  0  0
 63177  1  0  0  0  0
 67178  1  0  0  0  0
 68179  1  0  0  0  0
 78180  1  0  0  0  0
 79181  1  0  0  0  0
 82182  1  0  0  0  0
 82183  1  0  0  0  0
 82184  1  0  0  0  0
 83185  1  0  0  0  0
 84186  1  0  0  0  0
 86187  1  0  0  0  0
 87188  1  0  0  0  0
 90189  1  0  0  0  0
 90190  1  0  0  0  0
 90191  1  0  0  0  0
 91192  1  0  0  0  0
 92193  1  0  0  0  0
 99194  1  0  0  0  0
100195  1  0  0  0  0
103196  1  0  0  0  0
103197  1  0  0  0  0
103198  1  0  0  0  0
104199  1  0  0  0  0
105200  1  0  0  0  0
107201  1  0  0  0  0
108202  1  0  0  0  0
111203  1  0  0  0  0
111204  1  0  0  0  0
111205  1  0  0  0  0
112206  1  0  0  0  0
113207  1  0  0  0  0
116208  1  0  0  0  0
121209  1  0  0  0  0
124210  1  0  0  0  0
132211  1  0  0  0  0
133212  1  0  0  0  0
134213  1  0  0  0  0
135214  1  0  0  0  0
136215  1  0  0  0  0
137216  1  0  0  0  0
137217  1  0  0  0  0
138218  1  0  0  0  0
M  END
