
  xtb     02062218393D
 energy: -391.074007375213 gnorm: 0.000249572070 xtb: 6.4.1 (unknown)
236260  0     0  0            999 V2000
   -1.8893   -6.5878    2.8970 C   0  0  0  0  0  0  0  0  0  0  0  0
   -0.8385   -6.8649    2.0720 C   0  0  0  0  0  0  0  0  0  0  0  0
   -0.0024   -5.8821    1.3545 C   0  0  0  0  0  0  0  0  0  0  0  0
    0.2639   -4.7412    1.6857 O   0  0  0  0  0  0  0  0  0  0  0  0
    0.4623   -6.5695    0.1391 C   0  0  0  0  0  0  0  0  0  0  0  0
    1.0831   -5.9923   -0.9678 C   0  0  0  0  0  0  0  0  0  0  0  0
    1.3658   -6.8830   -1.9756 C   0  0  0  0  0  0  0  0  0  0  0  0
    1.0732   -8.2510   -1.8827 C   0  0  0  0  0  0  0  0  0  0  0  0
    0.4575   -8.8330   -0.7992 C   0  0  0  0  0  0  0  0  0  0  0  0
    0.1411   -7.9410    0.2295 C   0  0  0  0  0  0  0  0  0  0  0  0
   -0.5694   -8.1679    1.4835 C   0  0  0  0  0  0  0  0  0  0  0  0
   -0.8813   -9.3755    2.0429 C   0  0  0  0  0  0  0  0  0  0  0  0
   -0.5761  -10.6203    1.4548 C   0  0  0  0  0  0  0  0  0  0  0  0
   -0.3518  -11.6581    1.0184 N   0  0  0  0  0  0  0  0  0  0  0  0
   -1.4769   -9.5242    3.3156 C   0  0  0  0  0  0  0  0  0  0  0  0
   -1.9161   -9.7185    4.3577 N   0  0  0  0  0  0  0  0  0  0  0  0
    1.6194   -8.5422   -3.2574 C   0  0  0  0  0  0  0  0  0  0  0  0
    3.0273   -9.1726   -3.3269 C   0  0  0  0  0  0  0  0  0  0  0  0
    3.4618   -8.9149   -4.7518 C   0  0  0  0  0  0  0  0  0  0  0  0
    3.7112   -7.6170   -4.8677 C   0  0  0  0  0  0  0  0  0  0  0  0
    3.4574   -6.9769   -3.5224 C   0  0  0  0  0  0  0  0  0  0  0  0
    3.8803   -8.1257   -2.5976 C   0  0  0  0  0  0  0  0  0  0  0  0
    1.9236   -7.0135   -3.3717 C   0  0  0  0  0  0  0  0  0  0  0  0
   -2.3286   -5.3191    3.3368 C   0  0  0  0  0  0  0  0  0  0  0  0
   -1.2983   -3.9235    3.4237 S   0  0  0  0  0  0  0  0  0  0  0  0
   -2.6241   -2.8916    3.8791 C   0  0  0  0  0  0  0  0  0  0  0  0
   -3.8117   -3.6211    3.9850 C   0  0  0  0  0  0  0  0  0  0  0  0
   -5.0847   -3.0236    4.3566 C   0  0  0  0  0  0  0  0  0  0  0  0
   -5.2305   -1.8131    4.5132 O   0  0  0  0  0  0  0  0  0  0  0  0
   -6.1595   -3.9931    4.5462 C   0  0  0  0  0  0  0  0  0  0  0  0
   -7.4158   -3.6894    5.0085 C   0  0  0  0  0  0  0  0  0  0  0  0
   -7.9940   -2.3592    5.3271 C   0  0  0  0  0  0  0  0  0  0  0  0
   -8.4529   -1.6566    4.0458 C   0  0  0  0  0  0  0  0  0  0  0  0
   -8.3911   -5.1136    5.1296 S   0  0  0  0  0  0  0  0  0  0  0  0
   -7.1159   -6.1274    4.5431 C   0  0  0  0  0  0  0  0  0  0  0  0
   -7.3472   -7.5833    4.3631 C   0  0  0  0  0  0  0  0  0  0  0  0
   -7.8074   -7.8835    2.9333 C   0  0  0  0  0  0  0  0  0  0  0  0
   -5.9904   -5.3904    4.2718 C   0  0  0  0  0  0  0  0  0  0  0  0
   -4.7495   -5.9540    3.7377 C   0  0  0  0  0  0  0  0  0  0  0  0
   -4.6594   -7.1062    3.3418 O   0  0  0  0  0  0  0  0  0  0  0  0
   -3.6365   -4.9956    3.7090 C   0  0  0  0  0  0  0  0  0  0  0  0
   -2.4088   -1.4975    3.8258 C   0  0  0  0  0  0  0  0  0  0  0  0
   -1.1256   -0.9245    3.8370 C   0  0  0  0  0  0  0  0  0  0  0  0
   -0.0784   -1.4886    4.5146 N   0  0  0  0  0  0  0  0  0  0  0  0
   -0.3177   -2.2318    5.6850 C   0  0  0  0  0  0  0  0  0  0  0  0
    0.4464   -3.3681    5.9561 C   0  0  0  0  0  0  0  0  0  0  0  0
    0.2063   -4.1111    7.0898 C   0  0  0  0  0  0  0  0  0  0  0  0
   -0.8028   -3.7433    7.9782 C   0  0  0  0  0  0  0  0  0  0  0  0
   -1.0229   -4.7784    9.3878 S   0  0  0  0  0  0  0  0  0  0  0  0
   -2.4785   -4.0835   10.2217 C   0  0  0  0  0  0  0  0  0  0  0  0
   -1.5554   -2.6045    7.7182 C   0  0  0  0  0  0  0  0  0  0  0  0
   -1.3116   -1.8569    6.5838 C   0  0  0  0  0  0  0  0  0  0  0  0
    1.2590   -1.3311    4.1075 C   0  0  0  0  0  0  0  0  0  0  0  0
    2.2193   -0.9976    5.0625 C   0  0  0  0  0  0  0  0  0  0  0  0
    3.5465   -0.9282    4.7132 C   0  0  0  0  0  0  0  0  0  0  0  0
    3.9439   -1.1952    3.4037 C   0  0  0  0  0  0  0  0  0  0  0  0
    5.6780   -1.0784    3.1008 S   0  0  0  0  0  0  0  0  0  0  0  0
    5.8657   -1.6087    1.3776 C   0  0  0  0  0  0  0  0  0  0  0  0
    2.9856   -1.5046    2.4456 C   0  0  0  0  0  0  0  0  0  0  0  0
    1.6487   -1.5680    2.7950 C   0  0  0  0  0  0  0  0  0  0  0  0
   -1.1152    0.2850    3.1144 C   0  0  0  0  0  0  0  0  0  0  0  0
    0.1262    1.2837    2.4427 S   0  0  0  0  0  0  0  0  0  0  0  0
   -1.0711    2.1840    1.4970 C   0  0  0  0  0  0  0  0  0  0  0  0
   -2.3697    1.7446    1.7532 C   0  0  0  0  0  0  0  0  0  0  0  0
   -3.5540    2.1804    1.1657 N   0  0  0  0  0  0  0  0  0  0  0  0
   -3.7185    2.2022   -0.2228 C   0  0  0  0  0  0  0  0  0  0  0  0
   -4.7575    2.9380   -0.7949 C   0  0  0  0  0  0  0  0  0  0  0  0
   -4.9363    2.9413   -2.1581 C   0  0  0  0  0  0  0  0  0  0  0  0
   -4.0385    2.2808   -2.9956 C   0  0  0  0  0  0  0  0  0  0  0  0
   -4.3053    2.4444   -4.7293 S   0  0  0  0  0  0  0  0  0  0  0  0
   -2.9172    1.5446   -5.4729 C   0  0  0  0  0  0  0  0  0  0  0  0
   -3.0023    1.5471   -2.4361 C   0  0  0  0  0  0  0  0  0  0  0  0
   -2.8696    1.4872   -1.0637 C   0  0  0  0  0  0  0  0  0  0  0  0
   -4.6725    2.1720    2.0172 C   0  0  0  0  0  0  0  0  0  0  0  0
   -5.8913    1.6099    1.6398 C   0  0  0  0  0  0  0  0  0  0  0  0
   -6.9373    1.5574    2.5356 C   0  0  0  0  0  0  0  0  0  0  0  0
   -6.7806    2.0471    3.8261 C   0  0  0  0  0  0  0  0  0  0  0  0
   -8.1315    1.9018    4.9619 S   0  0  0  0  0  0  0  0  0  0  0  0
   -7.2447    1.3871    6.4664 C   0  0  0  0  0  0  0  0  0  0  0  0
   -5.5808    2.6358    4.1996 C   0  0  0  0  0  0  0  0  0  0  0  0
   -4.5377    2.7003    3.3005 C   0  0  0  0  0  0  0  0  0  0  0  0
   -2.3728    0.6621    2.6620 C   0  0  0  0  0  0  0  0  0  0  0  0
   -3.6323   -0.3998    3.2085 S   0  0  0  0  0  0  0  0  0  0  0  0
   -0.5697    3.0560    0.4937 C   0  0  0  0  0  0  0  0  0  0  0  0
    0.7109    2.9723   -0.0426 C   0  0  0  0  0  0  0  0  0  0  0  0
    1.7591    2.1687    0.4433 N   0  0  0  0  0  0  0  0  0  0  0  0
    2.0532    1.0092   -0.2867 C   0  0  0  0  0  0  0  0  0  0  0  0
    3.3573    0.6490   -0.6230 C   0  0  0  0  0  0  0  0  0  0  0  0
    3.6040   -0.5322   -1.2955 C   0  0  0  0  0  0  0  0  0  0  0  0
    2.5572   -1.3811   -1.6274 C   0  0  0  0  0  0  0  0  0  0  0  0
    2.8418   -2.9586   -2.3924 S   0  0  0  0  0  0  0  0  0  0  0  0
    4.0661   -3.6510   -1.2295 C   0  0  0  0  0  0  0  0  0  0  0  0
    1.2516   -0.9937   -1.3630 C   0  0  0  0  0  0  0  0  0  0  0  0
    1.0037    0.1942   -0.7099 C   0  0  0  0  0  0  0  0  0  0  0  0
    2.6473    2.7414    1.3601 C   0  0  0  0  0  0  0  0  0  0  0  0
    2.6770    4.1146    1.5839 C   0  0  0  0  0  0  0  0  0  0  0  0
    3.5223    4.6610    2.5328 C   0  0  0  0  0  0  0  0  0  0  0  0
    4.3574    3.8438    3.2783 C   0  0  0  0  0  0  0  0  0  0  0  0
    5.4820    4.4220    4.5124 S   0  0  0  0  0  0  0  0  0  0  0  0
    5.2628    6.2246    4.4952 C   0  0  0  0  0  0  0  0  0  0  0  0
    4.3211    2.4663    3.0700 C   0  0  0  0  0  0  0  0  0  0  0  0
    3.4751    1.9253    2.1318 C   0  0  0  0  0  0  0  0  0  0  0  0
    0.8498    3.7736   -1.1781 C   0  0  0  0  0  0  0  0  0  0  0  0
    2.1387    3.9397   -2.3008 S   0  0  0  0  0  0  0  0  0  0  0  0
    1.1471    5.0257   -3.2815 C   0  0  0  0  0  0  0  0  0  0  0  0
   -0.0541    5.3842   -2.6197 C   0  0  0  0  0  0  0  0  0  0  0  0
   -0.9103    6.3553   -3.0330 N   0  0  0  0  0  0  0  0  0  0  0  0
   -2.2918    6.2905   -2.6860 C   0  0  0  0  0  0  0  0  0  0  0  0
   -2.7414    6.8695   -1.5098 C   0  0  0  0  0  0  0  0  0  0  0  0
   -4.0870    6.8450   -1.1913 C   0  0  0  0  0  0  0  0  0  0  0  0
   -4.9938    6.2723   -2.0720 C   0  0  0  0  0  0  0  0  0  0  0  0
   -6.7273    6.1755   -1.7754 S   0  0  0  0  0  0  0  0  0  0  0  0
   -6.9131    6.7464   -0.0623 C   0  0  0  0  0  0  0  0  0  0  0  0
   -4.5410    5.7236   -3.2716 C   0  0  0  0  0  0  0  0  0  0  0  0
   -3.1963    5.7079   -3.5658 C   0  0  0  0  0  0  0  0  0  0  0  0
   -0.4777    7.4807   -3.7537 C   0  0  0  0  0  0  0  0  0  0  0  0
    0.7609    8.0580   -3.4685 C   0  0  0  0  0  0  0  0  0  0  0  0
    1.2557    9.0781   -4.2508 C   0  0  0  0  0  0  0  0  0  0  0  0
    0.5087    9.5580   -5.3208 C   0  0  0  0  0  0  0  0  0  0  0  0
    1.1486   10.7658   -6.4359 S   0  0  0  0  0  0  0  0  0  0  0  0
    2.8884   10.2443   -6.5481 C   0  0  0  0  0  0  0  0  0  0  0  0
   -0.7769    9.0705   -5.5296 C   0  0  0  0  0  0  0  0  0  0  0  0
   -1.2690    8.0410   -4.7549 C   0  0  0  0  0  0  0  0  0  0  0  0
   -0.2507    4.5654   -1.4834 C   0  0  0  0  0  0  0  0  0  0  0  0
   -1.5332    4.2615   -0.3456 S   0  0  0  0  0  0  0  0  0  0  0  0
    1.5762    5.3819   -4.5602 C   0  0  0  0  0  0  0  0  0  0  0  0
    2.5388    4.7698   -5.3314 C   0  0  0  0  0  0  0  0  0  0  0  0
    3.2538    5.5608   -6.3496 C   0  0  0  0  0  0  0  0  0  0  0  0
    2.9944    6.6934   -6.7129 O   0  0  0  0  0  0  0  0  0  0  0  0
    4.3978    4.7233   -6.7679 C   0  0  0  0  0  0  0  0  0  0  0  0
    5.4121    5.0581   -7.6613 C   0  0  0  0  0  0  0  0  0  0  0  0
    6.3518    4.0699   -7.8402 C   0  0  0  0  0  0  0  0  0  0  0  0
    6.2966    2.8411   -7.1714 C   0  0  0  0  0  0  0  0  0  0  0  0
    5.3000    2.4942   -6.2896 C   0  0  0  0  0  0  0  0  0  0  0  0
    4.3306    3.4812   -6.1024 C   0  0  0  0  0  0  0  0  0  0  0  0
    3.1070    3.4516   -5.3021 C   0  0  0  0  0  0  0  0  0  0  0  0
    2.4877    2.3081   -4.8435 C   0  0  0  0  0  0  0  0  0  0  0  0
    1.1445    2.2806   -4.4301 C   0  0  0  0  0  0  0  0  0  0  0  0
    0.0289    2.2058   -4.1580 N   0  0  0  0  0  0  0  0  0  0  0  0
    3.0871    1.0380   -4.7931 C   0  0  0  0  0  0  0  0  0  0  0  0
    3.5382   -0.0134   -4.6839 N   0  0  0  0  0  0  0  0  0  0  0  0
    7.5554    2.3337   -7.8301 C   0  0  0  0  0  0  0  0  0  0  0  0
    7.3682    1.3195   -8.9781 C   0  0  0  0  0  0  0  0  0  0  0  0
    8.6790    1.3756   -9.7285 C   0  0  0  0  0  0  0  0  0  0  0  0
    8.7287    2.5376  -10.3670 C   0  0  0  0  0  0  0  0  0  0  0  0
    7.4520    3.2863  -10.0590 C   0  0  0  0  0  0  0  0  0  0  0  0
    6.4762    2.1079   -9.9458 C   0  0  0  0  0  0  0  0  0  0  0  0
    7.6141    3.7023   -8.5815 C   0  0  0  0  0  0  0  0  0  0  0  0
   -2.5658   -7.3985    3.1451 H   0  0  0  0  0  0  0  0  0  0  0  0
    1.2869   -4.9343   -1.0115 H   0  0  0  0  0  0  0  0  0  0  0  0
    0.2118   -9.8811   -0.7516 H   0  0  0  0  0  0  0  0  0  0  0  0
    0.9204   -8.9920   -3.9599 H   0  0  0  0  0  0  0  0  0  0  0  0
    3.0842  -10.1988   -2.9745 H   0  0  0  0  0  0  0  0  0  0  0  0
    3.4850   -9.6683   -5.5170 H   0  0  0  0  0  0  0  0  0  0  0  0
    3.9856   -7.0673   -5.7486 H   0  0  0  0  0  0  0  0  0  0  0  0
    3.9035   -5.9993   -3.3643 H   0  0  0  0  0  0  0  0  0  0  0  0
    4.9449   -8.3438   -2.6673 H   0  0  0  0  0  0  0  0  0  0  0  0
    3.6055   -7.9801   -1.5541 H   0  0  0  0  0  0  0  0  0  0  0  0
    1.4086   -6.4332   -4.1343 H   0  0  0  0  0  0  0  0  0  0  0  0
   -8.8396   -2.4790    6.0069 H   0  0  0  0  0  0  0  0  0  0  0  0
   -7.2279   -1.7466    5.8054 H   0  0  0  0  0  0  0  0  0  0  0  0
   -7.5951   -1.4646    3.4064 H   0  0  0  0  0  0  0  0  0  0  0  0
   -8.9215   -0.7082    4.2926 H   0  0  0  0  0  0  0  0  0  0  0  0
   -9.1689   -2.2736    3.5070 H   0  0  0  0  0  0  0  0  0  0  0  0
   -6.4125   -8.1164    4.5472 H   0  0  0  0  0  0  0  0  0  0  0  0
   -8.1047   -7.9239    5.0718 H   0  0  0  0  0  0  0  0  0  0  0  0
   -8.7174   -7.3346    2.6995 H   0  0  0  0  0  0  0  0  0  0  0  0
   -7.0297   -7.5990    2.2298 H   0  0  0  0  0  0  0  0  0  0  0  0
   -8.0007   -8.9469    2.8244 H   0  0  0  0  0  0  0  0  0  0  0  0
    1.2201   -3.6658    5.2655 H   0  0  0  0  0  0  0  0  0  0  0  0
    0.7905   -4.9943    7.2966 H   0  0  0  0  0  0  0  0  0  0  0  0
   -3.3282   -4.0853    9.5453 H   0  0  0  0  0  0  0  0  0  0  0  0
   -2.6744   -4.7432   11.0612 H   0  0  0  0  0  0  0  0  0  0  0  0
   -2.2615   -3.0828   10.5841 H   0  0  0  0  0  0  0  0  0  0  0  0
   -2.3306   -2.2818    8.3941 H   0  0  0  0  0  0  0  0  0  0  0  0
   -1.9017   -0.9722    6.3959 H   0  0  0  0  0  0  0  0  0  0  0  0
    1.9139   -0.8058    6.0801 H   0  0  0  0  0  0  0  0  0  0  0  0
    4.2948   -0.6729    5.4474 H   0  0  0  0  0  0  0  0  0  0  0  0
    5.5162   -2.6312    1.2692 H   0  0  0  0  0  0  0  0  0  0  0  0
    5.3275   -0.9316    0.7220 H   0  0  0  0  0  0  0  0  0  0  0  0
    6.9303   -1.5582    1.1706 H   0  0  0  0  0  0  0  0  0  0  0  0
    3.2622   -1.7051    1.4227 H   0  0  0  0  0  0  0  0  0  0  0  0
    0.9125   -1.8408    2.0546 H   0  0  0  0  0  0  0  0  0  0  0  0
   -5.4322    3.4951   -0.1635 H   0  0  0  0  0  0  0  0  0  0  0  0
   -5.7755    3.4634   -2.5878 H   0  0  0  0  0  0  0  0  0  0  0  0
   -3.0114    0.4827   -5.2633 H   0  0  0  0  0  0  0  0  0  0  0  0
   -1.9739    1.9370   -5.1014 H   0  0  0  0  0  0  0  0  0  0  0  0
   -2.9976    1.7156   -6.5422 H   0  0  0  0  0  0  0  0  0  0  0  0
   -2.2958    1.0125   -3.0488 H   0  0  0  0  0  0  0  0  0  0  0  0
   -2.0936    0.8698   -0.6378 H   0  0  0  0  0  0  0  0  0  0  0  0
   -6.0049    1.1832    0.6551 H   0  0  0  0  0  0  0  0  0  0  0  0
   -7.8759    1.1086    2.2503 H   0  0  0  0  0  0  0  0  0  0  0  0
   -6.8249    2.2496    6.9759 H   0  0  0  0  0  0  0  0  0  0  0  0
   -7.9790    0.9066    7.1051 H   0  0  0  0  0  0  0  0  0  0  0  0
   -6.4681    0.6833    6.1832 H   0  0  0  0  0  0  0  0  0  0  0  0
   -5.4557    3.0452    5.1900 H   0  0  0  0  0  0  0  0  0  0  0  0
   -3.6010    3.1533    3.5921 H   0  0  0  0  0  0  0  0  0  0  0  0
    4.1753    1.3067   -0.3671 H   0  0  0  0  0  0  0  0  0  0  0  0
    4.6145   -0.7874   -1.5787 H   0  0  0  0  0  0  0  0  0  0  0  0
    3.6731   -3.5823   -0.2191 H   0  0  0  0  0  0  0  0  0  0  0  0
    4.1955   -4.6940   -1.4990 H   0  0  0  0  0  0  0  0  0  0  0  0
    5.0129   -3.1270   -1.3178 H   0  0  0  0  0  0  0  0  0  0  0  0
    0.4357   -1.6348   -1.6599 H   0  0  0  0  0  0  0  0  0  0  0  0
   -0.0121    0.4871   -0.5002 H   0  0  0  0  0  0  0  0  0  0  0  0
    2.0365    4.7741    1.0177 H   0  0  0  0  0  0  0  0  0  0  0  0
    3.5153    5.7301    2.6734 H   0  0  0  0  0  0  0  0  0  0  0  0
    5.5184    6.6210    3.5168 H   0  0  0  0  0  0  0  0  0  0  0  0
    4.2433    6.4787    4.7712 H   0  0  0  0  0  0  0  0  0  0  0  0
    5.9524    6.6094    5.2399 H   0  0  0  0  0  0  0  0  0  0  0  0
    4.9582    1.8250    3.6595 H   0  0  0  0  0  0  0  0  0  0  0  0
    3.4277    0.8581    2.0002 H   0  0  0  0  0  0  0  0  0  0  0  0
   -2.0370    7.3393   -0.8395 H   0  0  0  0  0  0  0  0  0  0  0  0
   -4.4111    7.2870   -0.2635 H   0  0  0  0  0  0  0  0  0  0  0  0
   -6.6678    7.8019    0.0114 H   0  0  0  0  0  0  0  0  0  0  0  0
   -7.9598    6.5957    0.1831 H   0  0  0  0  0  0  0  0  0  0  0  0
   -6.2904    6.1474    0.5958 H   0  0  0  0  0  0  0  0  0  0  0  0
   -5.2502    5.3050   -3.9681 H   0  0  0  0  0  0  0  0  0  0  0  0
   -2.8441    5.2481   -4.4765 H   0  0  0  0  0  0  0  0  0  0  0  0
    1.3515    7.6773   -2.6482 H   0  0  0  0  0  0  0  0  0  0  0  0
    2.2268    9.4915   -4.0306 H   0  0  0  0  0  0  0  0  0  0  0  0
    3.4532   10.6158   -5.6978 H   0  0  0  0  0  0  0  0  0  0  0  0
    3.2730   10.6856   -7.4621 H   0  0  0  0  0  0  0  0  0  0  0  0
    2.9292    9.1602   -6.6079 H   0  0  0  0  0  0  0  0  0  0  0  0
   -1.3717    9.4796   -6.3310 H   0  0  0  0  0  0  0  0  0  0  0  0
   -2.2526    7.6445   -4.9520 H   0  0  0  0  0  0  0  0  0  0  0  0
    1.1681    6.2835   -5.0008 H   0  0  0  0  0  0  0  0  0  0  0  0
    5.4229    6.0169   -8.1559 H   0  0  0  0  0  0  0  0  0  0  0  0
    5.2672    1.5481   -5.7746 H   0  0  0  0  0  0  0  0  0  0  0  0
    8.3723    2.0728   -7.1596 H   0  0  0  0  0  0  0  0  0  0  0  0
    7.0232    0.3376   -8.6657 H   0  0  0  0  0  0  0  0  0  0  0  0
    9.4348    0.6139   -9.6745 H   0  0  0  0  0  0  0  0  0  0  0  0
    9.5341    2.9404  -10.9529 H   0  0  0  0  0  0  0  0  0  0  0  0
    7.1845    4.0952  -10.7337 H   0  0  0  0  0  0  0  0  0  0  0  0
    5.5040    2.3742   -9.5355 H   0  0  0  0  0  0  0  0  0  0  0  0
    6.3420    1.5920  -10.8951 H   0  0  0  0  0  0  0  0  0  0  0  0
    8.4715    4.3519   -8.4142 H   0  0  0  0  0  0  0  0  0  0  0  0
  1  2  2  0  0  0  0
  2  3  1  0  0  0  0
  3  4  2  0  0  0  0
  3  5  1  0  0  0  0
  5  6  2  0  0  0  0
  6  7  1  0  0  0  0
  7  8  2  0  0  0  0
  8  9  1  0  0  0  0
  9 10  2  0  0  0  0
 10 11  1  0  0  0  0
 11 12  2  0  0  0  0
 12 13  1  0  0  0  0
 13 14  3  0  0  0  0
 12 15  1  0  0  0  0
 15 16  3  0  0  0  0
  8 17  1  0  0  0  0
 17 18  1  0  0  0  0
 18 19  1  0  0  0  0
 19 20  2  0  0  0  0
 20 21  1  0  0  0  0
 21 22  1  0  0  0  0
 21 23  1  0  0  0  0
  1 24  1  0  0  0  0
 24 25  1  0  0  0  0
 25 26  1  0  0  0  0
 26 27  2  0  0  0  0
 27 28  1  0  0  0  0
 28 29  2  0  0  0  0
 28 30  1  0  0  0  0
 30 31  2  0  0  0  0
 31 32  1  0  0  0  0
 32 33  1  0  0  0  0
 31 34  1  0  0  0  0
 34 35  1  0  0  0  0
 35 36  1  0  0  0  0
 36 37  1  0  0  0  0
 35 38  2  0  0  0  0
 38 39  1  0  0  0  0
 39 40  2  0  0  0  0
 39 41  1  0  0  0  0
 26 42  1  0  0  0  0
 42 43  2  0  0  0  0
 43 44  1  0  0  0  0
 44 45  1  0  0  0  0
 45 46  2  0  0  0  0
 46 47  1  0  0  0  0
 47 48  2  0  0  0  0
 48 49  1  0  0  0  0
 49 50  1  0  0  0  0
 48 51  1  0  0  0  0
 51 52  2  0  0  0  0
 44 53  1  0  0  0  0
 53 54  2  0  0  0  0
 54 55  1  0  0  0  0
 55 56  2  0  0  0  0
 56 57  1  0  0  0  0
 57 58  1  0  0  0  0
 56 59  1  0  0  0  0
 59 60  2  0  0  0  0
 43 61  1  0  0  0  0
 61 62  1  0  0  0  0
 62 63  1  0  0  0  0
 63 64  2  0  0  0  0
 64 65  1  0  0  0  0
 65 66  1  0  0  0  0
 66 67  2  0  0  0  0
 67 68  1  0  0  0  0
 68 69  2  0  0  0  0
 69 70  1  0  0  0  0
 70 71  1  0  0  0  0
 69 72  1  0  0  0  0
 72 73  2  0  0  0  0
 65 74  1  0  0  0  0
 74 75  2  0  0  0  0
 75 76  1  0  0  0  0
 76 77  2  0  0  0  0
 77 78  1  0  0  0  0
 78 79  1  0  0  0  0
 77 80  1  0  0  0  0
 80 81  2  0  0  0  0
 64 82  1  0  0  0  0
 82 83  1  0  0  0  0
 63 84  1  0  0  0  0
 84 85  2  0  0  0  0
 85 86  1  0  0  0  0
 86 87  1  0  0  0  0
 87 88  2  0  0  0  0
 88 89  1  0  0  0  0
 89 90  2  0  0  0  0
 90 91  1  0  0  0  0
 91 92  1  0  0  0  0
 90 93  1  0  0  0  0
 93 94  2  0  0  0  0
 86 95  1  0  0  0  0
 95 96  2  0  0  0  0
 96 97  1  0  0  0  0
 97 98  2  0  0  0  0
 98 99  1  0  0  0  0
 99100  1  0  0  0  0
 98101  1  0  0  0  0
101102  2  0  0  0  0
 85103  1  0  0  0  0
103104  1  0  0  0  0
104105  1  0  0  0  0
105106  2  0  0  0  0
106107  1  0  0  0  0
107108  1  0  0  0  0
108109  2  0  0  0  0
109110  1  0  0  0  0
110111  2  0  0  0  0
111112  1  0  0  0  0
112113  1  0  0  0  0
111114  1  0  0  0  0
114115  2  0  0  0  0
107116  1  0  0  0  0
116117  2  0  0  0  0
117118  1  0  0  0  0
118119  2  0  0  0  0
119120  1  0  0  0  0
120121  1  0  0  0  0
119122  1  0  0  0  0
122123  2  0  0  0  0
106124  1  0  0  0  0
124125  1  0  0  0  0
105126  1  0  0  0  0
126127  2  0  0  0  0
127128  1  0  0  0  0
128129  2  0  0  0  0
128130  1  0  0  0  0
130131  2  0  0  0  0
131132  1  0  0  0  0
132133  2  0  0  0  0
133134  1  0  0  0  0
134135  2  0  0  0  0
135136  1  0  0  0  0
136137  2  0  0  0  0
137138  1  0  0  0  0
138139  3  0  0  0  0
137140  1  0  0  0  0
140141  3  0  0  0  0
133142  1  0  0  0  0
142143  1  0  0  0  0
143144  1  0  0  0  0
144145  2  0  0  0  0
145146  1  0  0  0  0
146147  1  0  0  0  0
146148  1  0  0  0  0
 11  2  1  0  0  0  0
 23 17  1  0  0  0  0
 41 24  2  0  0  0  0
 83 42  1  0  0  0  0
125 84  1  0  0  0  0
136127  1  0  0  0  0
148142  1  0  0  0  0
 10  5  1  0  0  0  0
 22 18  1  0  0  0  0
 41 27  1  0  0  0  0
 52 45  1  0  0  0  0
 60 53  1  0  0  0  0
 82 61  2  0  0  0  0
 94 87  1  0  0  0  0
102 95  1  0  0  0  0
124103  2  0  0  0  0
135130  1  0  0  0  0
147143  1  0  0  0  0
 23  7  1  0  0  0  0
 38 30  1  0  0  0  0
 73 66  1  0  0  0  0
 81 74  1  0  0  0  0
115108  1  0  0  0  0
123116  1  0  0  0  0
148132  1  0  0  0  0
  1149  1  0  0  0  0
  6150  1  0  0  0  0
  9151  1  0  0  0  0
 17152  1  0  0  0  0
 18153  1  0  0  0  0
 19154  1  0  0  0  0
 20155  1  0  0  0  0
 21156  1  0  0  0  0
 22157  1  0  0  0  0
 22158  1  0  0  0  0
 23159  1  0  0  0  0
 32160  1  0  0  0  0
 32161  1  0  0  0  0
 33162  1  0  0  0  0
 33163  1  0  0  0  0
 33164  1  0  0  0  0
 36165  1  0  0  0  0
 36166  1  0  0  0  0
 37167  1  0  0  0  0
 37168  1  0  0  0  0
 37169  1  0  0  0  0
 46170  1  0  0  0  0
 47171  1  0  0  0  0
 50172  1  0  0  0  0
 50173  1  0  0  0  0
 50174  1  0  0  0  0
 51175  1  0  0  0  0
 52176  1  0  0  0  0
 54177  1  0  0  0  0
 55178  1  0  0  0  0
 58179  1  0  0  0  0
 58180  1  0  0  0  0
 58181  1  0  0  0  0
 59182  1  0  0  0  0
 60183  1  0  0  0  0
 67184  1  0  0  0  0
 68185  1  0  0  0  0
 71186  1  0  0  0  0
 71187  1  0  0  0  0
 71188  1  0  0  0  0
 72189  1  0  0  0  0
 73190  1  0  0  0  0
 75191  1  0  0  0  0
 76192  1  0  0  0  0
 79193  1  0  0  0  0
 79194  1  0  0  0  0
 79195  1  0  0  0  0
 80196  1  0  0  0  0
 81197  1  0  0  0  0
 88198  1  0  0  0  0
 89199  1  0  0  0  0
 92200  1  0  0  0  0
 92201  1  0  0  0  0
 92202  1  0  0  0  0
 93203  1  0  0  0  0
 94204  1  0  0  0  0
 96205  1  0  0  0  0
 97206  1  0  0  0  0
100207  1  0  0  0  0
100208  1  0  0  0  0
100209  1  0  0  0  0
101210  1  0  0  0  0
102211  1  0  0  0  0
109212  1  0  0  0  0
110213  1  0  0  0  0
113214  1  0  0  0  0
113215  1  0  0  0  0
113216  1  0  0  0  0
114217  1  0  0  0  0
115218  1  0  0  0  0
117219  1  0  0  0  0
118220  1  0  0  0  0
121221  1  0  0  0  0
121222  1  0  0  0  0
121223  1  0  0  0  0
122224  1  0  0  0  0
123225  1  0  0  0  0
126226  1  0  0  0  0
131227  1  0  0  0  0
134228  1  0  0  0  0
142229  1  0  0  0  0
143230  1  0  0  0  0
144231  1  0  0  0  0
145232  1  0  0  0  0
146233  1  0  0  0  0
147234  1  0  0  0  0
147235  1  0  0  0  0
148236  1  0  0  0  0
M  END
