206

C          0.97550        7.05900        0.38830
C          1.24300        7.69540        1.57990
C          2.07030        7.12870        2.65890
O          2.62360        6.04420        2.66690
C          2.20580        8.20410        3.66390
C          2.87480        8.14000        4.88250
C          2.80300        9.29640        5.62320
C          2.14010       10.44530        5.17440
C          1.48400       10.52620        3.96950
C          1.52500        9.35230        3.21370
C          0.90250        9.04610        1.92980
C         -0.01360        9.82930        1.26930
C         -0.74920        9.39910        0.14740
N         -1.42610        9.10040       -0.73200
C         -0.42670       11.10610        1.68900
N         -0.83290       12.14130        1.98040
C          2.47850       11.22670        6.41990
C          1.34180       11.41130        7.44660
C          2.06280       11.75790        8.72880
C          2.67180       10.66010        9.15840
C          2.37450        9.55370        8.17170
C          0.95770        9.95670        7.74300
C          3.20380        9.93930        6.92780
C          0.91850        5.67740        0.18470
C          0.67120        4.60770        1.06900
N          0.35660        4.65360        2.40030
C          0.68910        3.51070        3.16420
C         -0.26800        2.88870        3.95570
C          0.04320        1.73380        4.64720
C          1.31940        1.19280        4.55630
S          1.81880       -0.29490        5.34990
C          0.39320       -0.75520        6.36760
C          2.28930        1.83960        3.79000
C          1.98000        2.98820        3.09940
C         -0.26750        5.72210        3.04150
C         -1.19850        6.53270        2.39410
C         -1.75980        7.61970        3.03660
C         -1.40070        7.92120        4.34450
S         -1.96790        9.32700        5.23820
C         -3.13630       10.14010        4.11500
C         -0.51610        7.07630        5.01660
C          0.04300        5.99580        4.37790
C          0.70200        3.37870        0.36760
S          0.42890        1.72590        0.79740
C          0.61630        1.19540       -0.87810
C          0.86150        2.27270       -1.71780
N          1.13050        2.29450       -3.10130
C          0.06520        2.30120       -4.00040
C         -1.24950        2.31490       -3.53600
C         -2.32260        2.22630       -4.40300
C         -2.10790        2.12270       -5.76770
S         -3.37870        1.94480       -6.98110
C         -4.91550        1.93160       -6.02020
C         -0.80140        2.15220       -6.24490
C          0.26600        2.24870       -5.38220
C          2.42710        2.75880       -3.38380
C          3.46810        2.33170       -2.55460
C          4.76520        2.72490       -2.78900
C          5.06800        3.54030       -3.87350
S          6.76870        3.93740       -4.14550
C          6.81030        4.27710       -5.92850
C          4.03310        4.02730       -4.65870
C          2.72630        3.65990       -4.40240
C          0.91130        3.48720       -0.99580
S          1.08860        5.12690       -1.49140
C          0.44740       -0.21120       -1.06880
C          0.38130       -1.03240       -2.18470
N          0.54560       -0.71290       -3.54260
C         -0.58780       -1.01730       -4.31500
C         -1.84280       -0.75030       -3.76020
C         -2.99590       -1.00960       -4.46300
C         -2.93220       -1.52000       -5.75480
S         -4.45820       -1.76250       -6.61210
C         -3.95710       -1.61260       -8.35050
C         -1.69430       -1.84590       -6.29000
C         -0.53750       -1.61890       -5.57000
C          1.82890       -0.51130       -4.05120
C          2.94830       -0.69540       -3.24040
C          4.22420       -0.42870       -3.70080
C          4.41670        0.02870       -4.99460
S          5.98030        0.45450       -5.69440
C          7.15880        0.20850       -4.33930
C          3.31000        0.17290       -5.82550
C          2.04090       -0.09940       -5.36910
C          0.03520       -2.35820       -1.82570
S         -0.29790       -3.76870       -2.76590
C         -0.59950       -4.67680       -1.29980
C         -0.50320       -3.90770       -0.14820
N         -0.84970       -4.35370        1.12000
C         -0.02870       -4.08110        2.21820
C          1.33430       -3.84840        2.05670
C          2.15260       -3.64320        3.15120
C          1.62470       -3.68370        4.43320
S          2.58560       -3.54780        5.90810
C          4.22060       -3.03320        5.32160
C          0.25490       -3.88210        4.59790
C         -0.56410       -4.06380        3.50760
C         -1.95910       -5.20970        1.24670
C         -3.11750       -4.94910        0.51960
C         -4.18180       -5.83030        0.53540
C         -4.10940       -6.99010        1.29380
S         -5.36130       -8.23610        1.32180
C         -6.68710       -7.56340        0.27930
C         -2.97530       -7.22740        2.06960
C         -1.91180       -6.35320        2.04640
C         -0.11690       -2.58350       -0.46890
S          0.16930       -1.13140        0.42070
C         -0.99300       -6.05520       -1.32440
S         -2.37650       -6.58870       -2.25970
C         -2.34990       -8.11800       -1.46090
C         -3.29710       -9.15230       -1.50940
C         -3.08920      -10.25990       -0.67820
O         -2.00220      -10.41010        0.10380
C         -1.05610       -9.42400        0.21980
O         -0.13160       -9.59920        0.96970
C         -1.27330       -8.22900       -0.58420
C         -0.51300       -7.04760       -0.51460
C         -4.14310      -11.16610       -0.72810
C         -5.17470      -10.75230       -1.56130
S         -4.81450       -9.21910       -2.32230
C         -6.36480      -11.48700       -1.74040
C         -7.48580      -11.16590       -2.44280
C         -7.78150       -9.94380       -3.19100
O         -7.05590       -8.97750       -3.34620
C         -9.15640      -10.10740       -3.71450
C         -9.90970       -9.24000       -4.48360
C        -11.18780       -9.63730       -4.85510
C        -11.69570      -10.86880       -4.46490
C        -10.94130      -11.74210       -3.69080
C         -9.66900      -11.35110       -3.32000
C         -8.65710      -12.07020       -2.50770
O         -8.75880      -13.16400       -2.00020
H          0.80150        7.66520       -0.49300
H          3.38500        7.24020        5.18920
H          0.98420       11.41820        3.62980
H          3.06850       12.12870        6.26800
H          0.54800       12.08240        7.13130
H          2.10070       12.74600        9.14880
H          3.32050       10.54840       10.00760
H          2.52330        8.53500        8.52040
H          0.57940        9.42070        6.87530
H          0.24090        9.87800        8.55840
H          4.27290        9.98660        7.12800
H         -1.26340        3.30390        4.01750
H         -0.72210        1.25980        5.23980
H         -0.44830       -1.01150        5.73040
H          0.15000        0.05590        7.04760
H          0.71150       -1.62850        6.92860
H          3.28510        1.42640        3.74680
H          2.72640        3.50740        2.51890
H         -1.48900        6.31660        1.37690
H         -2.46550        8.23070        2.49640
H         -2.61770       10.51570        3.23790
H         -3.54460       10.97330        4.67860
H         -3.93180        9.45150        3.84610
H         -0.25940        7.29370        6.04180
H          0.75030        5.36710        4.89640
H         -1.44400        2.39130       -2.47610
H         -3.32020        2.23570       -3.99430
H         -5.71400        1.82390       -6.74770
H         -4.91830        1.08170       -5.34500
H         -5.02600        2.87040       -5.48530
H         -0.63080        2.09480       -7.30960
H          1.26370        2.26050       -5.78420
H          3.25660        1.67860       -1.72220
H          5.55870        2.39690       -2.13430
H          6.38560        5.25420       -6.13990
H          6.27520        3.48870       -6.44920
H          7.85870        4.26550       -6.20970
H          4.23090        4.71630       -5.46440
H          1.93580        4.10700       -4.98350
H         -1.90890       -0.32810       -2.76920
H         -3.95970       -0.80890       -4.01950
H         -3.32590       -0.73580       -8.45920
H         -3.44860       -2.51420       -8.67950
H         -4.87510       -1.48370       -8.91510
H         -1.61980       -2.30110       -7.26490
H          0.40520       -1.94340       -5.98100
H          2.82660       -1.05020       -2.22750
H          5.05730       -0.58030       -3.03350
H          6.90680        0.86440       -3.51220
H          7.16560       -0.83490       -4.03770
H          8.12850        0.48350       -4.74220
H          3.45750        0.50740       -6.84140
H          1.20590        0.03120       -6.03440
H          1.76720       -3.85660        1.06710
H          3.20500       -3.47790        2.98810
H          4.67930       -3.83040        4.74380
H          4.12230       -2.11930        4.74370
H          4.80510       -2.84440        6.21640
H         -0.15760       -3.90150        5.59510
H         -1.62450       -4.20990        3.64760
H         -3.17680       -4.05740       -0.08760
H         -5.05120       -5.60660       -0.06090
H         -7.48100       -8.30370        0.31250
H         -7.04220       -6.62480        0.69440
H         -6.34360       -7.44380       -0.74450
H         -2.92560       -8.12330        2.66900
H         -1.02790       -6.57070        2.62540
H          0.34450       -6.93910        0.12340
H         -4.17110      -12.07750       -0.16060
H         -6.39430      -12.44410       -1.22730
H         -9.50630       -8.28500       -4.78330
H        -11.79610       -8.97890       -5.45740
H        -12.69290      -11.15160       -4.76790
H        -11.32890      -12.70090       -3.38280
