
  xtb     02082219333D
 energy: -299.194806659461 gnorm: 0.000464421290 xtb: 6.4.1 (unknown)
170187  0     0  0            999 V2000
    4.2057   -6.5823    2.4182 C   0  0  0  0  0  0  0  0  0  0  0  0
    4.0475   -6.3202    3.7398 C   0  0  0  0  0  0  0  0  0  0  0  0
    3.2572   -5.1893    4.3000 C   0  0  0  0  0  0  0  0  0  0  0  0
    2.7632   -4.2480    3.7146 O   0  0  0  0  0  0  0  0  0  0  0  0
    3.1139   -5.4806    5.7371 C   0  0  0  0  0  0  0  0  0  0  0  0
    2.3985   -4.7281    6.6659 C   0  0  0  0  0  0  0  0  0  0  0  0
    2.4060   -5.2511    7.9357 C   0  0  0  0  0  0  0  0  0  0  0  0
    3.0684   -6.4433    8.2596 C   0  0  0  0  0  0  0  0  0  0  0  0
    3.7704   -7.1997    7.3527 C   0  0  0  0  0  0  0  0  0  0  0  0
    3.7825   -6.6797    6.0533 C   0  0  0  0  0  0  0  0  0  0  0  0
    4.4048   -7.1993    4.8418 C   0  0  0  0  0  0  0  0  0  0  0  0
    5.2232   -8.2945    4.7654 C   0  0  0  0  0  0  0  0  0  0  0  0
    5.8698   -8.7451    3.5941 C   0  0  0  0  0  0  0  0  0  0  0  0
    6.4403   -9.1751    2.6952 N   0  0  0  0  0  0  0  0  0  0  0  0
    5.5586   -9.1200    5.8592 C   0  0  0  0  0  0  0  0  0  0  0  0
    5.8637   -9.8398    6.7001 N   0  0  0  0  0  0  0  0  0  0  0  0
    2.6553   -6.3721    9.7091 C   0  0  0  0  0  0  0  0  0  0  0  0
    3.7320   -5.9041   10.7110 C   0  0  0  0  0  0  0  0  0  0  0  0
    2.9366   -5.4754   11.9230 C   0  0  0  0  0  0  0  0  0  0  0  0
    2.3106   -4.3464   11.6163 C   0  0  0  0  0  0  0  0  0  0  0  0
    2.6721   -3.9932   10.1917 C   0  0  0  0  0  0  0  0  0  0  0  0
    4.1086   -4.5296   10.1431 C   0  0  0  0  0  0  0  0  0  0  0  0
    1.9181   -5.0427    9.3475 C   0  0  0  0  0  0  0  0  0  0  0  0
    3.8479   -5.6630    1.3762 C   0  0  0  0  0  0  0  0  0  0  0  0
    3.1863   -6.0987    0.2356 C   0  0  0  0  0  0  0  0  0  0  0  0
    3.0014   -7.4199    0.0497 F   0  0  0  0  0  0  0  0  0  0  0  0
    2.5896   -5.2156   -0.6597 C   0  0  0  0  0  0  0  0  0  0  0  0
    1.9711   -5.7150   -1.7485 F   0  0  0  0  0  0  0  0  0  0  0  0
    2.6066   -3.8414   -0.4410 C   0  0  0  0  0  0  0  0  0  0  0  0
    3.5167   -3.3727    0.5499 C   0  0  0  0  0  0  0  0  0  0  0  0
    3.7530   -2.0618    0.6384 N   0  0  0  0  0  0  0  0  0  0  0  0
    4.5847   -1.6059    1.5456 C   0  0  0  0  0  0  0  0  0  0  0  0
    4.7938   -0.1217    1.5411 C   0  0  0  0  0  0  0  0  0  0  0  0
    5.4729    0.3208    0.2439 C   0  0  0  0  0  0  0  0  0  0  0  0
    5.2503   -2.5149    2.4139 C   0  0  0  0  0  0  0  0  0  0  0  0
    5.0142   -3.8036    2.3473 N   0  0  0  0  0  0  0  0  0  0  0  0
    4.1328   -4.2687    1.4537 C   0  0  0  0  0  0  0  0  0  0  0  0
    6.2793   -2.0992    3.4222 C   0  0  0  0  0  0  0  0  0  0  0  0
    7.6326   -1.8330    2.7605 C   0  0  0  0  0  0  0  0  0  0  0  0
    1.7417   -2.9167   -1.0950 C   0  0  0  0  0  0  0  0  0  0  0  0
    0.4438   -3.1467   -1.5538 C   0  0  0  0  0  0  0  0  0  0  0  0
   -0.2997   -4.2839   -1.3120 N   0  0  0  0  0  0  0  0  0  0  0  0
   -0.1633   -4.9614   -0.0907 C   0  0  0  0  0  0  0  0  0  0  0  0
    0.0458   -4.2512    1.0930 C   0  0  0  0  0  0  0  0  0  0  0  0
    0.2968   -4.9165    2.2710 C   0  0  0  0  0  0  0  0  0  0  0  0
    0.3517   -6.3085    2.2923 C   0  0  0  0  0  0  0  0  0  0  0  0
    0.7884   -7.0723    3.8250 S   0  0  0  0  0  0  0  0  0  0  0  0
    1.3605   -8.7193    3.3100 C   0  0  0  0  0  0  0  0  0  0  0  0
    0.0637   -7.0229    1.1371 C   0  0  0  0  0  0  0  0  0  0  0  0
   -0.1933   -6.3537   -0.0432 C   0  0  0  0  0  0  0  0  0  0  0  0
   -1.2332   -4.7050   -2.2656 C   0  0  0  0  0  0  0  0  0  0  0  0
   -2.4565   -5.2509   -1.8750 C   0  0  0  0  0  0  0  0  0  0  0  0
   -3.3730   -5.6396   -2.8245 C   0  0  0  0  0  0  0  0  0  0  0  0
   -3.0967   -5.4877   -4.1832 C   0  0  0  0  0  0  0  0  0  0  0  0
   -4.3551   -6.0113   -5.3017 S   0  0  0  0  0  0  0  0  0  0  0  0
   -3.7179   -5.5341   -6.9330 C   0  0  0  0  0  0  0  0  0  0  0  0
   -1.8759   -4.9550   -4.5749 C   0  0  0  0  0  0  0  0  0  0  0  0
   -0.9528   -4.5717   -3.6227 C   0  0  0  0  0  0  0  0  0  0  0  0
   -0.0761   -1.9836   -2.1694 C   0  0  0  0  0  0  0  0  0  0  0  0
   -1.6073   -1.5880   -2.8721 S   0  0  0  0  0  0  0  0  0  0  0  0
   -1.0778    0.0682   -3.1079 C   0  0  0  0  0  0  0  0  0  0  0  0
    0.1973    0.3043   -2.6091 C   0  0  0  0  0  0  0  0  0  0  0  0
    0.7915    1.5514   -2.5134 N   0  0  0  0  0  0  0  0  0  0  0  0
   -0.0027    2.6736   -2.2261 C   0  0  0  0  0  0  0  0  0  0  0  0
   -1.0355    2.5800   -1.2969 C   0  0  0  0  0  0  0  0  0  0  0  0
   -1.9101    3.6304   -1.1003 C   0  0  0  0  0  0  0  0  0  0  0  0
   -1.7558    4.8047   -1.8242 C   0  0  0  0  0  0  0  0  0  0  0  0
   -2.8785    6.1669   -1.7443 S   0  0  0  0  0  0  0  0  0  0  0  0
   -4.0543    5.6932   -0.4429 C   0  0  0  0  0  0  0  0  0  0  0  0
   -0.6784    4.9317   -2.6997 C   0  0  0  0  0  0  0  0  0  0  0  0
    0.1879    3.8802   -2.9009 C   0  0  0  0  0  0  0  0  0  0  0  0
    2.1769    1.6752   -2.6575 C   0  0  0  0  0  0  0  0  0  0  0  0
    2.8787    0.8381   -3.5261 C   0  0  0  0  0  0  0  0  0  0  0  0
    4.2448    0.9521   -3.6480 C   0  0  0  0  0  0  0  0  0  0  0  0
    4.9436    1.9128   -2.9202 C   0  0  0  0  0  0  0  0  0  0  0  0
    6.6939    1.9481   -3.1436 S   0  0  0  0  0  0  0  0  0  0  0  0
    7.2203    3.4353   -2.2448 C   0  0  0  0  0  0  0  0  0  0  0  0
    4.2473    2.7597   -2.0683 C   0  0  0  0  0  0  0  0  0  0  0  0
    2.8788    2.6360   -1.9347 C   0  0  0  0  0  0  0  0  0  0  0  0
    0.7719   -0.8893   -2.1064 C   0  0  0  0  0  0  0  0  0  0  0  0
    2.2394   -1.2463   -1.2523 S   0  0  0  0  0  0  0  0  0  0  0  0
   -1.9424    1.0621   -3.6637 C   0  0  0  0  0  0  0  0  0  0  0  0
   -3.5781    1.2724   -3.0661 S   0  0  0  0  0  0  0  0  0  0  0  0
   -3.7207    2.7666   -3.9173 C   0  0  0  0  0  0  0  0  0  0  0  0
   -4.7376    3.7290   -3.8537 C   0  0  0  0  0  0  0  0  0  0  0  0
   -4.5622    4.9202   -4.5648 C   0  0  0  0  0  0  0  0  0  0  0  0
   -3.4947    5.1628   -5.3436 O   0  0  0  0  0  0  0  0  0  0  0  0
   -2.4546    4.2717   -5.4471 C   0  0  0  0  0  0  0  0  0  0  0  0
   -1.5131    4.5667   -6.1348 O   0  0  0  0  0  0  0  0  0  0  0  0
   -2.5859    3.0420   -4.6790 C   0  0  0  0  0  0  0  0  0  0  0  0
   -1.5883    2.0631   -4.5293 C   0  0  0  0  0  0  0  0  0  0  0  0
   -5.5933    5.8395   -4.3584 C   0  0  0  0  0  0  0  0  0  0  0  0
   -6.5558    5.3761   -3.4828 C   0  0  0  0  0  0  0  0  0  0  0  0
   -6.1764    3.7680   -2.9105 S   0  0  0  0  0  0  0  0  0  0  0  0
   -7.6833    6.0417   -2.9436 C   0  0  0  0  0  0  0  0  0  0  0  0
   -8.3400    7.1357   -3.4095 C   0  0  0  0  0  0  0  0  0  0  0  0
   -9.1897    7.9282   -2.4656 C   0  0  0  0  0  0  0  0  0  0  0  0
   -9.5407    7.5824   -1.3607 O   0  0  0  0  0  0  0  0  0  0  0  0
   -9.4318    9.2035   -3.1503 C   0  0  0  0  0  0  0  0  0  0  0  0
  -10.0606   10.3494   -2.6877 C   0  0  0  0  0  0  0  0  0  0  0  0
  -10.1457   11.4408   -3.5254 C   0  0  0  0  0  0  0  0  0  0  0  0
   -9.6029   11.4062   -4.8201 C   0  0  0  0  0  0  0  0  0  0  0  0
   -9.7449   12.5355   -5.5386 O   0  0  0  0  0  0  0  0  0  0  0  0
   -9.2428   12.5823   -6.8580 C   0  0  0  0  0  0  0  0  0  0  0  0
   -8.9681   10.2520   -5.2883 C   0  0  0  0  0  0  0  0  0  0  0  0
   -8.8951    9.1549   -4.4497 C   0  0  0  0  0  0  0  0  0  0  0  0
   -8.3450    7.8205   -4.6831 C   0  0  0  0  0  0  0  0  0  0  0  0
   -8.1374    7.2534   -5.9132 C   0  0  0  0  0  0  0  0  0  0  0  0
   -7.8637    5.8836   -6.1028 C   0  0  0  0  0  0  0  0  0  0  0  0
   -7.6830    4.7679   -6.3019 N   0  0  0  0  0  0  0  0  0  0  0  0
   -8.2726    7.9538   -7.1292 C   0  0  0  0  0  0  0  0  0  0  0  0
   -8.3610    8.4910   -8.1399 N   0  0  0  0  0  0  0  0  0  0  0  0
    4.5403   -7.5617    2.0987 H   0  0  0  0  0  0  0  0  0  0  0  0
    1.8938   -3.8213    6.3717 H   0  0  0  0  0  0  0  0  0  0  0  0
    4.2620   -8.1220    7.6137 H   0  0  0  0  0  0  0  0  0  0  0  0
    2.0672   -7.2106   10.0767 H   0  0  0  0  0  0  0  0  0  0  0  0
    4.5364   -6.6147   10.8795 H   0  0  0  0  0  0  0  0  0  0  0  0
    2.8691   -6.0476   12.8295 H   0  0  0  0  0  0  0  0  0  0  0  0
    1.6156   -3.7875   12.2152 H   0  0  0  0  0  0  0  0  0  0  0  0
    2.5110   -2.9625    9.8871 H   0  0  0  0  0  0  0  0  0  0  0  0
    4.5354   -4.5648    9.1424 H   0  0  0  0  0  0  0  0  0  0  0  0
    4.7758   -3.9799   10.8050 H   0  0  0  0  0  0  0  0  0  0  0  0
    0.8381   -4.9948    9.4737 H   0  0  0  0  0  0  0  0  0  0  0  0
    3.8130    0.3556    1.5941 H   0  0  0  0  0  0  0  0  0  0  0  0
    5.3830    0.1925    2.4009 H   0  0  0  0  0  0  0  0  0  0  0  0
    5.5961    1.4006    0.2404 H   0  0  0  0  0  0  0  0  0  0  0  0
    6.4516   -0.1419    0.1370 H   0  0  0  0  0  0  0  0  0  0  0  0
    4.8624    0.0369   -0.6088 H   0  0  0  0  0  0  0  0  0  0  0  0
    5.9441   -1.2108    3.9601 H   0  0  0  0  0  0  0  0  0  0  0  0
    6.3850   -2.9175    4.1356 H   0  0  0  0  0  0  0  0  0  0  0  0
    7.5681   -1.0107    2.0528 H   0  0  0  0  0  0  0  0  0  0  0  0
    8.3727   -1.5815    3.5161 H   0  0  0  0  0  0  0  0  0  0  0  0
    7.9677   -2.7207    2.2298 H   0  0  0  0  0  0  0  0  0  0  0  0
    0.0298   -3.1719    1.0820 H   0  0  0  0  0  0  0  0  0  0  0  0
    0.4797   -4.3638    3.1778 H   0  0  0  0  0  0  0  0  0  0  0  0
    2.0409   -8.6201    2.4693 H   0  0  0  0  0  0  0  0  0  0  0  0
    1.8809   -9.1353    4.1675 H   0  0  0  0  0  0  0  0  0  0  0  0
    0.5144   -9.3513    3.0570 H   0  0  0  0  0  0  0  0  0  0  0  0
    0.0606   -8.1007    1.1353 H   0  0  0  0  0  0  0  0  0  0  0  0
   -0.3777   -6.9136   -0.9475 H   0  0  0  0  0  0  0  0  0  0  0  0
   -2.6843   -5.3570   -0.8251 H   0  0  0  0  0  0  0  0  0  0  0  0
   -4.3225   -6.0572   -2.5270 H   0  0  0  0  0  0  0  0  0  0  0  0
   -4.5033   -5.7873   -7.6383 H   0  0  0  0  0  0  0  0  0  0  0  0
   -2.8204   -6.1002   -7.1646 H   0  0  0  0  0  0  0  0  0  0  0  0
   -3.5304   -4.4647   -6.9572 H   0  0  0  0  0  0  0  0  0  0  0  0
   -1.6244   -4.8410   -5.6166 H   0  0  0  0  0  0  0  0  0  0  0  0
    0.0039   -4.1789   -3.9327 H   0  0  0  0  0  0  0  0  0  0  0  0
   -1.1713    1.6644   -0.7402 H   0  0  0  0  0  0  0  0  0  0  0  0
   -2.7115    3.5126   -0.3892 H   0  0  0  0  0  0  0  0  0  0  0  0
   -4.7535    6.5204   -0.3688 H   0  0  0  0  0  0  0  0  0  0  0  0
   -3.5301    5.5683    0.4999 H   0  0  0  0  0  0  0  0  0  0  0  0
   -4.5852    4.7880   -0.7237 H   0  0  0  0  0  0  0  0  0  0  0  0
   -0.5491    5.8523   -3.2470 H   0  0  0  0  0  0  0  0  0  0  0  0
    0.9979    3.9780   -3.6070 H   0  0  0  0  0  0  0  0  0  0  0  0
    2.3454    0.1055   -4.1125 H   0  0  0  0  0  0  0  0  0  0  0  0
    4.7884    0.3033   -4.3172 H   0  0  0  0  0  0  0  0  0  0  0  0
    8.2811    3.5400   -2.4500 H   0  0  0  0  0  0  0  0  0  0  0  0
    7.0651    3.3052   -1.1777 H   0  0  0  0  0  0  0  0  0  0  0  0
    6.6847    4.3021   -2.6202 H   0  0  0  0  0  0  0  0  0  0  0  0
    4.7579    3.5148   -1.4927 H   0  0  0  0  0  0  0  0  0  0  0  0
    2.3473    3.2884   -1.2581 H   0  0  0  0  0  0  0  0  0  0  0  0
   -0.6435    2.1089   -5.0380 H   0  0  0  0  0  0  0  0  0  0  0  0
   -5.5923    6.8217   -4.7921 H   0  0  0  0  0  0  0  0  0  0  0  0
   -8.0295    5.6794   -1.9801 H   0  0  0  0  0  0  0  0  0  0  0  0
  -10.4747   10.3739   -1.6919 H   0  0  0  0  0  0  0  0  0  0  0  0
  -10.6303   12.3510   -3.2100 H   0  0  0  0  0  0  0  0  0  0  0  0
   -8.1564   12.4576   -6.8767 H   0  0  0  0  0  0  0  0  0  0  0  0
   -9.7083   11.8222   -7.4915 H   0  0  0  0  0  0  0  0  0  0  0  0
   -9.4987   13.5720   -7.2314 H   0  0  0  0  0  0  0  0  0  0  0  0
   -8.5375   10.2187   -6.2744 H   0  0  0  0  0  0  0  0  0  0  0  0
  1  2  2  0  0  0  0
  2  3  1  0  0  0  0
  3  4  2  0  0  0  0
  3  5  1  0  0  0  0
  5  6  2  0  0  0  0
  6  7  1  0  0  0  0
  7  8  2  0  0  0  0
  8  9  1  0  0  0  0
  9 10  2  0  0  0  0
 10 11  1  0  0  0  0
 11 12  2  0  0  0  0
 12 13  1  0  0  0  0
 13 14  3  0  0  0  0
 12 15  1  0  0  0  0
 15 16  3  0  0  0  0
  8 17  1  0  0  0  0
 17 18  1  0  0  0  0
 18 19  1  0  0  0  0
 19 20  2  0  0  0  0
 20 21  1  0  0  0  0
 21 22  1  0  0  0  0
 21 23  1  0  0  0  0
  1 24  1  0  0  0  0
 24 25  2  0  0  0  0
 25 26  1  0  0  0  0
 25 27  1  0  0  0  0
 27 28  1  0  0  0  0
 27 29  2  0  0  0  0
 29 30  1  0  0  0  0
 30 31  2  0  0  0  0
 31 32  1  0  0  0  0
 32 33  1  0  0  0  0
 33 34  1  0  0  0  0
 32 35  2  0  0  0  0
 35 36  1  0  0  0  0
 36 37  2  0  0  0  0
 35 38  1  0  0  0  0
 38 39  1  0  0  0  0
 29 40  1  0  0  0  0
 40 41  2  0  0  0  0
 41 42  1  0  0  0  0
 42 43  1  0  0  0  0
 43 44  2  0  0  0  0
 44 45  1  0  0  0  0
 45 46  2  0  0  0  0
 46 47  1  0  0  0  0
 47 48  1  0  0  0  0
 46 49  1  0  0  0  0
 49 50  2  0  0  0  0
 42 51  1  0  0  0  0
 51 52  2  0  0  0  0
 52 53  1  0  0  0  0
 53 54  2  0  0  0  0
 54 55  1  0  0  0  0
 55 56  1  0  0  0  0
 54 57  1  0  0  0  0
 57 58  2  0  0  0  0
 41 59  1  0  0  0  0
 59 60  1  0  0  0  0
 60 61  1  0  0  0  0
 61 62  2  0  0  0  0
 62 63  1  0  0  0  0
 63 64  1  0  0  0  0
 64 65  2  0  0  0  0
 65 66  1  0  0  0  0
 66 67  2  0  0  0  0
 67 68  1  0  0  0  0
 68 69  1  0  0  0  0
 67 70  1  0  0  0  0
 70 71  2  0  0  0  0
 63 72  1  0  0  0  0
 72 73  2  0  0  0  0
 73 74  1  0  0  0  0
 74 75  2  0  0  0  0
 75 76  1  0  0  0  0
 76 77  1  0  0  0  0
 75 78  1  0  0  0  0
 78 79  2  0  0  0  0
 62 80  1  0  0  0  0
 80 81  1  0  0  0  0
 61 82  1  0  0  0  0
 82 83  1  0  0  0  0
 83 84  1  0  0  0  0
 84 85  1  0  0  0  0
 85 86  2  0  0  0  0
 86 87  1  0  0  0  0
 87 88  1  0  0  0  0
 88 89  2  0  0  0  0
 88 90  1  0  0  0  0
 90 91  1  0  0  0  0
 86 92  1  0  0  0  0
 92 93  2  0  0  0  0
 93 94  1  0  0  0  0
 93 95  1  0  0  0  0
 95 96  2  0  0  0  0
 96 97  1  0  0  0  0
 97 98  2  0  0  0  0
 97 99  1  0  0  0  0
 99100  2  0  0  0  0
100101  1  0  0  0  0
101102  2  0  0  0  0
102103  1  0  0  0  0
103104  1  0  0  0  0
102105  1  0  0  0  0
105106  2  0  0  0  0
106107  1  0  0  0  0
107108  2  0  0  0  0
108109  1  0  0  0  0
109110  3  0  0  0  0
108111  1  0  0  0  0
111112  3  0  0  0  0
 11  2  1  0  0  0  0
 23 17  1  0  0  0  0
 37 24  1  0  0  0  0
 81 40  1  0  0  0  0
 91 82  2  0  0  0  0
107 96  1  0  0  0  0
 10  5  1  0  0  0  0
 22 18  1  0  0  0  0
 37 30  1  0  0  0  0
 50 43  1  0  0  0  0
 58 51  1  0  0  0  0
 80 59  2  0  0  0  0
 90 84  2  0  0  0  0
106 99  1  0  0  0  0
 23  7  1  0  0  0  0
 71 64  1  0  0  0  0
 79 72  1  0  0  0  0
 94 85  1  0  0  0  0
  1113  1  0  0  0  0
  6114  1  0  0  0  0
  9115  1  0  0  0  0
 17116  1  0  0  0  0
 18117  1  0  0  0  0
 19118  1  0  0  0  0
 20119  1  0  0  0  0
 21120  1  0  0  0  0
 22121  1  0  0  0  0
 22122  1  0  0  0  0
 23123  1  0  0  0  0
 33124  1  0  0  0  0
 33125  1  0  0  0  0
 34126  1  0  0  0  0
 34127  1  0  0  0  0
 34128  1  0  0  0  0
 38129  1  0  0  0  0
 38130  1  0  0  0  0
 39131  1  0  0  0  0
 39132  1  0  0  0  0
 39133  1  0  0  0  0
 44134  1  0  0  0  0
 45135  1  0  0  0  0
 48136  1  0  0  0  0
 48137  1  0  0  0  0
 48138  1  0  0  0  0
 49139  1  0  0  0  0
 50140  1  0  0  0  0
 52141  1  0  0  0  0
 53142  1  0  0  0  0
 56143  1  0  0  0  0
 56144  1  0  0  0  0
 56145  1  0  0  0  0
 57146  1  0  0  0  0
 58147  1  0  0  0  0
 65148  1  0  0  0  0
 66149  1  0  0  0  0
 69150  1  0  0  0  0
 69151  1  0  0  0  0
 69152  1  0  0  0  0
 70153  1  0  0  0  0
 71154  1  0  0  0  0
 73155  1  0  0  0  0
 74156  1  0  0  0  0
 77157  1  0  0  0  0
 77158  1  0  0  0  0
 77159  1  0  0  0  0
 78160  1  0  0  0  0
 79161  1  0  0  0  0
 91162  1  0  0  0  0
 92163  1  0  0  0  0
 95164  1  0  0  0  0
100165  1  0  0  0  0
101166  1  0  0  0  0
104167  1  0  0  0  0
104168  1  0  0  0  0
104169  1  0  0  0  0
105170  1  0  0  0  0
M  END
