144

C          3.37180       -1.05870       -8.43150
C          4.23370       -2.07410       -8.22220
C          4.89420       -2.76680       -9.36840
O          5.02180       -2.35110      -10.49450
C          5.28360       -4.08740       -8.83660
C          5.80400       -5.16220       -9.55690
C          6.04670       -6.28110       -8.79790
C          5.79500       -6.33450       -7.41890
C          5.29410       -5.28140       -6.69280
C          5.03590       -4.13220       -7.44720
C          4.53740       -2.83190       -7.01860
C          4.56890       -2.33650       -5.74350
C          4.31510       -0.98600       -5.42820
N          4.16580        0.10740       -5.11220
C          4.83030       -3.10450       -4.59340
N          4.97660       -3.68430       -3.61250
C          6.25510       -7.76680       -7.30950
C          5.15010       -8.83980       -7.20720
C          5.85280      -10.12080       -7.59590
C          6.09290      -10.06960       -8.89990
C          5.55660       -8.75340       -9.41470
C          4.34590       -8.58150       -8.48800
C          6.53800       -7.70660       -8.84500
C          2.38800       -0.56630       -7.49700
C          2.03130        0.77110       -7.47420
F          2.61220        1.61980       -8.33220
C          1.13860        1.28600       -6.52470
F          0.91940        2.60540       -6.50630
C          0.54020        0.47150       -5.58700
C          0.81440       -0.91560       -5.63860
N          0.20280       -1.73750       -4.75990
C          0.50140       -3.00760       -4.78590
O         -0.03900       -3.84210       -3.90450
C         -0.90690       -3.25850       -2.93460
C         -1.36450       -4.35250       -1.98840
C          1.38700       -3.55520       -5.77600
N          1.95500       -2.76700       -6.63980
C          1.72430       -1.43530       -6.58660
C          1.65580       -5.01760       -5.82760
C         -0.30090        0.98550       -4.50300
C         -1.43000        1.73840       -4.71750
F         -1.81270        2.03850       -5.96750
C         -2.24250        2.17340       -3.65460
F         -3.31760        2.91730       -3.96770
C         -1.96400        1.86670       -2.34050
C         -0.79730        1.09080       -2.09440
N         -0.50740        0.69970       -0.84060
C          0.57090       -0.00630       -0.61010
C          0.78460       -0.40200        0.82090
C          1.75910        0.54930        1.51830
C          1.46220       -0.33760       -1.67380
N          1.16480       -0.01070       -2.90580
C          0.03750        0.67230       -3.16110
C          2.76940       -1.04780       -1.48980
C          3.93320       -0.08060       -1.71780
C         -2.82900        2.28070       -1.22990
C         -2.25460        2.79580       -0.07500
C         -3.08840        3.14730        0.97430
N         -2.77580        3.68300        2.19750
C         -1.45100        3.90290        2.71640
C         -0.97980        2.72480        3.56700
C         -3.93470        3.81490        2.92190
C         -5.03680        3.39480        2.13120
C         -4.49420        2.97340        0.87990
C         -5.05300        2.46160       -0.28710
C         -4.22120        2.12480       -1.32990
C         -6.32630        3.45870        2.65530
C         -6.49470        3.90940        3.94080
C         -5.39650        4.28980        4.74740
C         -4.10560        4.27180        4.21440
C         -5.68090        4.72820        6.08350
C         -4.89580        4.72690        7.19590
C         -3.61240        4.00780        7.40760
O         -2.94170        3.39390        6.60280
C         -3.32170        4.11900        8.84850
C         -2.22450        3.57630        9.51490
C         -2.19920        3.84340       10.86180
C         -3.19660        4.59200       11.50240
C         -4.28350        5.13130       10.85810
C         -4.32640        4.87430        9.48370
C         -5.29980        5.28780        8.47950
C         -6.36430        6.11960        8.70620
C         -7.26270        6.60460        7.73070
N         -8.03270        7.06700        7.01440
C         -6.71300        6.64640        9.96830
N         -7.06390        7.10740       10.95950
C         -2.53960        4.46020       12.85320
C         -3.14110        3.44210       13.85310
C         -3.81940        2.37780       13.02680
C         -2.87410        1.67140       12.42120
C         -1.53920        2.24540       12.82730
C         -1.86210        2.69380       14.26170
C         -1.42730        3.62870       12.13970
H          3.38040       -0.60390       -9.41610
H          5.98930       -5.08090      -10.61640
H          5.10490       -5.32840       -5.63280
H          7.08770       -7.94710       -6.63240
H          4.60700       -8.84590       -6.26610
H          6.14270      -10.88210       -6.89590
H          6.62330      -10.77970       -9.50670
H          5.38330       -8.68040      -10.48470
H          3.88810       -7.59500       -8.53470
H          3.58700       -9.34340       -8.65780
H          7.55950       -7.84710       -9.19270
H         -1.75430       -2.79230       -3.44950
H         -0.36320       -2.47010       -2.40200
H         -2.02150       -3.92940       -1.23450
H         -0.50710       -4.80720       -1.49950
H         -1.90070       -5.12250       -2.53640
H          2.23890       -5.25640       -6.71250
H          0.71750       -5.56840       -5.83490
H          2.20490       -5.31660       -4.93520
H         -0.18410       -0.35070        1.32040
H          1.15590       -1.42610        0.88270
H          1.83240        0.29830        2.57350
H          1.40710        1.57420        1.43000
H          2.75050        0.48490        1.07790
H          2.83990       -1.49220       -0.49790
H          2.83540       -1.84380       -2.23490
H          4.87820       -0.60780       -1.61430
H          3.87390        0.33640       -2.71980
H          3.90690        0.73580       -0.99900
H         -1.18590        2.91860       -0.01700
H         -1.45890        4.81750        3.31640
H         -0.77570        4.05670        1.87170
H          0.04010        2.89280        3.90300
H         -1.61930        2.61010        4.43880
H         -1.01130        1.80770        2.98330
H         -6.12080        2.32870       -0.36880
H         -4.64040        1.71270       -2.23440
H         -7.17410        3.16060        2.05770
H         -7.48630        3.95870        4.36590
H         -3.27120        4.62120        4.79560
H         -6.69770        5.08060        6.21450
H         -1.47950        3.00750        8.98070
H         -5.04180        5.70140       11.36740
H         -2.25030        5.39230       13.33440
H         -3.73690        3.88660       14.64570
H         -4.88500        2.28710       12.92550
H         -2.99210        0.87260       11.71250
H         -0.67590        1.60000       12.68690
H         -2.05900        1.85700       14.93010
H         -1.10110        3.34060       14.69610
H         -0.41130        4.01880       12.15470
