
  xtb     02052201253D
 energy: -300.383480445927 gnorm: 0.000888659867 xtb: 6.4.1 (unknown)
180199  0     0  0            999 V2000
   -4.7114   -0.1412   -5.0112 C   0  0  0  0  0  0  0  0  0  0  0  0
   -5.9334   -0.3989   -4.4481 C   0  0  0  0  0  0  0  0  0  0  0  0
   -6.2698   -0.2516   -3.0266 C   0  0  0  0  0  0  0  0  0  0  0  0
   -5.5057   -0.0402   -2.1017 O   0  0  0  0  0  0  0  0  0  0  0  0
   -7.7351   -0.3879   -2.9378 C   0  0  0  0  0  0  0  0  0  0  0  0
   -8.5229   -0.2533   -1.7979 C   0  0  0  0  0  0  0  0  0  0  0  0
   -9.8687   -0.4140   -2.0263 C   0  0  0  0  0  0  0  0  0  0  0  0
  -10.3939   -0.6835   -3.2969 C   0  0  0  0  0  0  0  0  0  0  0  0
   -9.6273   -0.8195   -4.4303 C   0  0  0  0  0  0  0  0  0  0  0  0
   -8.2548   -0.6659   -4.2190 C   0  0  0  0  0  0  0  0  0  0  0  0
   -7.1427   -0.7454   -5.1640 C   0  0  0  0  0  0  0  0  0  0  0  0
   -7.2304   -1.1576   -6.4703 C   0  0  0  0  0  0  0  0  0  0  0  0
   -8.4338   -1.4996   -7.1198 C   0  0  0  0  0  0  0  0  0  0  0  0
   -9.3753   -1.7886   -7.7105 N   0  0  0  0  0  0  0  0  0  0  0  0
   -6.1318   -1.3507   -7.3319 C   0  0  0  0  0  0  0  0  0  0  0  0
   -5.2849   -1.5610   -8.0802 N   0  0  0  0  0  0  0  0  0  0  0  0
  -11.8139   -0.7186   -2.7905 C   0  0  0  0  0  0  0  0  0  0  0  0
  -12.4789   -2.1045   -2.6029 C   0  0  0  0  0  0  0  0  0  0  0  0
  -11.3612   -3.0860   -2.3517 C   0  0  0  0  0  0  0  0  0  0  0  0
  -10.8635   -2.8334   -1.1485 C   0  0  0  0  0  0  0  0  0  0  0  0
  -11.6360   -1.6766   -0.5642 C   0  0  0  0  0  0  0  0  0  0  0  0
  -13.0218   -1.9406   -1.1743 C   0  0  0  0  0  0  0  0  0  0  0  0
  -11.2285   -0.4208   -1.3741 C   0  0  0  0  0  0  0  0  0  0  0  0
   -3.4823    0.1544   -4.4038 C   0  0  0  0  0  0  0  0  0  0  0  0
   -2.3391    0.4416   -5.1419 C   0  0  0  0  0  0  0  0  0  0  0  0
   -1.1787    0.6143   -4.3928 C   0  0  0  0  0  0  0  0  0  0  0  0
    0.1037    1.0047   -4.9883 C   0  0  0  0  0  0  0  0  0  0  0  0
    0.8904    2.0050   -4.3903 C   0  0  0  0  0  0  0  0  0  0  0  0
    0.3708    2.5697   -3.2646 O   0  0  0  0  0  0  0  0  0  0  0  0
    0.9908    3.6836   -2.6575 C   0  0  0  0  0  0  0  0  0  0  0  0
    0.7450    4.9842   -3.4155 C   0  0  0  0  0  0  0  0  0  0  0  0
    2.0979    2.3793   -4.9684 C   0  0  0  0  0  0  0  0  0  0  0  0
    2.5124    1.7804   -6.1421 C   0  0  0  0  0  0  0  0  0  0  0  0
    1.7267    0.8387   -6.7752 C   0  0  0  0  0  0  0  0  0  0  0  0
    0.5135    0.4527   -6.2152 C   0  0  0  0  0  0  0  0  0  0  0  0
   -0.3212   -0.4493   -6.7980 O   0  0  0  0  0  0  0  0  0  0  0  0
   -0.3139   -0.5839   -8.2131 C   0  0  0  0  0  0  0  0  0  0  0  0
    0.5177   -1.7529   -8.7269 C   0  0  0  0  0  0  0  0  0  0  0  0
   -1.4366    0.4479   -3.0284 C   0  0  0  0  0  0  0  0  0  0  0  0
   -3.1120    0.1436   -2.7019 S   0  0  0  0  0  0  0  0  0  0  0  0
   -0.5460    0.5001   -1.9149 C   0  0  0  0  0  0  0  0  0  0  0  0
    0.7406   -0.0016   -1.7556 C   0  0  0  0  0  0  0  0  0  0  0  0
    1.4294   -0.8078   -2.6397 N   0  0  0  0  0  0  0  0  0  0  0  0
    2.8303   -0.8836   -2.4794 C   0  0  0  0  0  0  0  0  0  0  0  0
    3.6056    0.2720   -2.5394 C   0  0  0  0  0  0  0  0  0  0  0  0
    4.9568    0.2158   -2.2771 C   0  0  0  0  0  0  0  0  0  0  0  0
    5.5565   -0.9959   -1.9448 C   0  0  0  0  0  0  0  0  0  0  0  0
    7.2735   -0.9544   -1.5412 S   0  0  0  0  0  0  0  0  0  0  0  0
    7.5269   -2.5232   -0.6615 C   0  0  0  0  0  0  0  0  0  0  0  0
    4.7979   -2.1595   -1.9437 C   0  0  0  0  0  0  0  0  0  0  0  0
    3.4449   -2.1018   -2.2093 C   0  0  0  0  0  0  0  0  0  0  0  0
    0.8037   -1.7157   -3.4980 C   0  0  0  0  0  0  0  0  0  0  0  0
   -0.4635   -2.2314   -3.2345 C   0  0  0  0  0  0  0  0  0  0  0  0
   -1.0940   -3.0396   -4.1573 C   0  0  0  0  0  0  0  0  0  0  0  0
   -0.4492   -3.3864   -5.3350 C   0  0  0  0  0  0  0  0  0  0  0  0
   -1.2737   -4.3231   -6.5939 S   0  0  0  0  0  0  0  0  0  0  0  0
   -2.8944   -3.4953   -6.5944 C   0  0  0  0  0  0  0  0  0  0  0  0
    0.8633   -2.9824   -5.5418 C   0  0  0  0  0  0  0  0  0  0  0  0
    1.4766   -2.1365   -4.6449 C   0  0  0  0  0  0  0  0  0  0  0  0
    1.2669    0.3601   -0.4895 C   0  0  0  0  0  0  0  0  0  0  0  0
    2.7663    0.0461    0.3194 S   0  0  0  0  0  0  0  0  0  0  0  0
    2.2242    0.9529    1.7170 C   0  0  0  0  0  0  0  0  0  0  0  0
    0.8942    1.3654    1.6035 C   0  0  0  0  0  0  0  0  0  0  0  0
    0.1307    1.8923    2.6273 N   0  0  0  0  0  0  0  0  0  0  0  0
    0.3258    1.4532    3.9462 C   0  0  0  0  0  0  0  0  0  0  0  0
    0.1997    2.3421    5.0148 C   0  0  0  0  0  0  0  0  0  0  0  0
    0.5170    1.9399    6.2926 C   0  0  0  0  0  0  0  0  0  0  0  0
    0.9769    0.6466    6.5357 C   0  0  0  0  0  0  0  0  0  0  0  0
    1.4491    0.2702    8.1894 S   0  0  0  0  0  0  0  0  0  0  0  0
    2.1325   -1.4054    8.0787 C   0  0  0  0  0  0  0  0  0  0  0  0
    1.0431   -0.2595    5.4846 C   0  0  0  0  0  0  0  0  0  0  0  0
    0.7113    0.1409    4.2073 C   0  0  0  0  0  0  0  0  0  0  0  0
   -0.8798    2.8087    2.3140 C   0  0  0  0  0  0  0  0  0  0  0  0
   -0.6620    3.7693    1.3290 C   0  0  0  0  0  0  0  0  0  0  0  0
   -1.6581    4.6566    0.9742 C   0  0  0  0  0  0  0  0  0  0  0  0
   -2.8917    4.6015    1.6084 C   0  0  0  0  0  0  0  0  0  0  0  0
   -4.2371    5.6784    1.2328 S   0  0  0  0  0  0  0  0  0  0  0  0
   -3.7536    6.4219   -0.3523 C   0  0  0  0  0  0  0  0  0  0  0  0
   -3.1028    3.6627    2.6175 C   0  0  0  0  0  0  0  0  0  0  0  0
   -2.1122    2.7739    2.9667 C   0  0  0  0  0  0  0  0  0  0  0  0
    0.3826    1.0567    0.3211 C   0  0  0  0  0  0  0  0  0  0  0  0
   -1.1384    1.3000   -0.4638 S   0  0  0  0  0  0  0  0  0  0  0  0
    3.1451    1.1761    2.7814 C   0  0  0  0  0  0  0  0  0  0  0  0
    3.0617    2.2387    3.6800 C   0  0  0  0  0  0  0  0  0  0  0  0
    3.9078    2.3546    4.7732 C   0  0  0  0  0  0  0  0  0  0  0  0
    4.8864    1.4130    5.0784 C   0  0  0  0  0  0  0  0  0  0  0  0
    5.1076    0.4043    4.1028 C   0  0  0  0  0  0  0  0  0  0  0  0
    6.1034   -0.4746    4.0556 N   0  0  0  0  0  0  0  0  0  0  0  0
    5.9559   -1.3606    2.7228 S   0  0  0  0  0  0  0  0  0  0  0  0
    4.6294   -0.6659    2.1272 N   0  0  0  0  0  0  0  0  0  0  0  0
    4.2505    0.3024    2.9550 C   0  0  0  0  0  0  0  0  0  0  0  0
    5.6785    1.5183    6.2620 C   0  0  0  0  0  0  0  0  0  0  0  0
    6.2034    0.4636    6.9447 C   0  0  0  0  0  0  0  0  0  0  0  0
    5.7342   -0.9362    6.8229 C   0  0  0  0  0  0  0  0  0  0  0  0
    4.7471   -1.3407    6.2371 O   0  0  0  0  0  0  0  0  0  0  0  0
    6.6029   -1.7322    7.7064 C   0  0  0  0  0  0  0  0  0  0  0  0
    6.5875   -3.1152    7.8712 C   0  0  0  0  0  0  0  0  0  0  0  0
    7.5193   -3.5839    8.7654 C   0  0  0  0  0  0  0  0  0  0  0  0
    8.3909   -2.7362    9.4622 C   0  0  0  0  0  0  0  0  0  0  0  0
    8.4057   -1.3692    9.3219 C   0  0  0  0  0  0  0  0  0  0  0  0
    7.4751   -0.8723    8.4042 C   0  0  0  0  0  0  0  0  0  0  0  0
    7.2184    0.5020    7.9803 C   0  0  0  0  0  0  0  0  0  0  0  0
    7.8690    1.6146    8.4472 C   0  0  0  0  0  0  0  0  0  0  0  0
    7.6403    2.9370    8.0126 C   0  0  0  0  0  0  0  0  0  0  0  0
    7.5167    4.0408    7.7196 N   0  0  0  0  0  0  0  0  0  0  0  0
    8.8706    1.6002    9.4402 C   0  0  0  0  0  0  0  0  0  0  0  0
    9.6872    1.6693   10.2447 N   0  0  0  0  0  0  0  0  0  0  0  0
    9.0641   -3.8825   10.1746 C   0  0  0  0  0  0  0  0  0  0  0  0
   10.4587   -4.3235    9.6653 C   0  0  0  0  0  0  0  0  0  0  0  0
   10.5219   -3.9435    8.2068 C   0  0  0  0  0  0  0  0  0  0  0  0
    9.6996   -4.7454    7.5435 C   0  0  0  0  0  0  0  0  0  0  0  0
    9.0654   -5.6823    8.5418 C   0  0  0  0  0  0  0  0  0  0  0  0
   10.2233   -5.8373    9.5405 C   0  0  0  0  0  0  0  0  0  0  0  0
    8.0957   -4.8272    9.3952 C   0  0  0  0  0  0  0  0  0  0  0  0
   -4.6566   -0.1592   -6.0936 H   0  0  0  0  0  0  0  0  0  0  0  0
   -8.0776   -0.0392   -0.8388 H   0  0  0  0  0  0  0  0  0  0  0  0
  -10.0468   -1.0194   -5.4022 H   0  0  0  0  0  0  0  0  0  0  0  0
  -12.4932    0.0120   -3.2255 H   0  0  0  0  0  0  0  0  0  0  0  0
  -13.1880   -2.3738   -3.3811 H   0  0  0  0  0  0  0  0  0  0  0  0
  -11.0202   -3.8027   -3.0757 H   0  0  0  0  0  0  0  0  0  0  0  0
  -10.0230   -3.2969   -0.6659 H   0  0  0  0  0  0  0  0  0  0  0  0
  -11.5783   -1.5564    0.5145 H   0  0  0  0  0  0  0  0  0  0  0  0
  -13.4840   -2.8496   -0.7924 H   0  0  0  0  0  0  0  0  0  0  0  0
  -13.7105   -1.1038   -1.0652 H   0  0  0  0  0  0  0  0  0  0  0  0
  -11.5266    0.5038   -0.8833 H   0  0  0  0  0  0  0  0  0  0  0  0
   -2.3738    0.5399   -6.2115 H   0  0  0  0  0  0  0  0  0  0  0  0
    0.5198    3.7366   -1.6711 H   0  0  0  0  0  0  0  0  0  0  0  0
    2.0647    3.5101   -2.5138 H   0  0  0  0  0  0  0  0  0  0  0  0
    1.1803    4.9436   -4.4108 H   0  0  0  0  0  0  0  0  0  0  0  0
   -0.3244    5.1523   -3.5166 H   0  0  0  0  0  0  0  0  0  0  0  0
    1.1855    5.8150   -2.8709 H   0  0  0  0  0  0  0  0  0  0  0  0
    2.7185    3.1389   -4.5210 H   0  0  0  0  0  0  0  0  0  0  0  0
    3.4573    2.0671   -6.5785 H   0  0  0  0  0  0  0  0  0  0  0  0
    2.0632    0.4060   -7.7026 H   0  0  0  0  0  0  0  0  0  0  0  0
   -1.3627   -0.7526   -8.4829 H   0  0  0  0  0  0  0  0  0  0  0  0
    0.0141    0.3559   -8.6736 H   0  0  0  0  0  0  0  0  0  0  0  0
    0.1188   -2.6885   -8.3462 H   0  0  0  0  0  0  0  0  0  0  0  0
    0.4703   -1.7700   -9.8127 H   0  0  0  0  0  0  0  0  0  0  0  0
    1.5571   -1.6650   -8.4215 H   0  0  0  0  0  0  0  0  0  0  0  0
    3.1313    1.2117   -2.7737 H   0  0  0  0  0  0  0  0  0  0  0  0
    5.5597    1.1103   -2.3060 H   0  0  0  0  0  0  0  0  0  0  0  0
    8.5002   -2.4426   -0.1876 H   0  0  0  0  0  0  0  0  0  0  0  0
    6.7536   -2.6394    0.0923 H   0  0  0  0  0  0  0  0  0  0  0  0
    7.5289   -3.3541   -1.3612 H   0  0  0  0  0  0  0  0  0  0  0  0
    5.2459   -3.1145   -1.7225 H   0  0  0  0  0  0  0  0  0  0  0  0
    2.8511   -3.0037   -2.1879 H   0  0  0  0  0  0  0  0  0  0  0  0
   -0.9599   -2.0076   -2.3034 H   0  0  0  0  0  0  0  0  0  0  0  0
   -2.0886   -3.4033   -3.9497 H   0  0  0  0  0  0  0  0  0  0  0  0
   -3.3333   -3.6596   -7.5729 H   0  0  0  0  0  0  0  0  0  0  0  0
   -3.5382   -3.9178   -5.8280 H   0  0  0  0  0  0  0  0  0  0  0  0
   -2.7389   -2.4342   -6.4276 H   0  0  0  0  0  0  0  0  0  0  0  0
    1.3888   -3.3128   -6.4230 H   0  0  0  0  0  0  0  0  0  0  0  0
    2.4754   -1.7747   -4.8383 H   0  0  0  0  0  0  0  0  0  0  0  0
   -0.1234    3.3565    4.8323 H   0  0  0  0  0  0  0  0  0  0  0  0
    0.4390    2.6321    7.1167 H   0  0  0  0  0  0  0  0  0  0  0  0
    2.5313   -1.6233    9.0651 H   0  0  0  0  0  0  0  0  0  0  0  0
    1.3443   -2.1127    7.8368 H   0  0  0  0  0  0  0  0  0  0  0  0
    2.9308   -1.4304    7.3412 H   0  0  0  0  0  0  0  0  0  0  0  0
    1.3618   -1.2758    5.6447 H   0  0  0  0  0  0  0  0  0  0  0  0
    0.7709   -0.5714    3.3980 H   0  0  0  0  0  0  0  0  0  0  0  0
    0.3029    3.8237    0.8451 H   0  0  0  0  0  0  0  0  0  0  0  0
   -1.4556    5.3897    0.2102 H   0  0  0  0  0  0  0  0  0  0  0  0
   -3.4890    5.6369   -1.0543 H   0  0  0  0  0  0  0  0  0  0  0  0
   -4.6299    6.9563   -0.7056 H   0  0  0  0  0  0  0  0  0  0  0  0
   -2.9335    7.1197   -0.2089 H   0  0  0  0  0  0  0  0  0  0  0  0
   -4.0616    3.6318    3.1115 H   0  0  0  0  0  0  0  0  0  0  0  0
   -2.2887    2.0360    3.7344 H   0  0  0  0  0  0  0  0  0  0  0  0
    2.3231    3.0063    3.5165 H   0  0  0  0  0  0  0  0  0  0  0  0
    3.7656    3.1829    5.4520 H   0  0  0  0  0  0  0  0  0  0  0  0
    5.8603    2.5246    6.6167 H   0  0  0  0  0  0  0  0  0  0  0  0
    5.8964   -3.7318    7.3176 H   0  0  0  0  0  0  0  0  0  0  0  0
    9.0789   -0.7320    9.8704 H   0  0  0  0  0  0  0  0  0  0  0  0
    9.0031   -3.8728   11.2609 H   0  0  0  0  0  0  0  0  0  0  0  0
   11.2896   -3.9945   10.2834 H   0  0  0  0  0  0  0  0  0  0  0  0
   11.0959   -3.1186    7.8272 H   0  0  0  0  0  0  0  0  0  0  0  0
    9.4488   -4.7233    6.4991 H   0  0  0  0  0  0  0  0  0  0  0  0
    8.6286   -6.5916    8.1369 H   0  0  0  0  0  0  0  0  0  0  0  0
   11.0777   -6.3627    9.1164 H   0  0  0  0  0  0  0  0  0  0  0  0
    9.9289   -6.3094   10.4768 H   0  0  0  0  0  0  0  0  0  0  0  0
    7.4035   -5.4371    9.9728 H   0  0  0  0  0  0  0  0  0  0  0  0
  1  2  2  0  0  0  0
  2  3  1  0  0  0  0
  3  4  2  0  0  0  0
  3  5  1  0  0  0  0
  5  6  2  0  0  0  0
  6  7  1  0  0  0  0
  7  8  2  0  0  0  0
  8  9  1  0  0  0  0
  9 10  2  0  0  0  0
 10 11  1  0  0  0  0
 11 12  2  0  0  0  0
 12 13  1  0  0  0  0
 13 14  3  0  0  0  0
 12 15  1  0  0  0  0
 15 16  3  0  0  0  0
  8 17  1  0  0  0  0
 17 18  1  0  0  0  0
 18 19  1  0  0  0  0
 19 20  2  0  0  0  0
 20 21  1  0  0  0  0
 21 22  1  0  0  0  0
 21 23  1  0  0  0  0
  1 24  1  0  0  0  0
 24 25  2  0  0  0  0
 25 26  1  0  0  0  0
 26 27  1  0  0  0  0
 27 28  2  0  0  0  0
 28 29  1  0  0  0  0
 29 30  1  0  0  0  0
 30 31  1  0  0  0  0
 28 32  1  0  0  0  0
 32 33  2  0  0  0  0
 33 34  1  0  0  0  0
 34 35  2  0  0  0  0
 35 36  1  0  0  0  0
 36 37  1  0  0  0  0
 37 38  1  0  0  0  0
 26 39  2  0  0  0  0
 39 40  1  0  0  0  0
 39 41  1  0  0  0  0
 41 42  2  0  0  0  0
 42 43  1  0  0  0  0
 43 44  1  0  0  0  0
 44 45  2  0  0  0  0
 45 46  1  0  0  0  0
 46 47  2  0  0  0  0
 47 48  1  0  0  0  0
 48 49  1  0  0  0  0
 47 50  1  0  0  0  0
 50 51  2  0  0  0  0
 43 52  1  0  0  0  0
 52 53  2  0  0  0  0
 53 54  1  0  0  0  0
 54 55  2  0  0  0  0
 55 56  1  0  0  0  0
 56 57  1  0  0  0  0
 55 58  1  0  0  0  0
 58 59  2  0  0  0  0
 42 60  1  0  0  0  0
 60 61  1  0  0  0  0
 61 62  1  0  0  0  0
 62 63  2  0  0  0  0
 63 64  1  0  0  0  0
 64 65  1  0  0  0  0
 65 66  2  0  0  0  0
 66 67  1  0  0  0  0
 67 68  2  0  0  0  0
 68 69  1  0  0  0  0
 69 70  1  0  0  0  0
 68 71  1  0  0  0  0
 71 72  2  0  0  0  0
 64 73  1  0  0  0  0
 73 74  2  0  0  0  0
 74 75  1  0  0  0  0
 75 76  2  0  0  0  0
 76 77  1  0  0  0  0
 77 78  1  0  0  0  0
 76 79  1  0  0  0  0
 79 80  2  0  0  0  0
 63 81  1  0  0  0  0
 81 82  1  0  0  0  0
 62 83  1  0  0  0  0
 83 84  2  0  0  0  0
 84 85  1  0  0  0  0
 85 86  2  0  0  0  0
 86 87  1  0  0  0  0
 87 88  2  0  0  0  0
 88 89  1  0  0  0  0
 89 90  1  0  0  0  0
 90 91  2  0  0  0  0
 86 92  1  0  0  0  0
 92 93  2  0  0  0  0
 93 94  1  0  0  0  0
 94 95  2  0  0  0  0
 94 96  1  0  0  0  0
 96 97  2  0  0  0  0
 97 98  1  0  0  0  0
 98 99  2  0  0  0  0
 99100  1  0  0  0  0
100101  2  0  0  0  0
101102  1  0  0  0  0
102103  2  0  0  0  0
103104  1  0  0  0  0
104105  3  0  0  0  0
103106  1  0  0  0  0
106107  3  0  0  0  0
 99108  1  0  0  0  0
108109  1  0  0  0  0
109110  1  0  0  0  0
110111  2  0  0  0  0
111112  1  0  0  0  0
112113  1  0  0  0  0
112114  1  0  0  0  0
 11  2  1  0  0  0  0
 23 17  1  0  0  0  0
 40 24  1  0  0  0  0
 82 41  1  0  0  0  0
 91 83  1  0  0  0  0
102 93  1  0  0  0  0
114108  1  0  0  0  0
 10  5  1  0  0  0  0
 22 18  1  0  0  0  0
 35 27  1  0  0  0  0
 51 44  1  0  0  0  0
 59 52  1  0  0  0  0
 81 60  2  0  0  0  0
 91 87  1  0  0  0  0
101 96  1  0  0  0  0
113109  1  0  0  0  0
 23  7  1  0  0  0  0
 72 65  1  0  0  0  0
 80 73  1  0  0  0  0
114 98  1  0  0  0  0
  1115  1  0  0  0  0
  6116  1  0  0  0  0
  9117  1  0  0  0  0
 17118  1  0  0  0  0
 18119  1  0  0  0  0
 19120  1  0  0  0  0
 20121  1  0  0  0  0
 21122  1  0  0  0  0
 22123  1  0  0  0  0
 22124  1  0  0  0  0
 23125  1  0  0  0  0
 25126  1  0  0  0  0
 30127  1  0  0  0  0
 30128  1  0  0  0  0
 31129  1  0  0  0  0
 31130  1  0  0  0  0
 31131  1  0  0  0  0
 32132  1  0  0  0  0
 33133  1  0  0  0  0
 34134  1  0  0  0  0
 37135  1  0  0  0  0
 37136  1  0  0  0  0
 38137  1  0  0  0  0
 38138  1  0  0  0  0
 38139  1  0  0  0  0
 45140  1  0  0  0  0
 46141  1  0  0  0  0
 49142  1  0  0  0  0
 49143  1  0  0  0  0
 49144  1  0  0  0  0
 50145  1  0  0  0  0
 51146  1  0  0  0  0
 53147  1  0  0  0  0
 54148  1  0  0  0  0
 57149  1  0  0  0  0
 57150  1  0  0  0  0
 57151  1  0  0  0  0
 58152  1  0  0  0  0
 59153  1  0  0  0  0
 66154  1  0  0  0  0
 67155  1  0  0  0  0
 70156  1  0  0  0  0
 70157  1  0  0  0  0
 70158  1  0  0  0  0
 71159  1  0  0  0  0
 72160  1  0  0  0  0
 74161  1  0  0  0  0
 75162  1  0  0  0  0
 78163  1  0  0  0  0
 78164  1  0  0  0  0
 78165  1  0  0  0  0
 79166  1  0  0  0  0
 80167  1  0  0  0  0
 84168  1  0  0  0  0
 85169  1  0  0  0  0
 92170  1  0  0  0  0
 97171  1  0  0  0  0
100172  1  0  0  0  0
108173  1  0  0  0  0
109174  1  0  0  0  0
110175  1  0  0  0  0
111176  1  0  0  0  0
112177  1  0  0  0  0
113178  1  0  0  0  0
113179  1  0  0  0  0
114180  1  0  0  0  0
M  END
