239

C          0.14340       -5.75060        6.48810
C          0.31040       -6.78960        5.60980
C          0.59070       -6.55650        4.17300
O          0.61260       -5.49600        3.57880
C          0.96990       -7.87230        3.63000
C          1.32040       -8.15390        2.31370
C          1.53940       -9.48810        2.06740
C          1.42240      -10.46810        3.06150
C          1.10800      -10.19850        4.37340
C          0.88140       -8.84770        4.64270
C          0.48010       -8.18960        5.88280
C          0.19200       -8.80330        7.07710
C         -0.34330       -8.12140        8.18720
N         -0.82710       -7.63830        9.11070
C          0.30800      -10.18300        7.32140
N          0.35780      -11.29810        7.59540
C          1.72580      -11.59020        2.10170
C          0.53210      -12.43030        1.58260
C         -0.68240      -11.53580        1.62610
C         -0.54380      -10.61710        0.67910
C          0.77030      -10.87240       -0.01760
C          0.83500      -12.40470        0.07620
C          1.87800      -10.49720        0.99700
C         -0.25880       -4.47830        6.02380
C         -1.25840       -4.13610        5.10690
N         -2.31760       -4.88260        4.68640
C         -3.50480       -4.24090        4.27820
C         -3.99370       -3.14910        5.00000
C         -5.16040       -2.52730        4.61970
C         -5.87890       -2.98610        3.51670
S         -7.35180       -2.10310        3.12040
C         -8.05950       -3.02840        1.72780
C         -5.41150       -4.08810        2.81350
C         -4.23820       -4.71070        3.19430
C         -2.37120       -6.30310        4.75940
C         -2.76210       -6.92360        5.93740
C         -2.83550       -8.30240        6.01080
C         -2.52620       -9.07300        4.89640
S         -2.53360      -10.83340        4.88200
C         -3.10470      -11.30350        6.53760
C         -2.16820       -8.44650        3.70330
C         -2.09170       -7.07180        3.63220
C         -1.05630       -2.81410        4.63890
S         -1.78760       -1.93430        3.35490
C         -0.44400       -0.80590        3.35150
C          0.43930       -1.02020        4.39090
N          1.54600       -0.22840        4.65320
C          1.47180        1.15450        4.43260
C          2.56520        1.85040        3.92380
C          2.51310        3.21650        3.73650
C          1.36570        3.92140        4.07060
S          1.22750        5.67900        3.90450
C          2.92980        6.23100        3.61130
C          0.26480        3.23150        4.56960
C          0.31390        1.86600        4.74580
C          2.73920       -0.80440        5.10980
C          3.60820       -0.07570        5.91930
C          4.81810       -0.60460        6.31900
C          5.17360       -1.89040        5.93730
S          6.72020       -2.64440        6.35060
C          7.75500       -1.23180        6.83430
C          4.28130       -2.64860        5.18760
C          3.08430       -2.11130        4.76790
C          0.06980       -2.17790        5.13100
S          0.79280       -3.09920        6.40300
C         -0.36430        0.11210        2.23470
C          0.40010       -0.05690        1.10240
N          1.30060       -1.12650        0.89450
C          0.78730       -2.35980        0.49160
C          1.60910       -3.36990       -0.01490
C          1.11390       -4.63250       -0.27230
C         -0.23060       -4.91170       -0.07470
S         -0.93200       -6.53010       -0.24870
C          0.16750       -7.32020       -1.46300
C         -1.08220       -3.87570        0.28530
C         -0.58560       -2.61650        0.54120
C          2.64110       -0.91450        1.24420
C          3.43430       -1.93070        1.77440
C          4.74040       -1.69530        2.15530
C          5.28580       -0.42690        2.03570
S          6.90970        0.00140        2.58650
C          7.71340       -1.60380        2.85470
C          4.50620        0.59400        1.50100
C          3.20540        0.35620        1.11230
C          0.12800        0.94820        0.14520
S          0.75260        1.30030       -1.42690
C         -0.29720        2.70220       -1.53400
C         -1.15950        2.82390       -0.45100
N         -2.22320        3.69870       -0.36100
C         -2.61380        4.19650        0.89910
C         -3.96580        4.21690        1.24070
C         -4.36860        4.75610        2.44070
C         -3.42980        5.29910        3.31830
S         -4.05500        5.99330        4.81400
C         -2.56760        6.49400        5.72750
C         -2.08550        5.28210        2.97700
C         -1.67880        4.72430        1.77980
C         -2.85120        4.23510       -1.49480
C         -3.04060        3.47840       -2.64810
C         -3.49800        4.06550       -3.81290
C         -3.79180        5.42130       -3.83990
S         -4.22410        6.32260       -5.29420
C         -4.19280        5.07760       -6.61320
C         -3.71740        6.15640       -2.65760
C         -3.25250        5.57450       -1.50170
C         -0.86750        1.83460        0.52440
S         -1.47360        1.46590        2.09920
C         -0.19730        3.63410       -2.61250
C         -0.17080        3.44640       -3.96010
C         -0.30130        4.65060       -4.69800
C         -0.45620        4.80170       -6.09040
C         -0.52890        3.67330       -6.99520
C         -0.00590        3.54960       -8.25060
C         -0.38890        2.35400       -8.88470
F          0.02290        2.03910      -10.11950
C         -1.22400        1.55360       -8.15190
S         -1.83470       -0.01410       -8.61390
C         -3.38230       -0.07360       -7.63940
C         -4.41660        0.91020       -8.14880
S         -1.50710        2.27940       -6.59850
C         -0.60920        6.10280       -6.56370
C         -0.70940        7.23600       -5.71350
C         -0.66620        7.07120       -4.30660
C         -1.03790        8.12780       -3.40650
S         -0.47000        8.13880       -1.75730
C         -1.51820        9.44720       -1.32620
S         -1.63190       10.06770        0.29440
C         -0.73900        8.74590        1.20310
C         -0.87610        8.96000        2.69640
C         -2.21960        9.86060       -2.43470
C         -1.95860        9.13020       -3.60030
F         -3.11720       10.85530       -2.39590
C         -0.37650        5.78680       -3.85440
S         -0.21320        5.33360       -2.18830
C         -0.84560        8.43450       -6.43430
C         -0.89760        8.26310       -7.79700
S         -0.78590        6.55640       -8.22910
C         -1.03260        9.17150       -8.86860
C         -0.99360       10.53810       -8.90570
C         -0.64730       11.48820       -7.82070
O         -0.52060       11.27880       -6.63260
C         -0.46180       12.79470       -8.48270
C         -0.06330       13.99070       -7.91500
C          0.06390       15.10030       -8.73440
C         -0.21120       14.97380      -10.08850
F         -0.07360       16.05630      -10.87000
C         -0.61990       13.78590      -10.67920
C         -0.74730       12.68090       -9.85340
C         -1.15660       11.30570      -10.13160
C         -1.67450       10.86520      -11.31980
C         -1.80840       11.67320      -12.47000
N         -1.93900       12.27080      -13.44080
C         -2.19420        9.57570      -11.56870
N         -2.66260        8.56630      -11.85190
H          0.43180       -5.84770        7.52760
H          1.38030       -7.36270        1.58350
H          1.03410      -10.96210        5.13000
H          2.59230      -12.20520        2.33680
H          0.42650      -13.40210        2.05690
H         -1.46290      -11.62820        2.35860
H         -1.18480       -9.78330        0.45660
H          0.88950      -10.43000       -1.00370
H          0.06490      -12.89530       -0.51720
H          1.81190      -12.81420       -0.17790
H          2.85430      -10.38480        0.52800
H         -3.45820       -2.79780        5.86970
H         -5.53610       -1.68370        5.17770
H         -7.38820       -2.99090        0.87500
H         -8.98970       -2.52350        1.48610
H         -8.26300       -4.05200        2.02810
H         -5.94760       -4.47450        1.96190
H         -3.89090       -5.56610        2.63690
H         -2.99310       -6.32890        6.80850
H         -3.12470       -8.75870        6.94380
H         -2.38170      -10.99410        7.28650
H         -3.16800      -12.38710        6.52250
H         -4.08600      -10.87790        6.72560
H         -1.93940       -9.05120        2.83960
H         -1.79430       -6.59510        2.71000
H          3.46710        1.31520        3.67370
H          3.37850        3.71440        3.32980
H          3.57870        5.84510        4.39190
H          3.26290        5.91580        2.62660
H          2.89860        7.31540        3.65770
H         -0.63360        3.76940        4.82560
H         -0.54520        1.34850        5.14550
H          3.33760        0.92030        6.23620
H          5.46970       -0.00610        6.93480
H          7.69120       -0.45780        6.07500
H          8.76870       -1.61580        6.89190
H          7.45000       -0.85710        7.80710
H          4.54300       -3.66110        4.91960
H          2.42490       -2.70390        4.15540
H          2.65010       -3.16990       -0.21520
H          1.79340       -5.39300       -0.62570
H          0.36170       -6.62600       -2.27490
H          1.09200       -7.63950       -0.98950
H         -0.37130       -8.18600       -1.83510
H         -2.14160       -4.06210        0.37610
H         -1.27930       -1.82770        0.78270
H          3.02240       -2.91560        1.92390
H          5.31290       -2.50890        2.56880
H          7.63720       -2.20250        1.95200
H          8.75510       -1.37860        3.06170
H          7.27090       -2.11430        3.70540
H          4.93050        1.58150        1.39710
H          2.62400        1.17090        0.71170
H         -4.69240        3.81110        0.55300
H         -5.41260        4.76940        2.71250
H         -2.92890        6.88660        6.67300
H         -2.03430        7.26960        5.18620
H         -1.93070        5.63320        5.90670
H         -1.34130        5.71690        3.62170
H         -0.63060        4.72320        1.51880
H         -2.79980        2.42590       -2.64470
H         -3.59750        3.45360       -4.69480
H         -4.95520        4.32540       -6.43240
H         -3.20450        4.63270       -6.67650
H         -4.41450        5.61600       -7.52960
H         -3.99630        7.19870       -2.66880
H         -3.15610        6.16550       -0.60370
H         -0.12050        2.46890       -4.40310
H          0.64620        4.26710       -8.71220
H         -3.12140        0.11020       -6.59690
H         -3.72710       -1.10120       -7.74750
H         -4.65050        0.70920       -9.19140
H         -4.05280        1.93270       -8.06770
H         -5.32890        0.82050       -7.56260
H          0.30460        8.78440        0.89010
H         -1.17300        7.79160        0.90280
H         -0.47590        9.92930        2.98450
H         -0.32620        8.18190        3.22220
H         -1.92230        8.91630        2.99030
H         -2.49550        9.29650       -4.51490
H         -0.86050        9.40690       -5.98030
H         -1.15880        8.67510       -9.82420
H          0.14190       14.04530       -6.85740
H          0.37290       16.05750       -8.34530
H         -0.81480       13.75900      -11.73830
