180

C          2.25400       -4.41350       -6.35600
C          2.20450       -3.48220       -7.36480
C          1.31450       -2.32340       -7.40340
O          0.50970       -1.97100       -6.55230
C          1.55530       -1.65580       -8.69220
C          0.91980       -0.51590       -9.17950
C          1.35030       -0.12600      -10.42490
C          2.33770       -0.82100      -11.13490
C          2.97150       -1.94770      -10.66540
C          2.55210       -2.35980       -9.39750
C          2.99200       -3.48990       -8.57780
C          4.00460       -4.35730       -8.90060
C          4.75220       -4.30340      -10.09510
N          5.40130       -4.32530      -11.04240
C          4.47400       -5.41480       -8.09570
N          4.93180       -6.29290       -7.51200
C          2.27900        0.13000      -12.30460
C          3.41900        1.16530      -12.40790
C          2.85850        2.23020      -13.32280
C          1.92350        2.88890      -12.65000
C          1.83640        2.28020      -11.26910
C          3.30500        1.88910      -11.06000
C          1.17800        0.90540      -11.51200
C          1.60540       -4.41380       -5.12100
S          0.58450       -3.15440       -4.44870
C          0.53830       -3.92480       -2.89090
C          1.19010       -5.15190       -2.90240
C          1.40000       -6.21950       -1.98310
C          2.12430       -7.23050       -2.51280
C          2.54740       -8.50390       -1.86780
C          4.06800       -8.59270       -1.73180
S          2.60810       -6.91840       -4.17860
C          1.78040       -5.40740       -4.15640
C         -0.00960       -3.21610       -1.78550
C          0.56840       -3.01680       -0.53790
N          1.80970       -3.50780       -0.15430
C          1.97580       -3.95550        1.15560
C          3.18350       -3.78180        1.83190
C          3.32330       -4.23030        3.12730
C          2.26370       -4.85860        3.77470
S          2.50900       -5.39180        5.44710
C          1.49870       -6.90540        5.51470
C          1.05550       -5.02300        3.11220
C          0.91630       -4.58050        1.81350
C          2.84550       -3.53390       -1.10020
C          2.93190       -2.52780       -2.06500
C          3.80800       -2.64530       -3.11880
C          4.63800       -3.75970       -3.22670
S          5.61360       -3.87820       -4.69260
C          6.23820       -5.58030       -4.65280
C          4.64040       -4.70140       -2.20650
C          3.74850       -4.59120       -1.15590
C         -0.19370       -2.10900        0.23500
S         -0.05960       -1.47620        1.84270
C         -1.40090       -0.39340        1.52980
C         -2.02080       -0.63170        0.30380
N         -3.22640       -0.10430       -0.10640
C         -3.43200        0.09210       -1.47850
C         -2.38270        0.54870       -2.27350
C         -2.51570        0.61860       -3.64510
C         -3.71120        0.24370       -4.24290
S         -3.95530        0.22390       -5.98880
C         -2.26580        0.22700       -6.65790
C         -4.78970       -0.13400       -3.44370
C         -4.65440       -0.21330       -2.07550
C         -4.22080        0.18080        0.84100
C         -5.01040        1.32530        0.72910
C         -5.84800        1.68960        1.76010
C         -5.92190        0.92080        2.92060
S         -6.89610        1.55500        4.24590
C         -6.44950        0.48910        5.64470
C         -5.21960       -0.27690        2.98640
C         -4.38260       -0.64270        1.95310
C         -1.29510       -1.59670       -0.43490
S         -1.44620       -2.24160       -2.03110
C         -1.77650        0.56600        2.52170
C         -2.32440        1.80600        2.21930
F         -2.33220        2.23750        0.94450
C         -2.84980        2.64850        3.20010
F         -3.47980        3.75550        2.78940
C         -2.82180        2.31790        4.54710
C         -2.18400        1.09440        4.89820
N         -2.08160        0.74730        6.19200
C         -1.42760       -0.34320        6.51690
C         -1.31190       -0.62130        7.98460
C         -0.06100        0.06140        8.54480
C         -0.82410       -1.15730        5.51800
N         -0.95960       -0.85070        4.25020
C         -1.62550        0.25760        3.90350
C         -0.06030       -2.40980        5.81610
C         -1.01250       -3.60520        5.89190
C         -3.41450        3.12790        5.58020
C         -3.32890        4.47670        5.65740
C         -2.35470        5.30270        4.88600
O         -1.50900        4.91170        4.11340
C         -2.53800        6.68320        5.36640
C         -1.85260        7.81390        4.92530
C         -2.21780        8.97420        5.56330
C         -3.19090        9.00900        6.57240
C         -3.87210        7.90290        7.01880
C         -3.51640        6.70820        6.38140
C         -4.01320        5.35340        6.59370
C         -4.98000        4.98670        7.49190
C         -5.63360        5.87320        8.37440
N         -6.20240        6.53010        9.12500
C         -5.46470        3.67740        7.68690
N         -5.92130        2.65030        7.92440
C         -3.04200       10.49610        6.77550
C         -2.23410       10.94500        8.01180
C         -1.85100       12.37250        7.69460
C         -0.93170       12.34060        6.73830
C         -0.67760       10.89100        6.39330
C         -0.88690       10.25120        7.77190
C         -1.95920       10.45770        5.64970
H          2.90520       -5.26860       -6.49580
H          0.16180       -0.01310       -8.59930
H          3.72480       -2.47270      -11.22820
H          2.01700       -0.31210      -13.26380
H          4.38730        0.75060      -12.67420
H          3.15100        2.35450      -14.34880
H          1.27880        3.67300      -13.00170
H          1.36300        2.88230      -10.49800
H          3.47580        1.24880      -10.19660
H          3.95810        2.75830      -11.00340
H          0.18140        0.98060      -11.94320
H          1.01140       -6.22600       -0.98080
H          2.19580       -9.34800       -2.46750
H          2.08150       -8.56800       -0.88210
H          4.44230       -7.77830       -1.11600
H          4.53790       -8.53540       -2.71110
H          4.34890       -9.53490       -1.26850
H          4.00600       -3.29010        1.33500
H          4.25520       -4.09330        3.65370
H          0.44350       -6.66480        5.60750
H          1.68330       -7.49700        4.62370
H          1.82810       -7.44530        6.39660
H          0.21980       -5.49890        3.59990
H         -0.02280       -4.72110        1.29840
H          2.28260       -1.66780       -2.00060
H          3.84560       -1.88560       -3.88430
H          6.67040       -5.75590       -5.63280
H          6.99790       -5.68470       -3.88330
H          5.41040       -6.26510       -4.49790
H          5.31410       -5.54240       -2.23380
H          3.72970       -5.34960       -0.38730
H         -1.45580        0.84790       -1.80750
H         -1.68090        0.95830       -4.23570
H         -1.81050        1.20440       -6.52310
H         -1.67430       -0.55490       -6.18940
H         -2.38090        0.02000       -7.71800
H         -5.72590       -0.39190       -3.91430
H         -5.48230       -0.53910       -1.46360
H         -4.91790        1.95170       -0.14470
H         -6.42480        2.59900        1.69610
H         -5.36820        0.41390        5.71500
H         -6.90900       -0.48900        5.53360
H         -6.83600        0.98710        6.52870
H         -5.31140       -0.93030        3.83880
H         -3.82480       -1.56520        2.02260
H         -2.19160       -0.20710        8.47880
H         -1.26730       -1.69290        8.17590
H          0.83830       -0.31330        8.06040
H         -0.11900        1.13410        8.37800
H          0.01750       -0.12220        9.61320
H          0.48870       -2.31500        6.75220
H          0.65000       -2.57470        5.00450
H         -1.77950       -3.45100        6.64840
H         -1.50050       -3.75110        4.93120
H         -0.45300       -4.50050        6.14740
H         -3.91680        2.57120        6.36000
H         -1.11310        7.74090        4.14340
H         -4.61740        7.94760        7.79500
H         -3.94020       11.08930        6.61570
H         -2.72590       10.77010        8.96470
H         -2.31310       13.23170        8.14410
H         -0.47260       13.16780        6.22920
H          0.24920       10.66700        5.87200
H         -0.13000       10.56360        8.48940
H         -0.94390        9.16450        7.75300
H         -2.13500       11.02510        4.73790
