
  xtb     02062204153D
 energy: -345.125516555384 gnorm: 0.000321182683 xtb: 6.4.1 (unknown)
212233  0     0  0            999 V2000
   -5.2166   -6.8021   -1.8737 C   0  0  0  0  0  0  0  0  0  0  0  0
   -6.3485   -6.9305   -1.0957 C   0  0  0  0  0  0  0  0  0  0  0  0
   -6.5309   -6.2543    0.1986 C   0  0  0  0  0  0  0  0  0  0  0  0
   -5.7663   -5.4767    0.7409 O   0  0  0  0  0  0  0  0  0  0  0  0
   -7.7764   -6.8080    0.7683 C   0  0  0  0  0  0  0  0  0  0  0  0
   -8.3639   -6.4743    1.9838 C   0  0  0  0  0  0  0  0  0  0  0  0
   -9.5546   -7.1186    2.2254 C   0  0  0  0  0  0  0  0  0  0  0  0
  -10.1161   -8.0325    1.3261 C   0  0  0  0  0  0  0  0  0  0  0  0
   -9.5343   -8.3877    0.1316 C   0  0  0  0  0  0  0  0  0  0  0  0
   -8.3254   -7.7422   -0.1315 C   0  0  0  0  0  0  0  0  0  0  0  0
   -7.4496   -7.8272   -1.2976 C   0  0  0  0  0  0  0  0  0  0  0  0
   -7.7158   -8.5119   -2.4597 C   0  0  0  0  0  0  0  0  0  0  0  0
   -6.9337   -8.4098   -3.6261 C   0  0  0  0  0  0  0  0  0  0  0  0
   -6.3821   -8.3348   -4.6319 N   0  0  0  0  0  0  0  0  0  0  0  0
   -8.8416   -9.3270   -2.6729 C   0  0  0  0  0  0  0  0  0  0  0  0
   -9.7402   -9.9950   -2.9333 N   0  0  0  0  0  0  0  0  0  0  0  0
  -11.3260   -8.2664    2.1945 C   0  0  0  0  0  0  0  0  0  0  0  0
  -12.6453   -7.5622    1.7923 C   0  0  0  0  0  0  0  0  0  0  0  0
  -12.2600   -6.3147    1.0358 C   0  0  0  0  0  0  0  0  0  0  0  0
  -11.7329   -5.4628    1.9053 C   0  0  0  0  0  0  0  0  0  0  0  0
  -11.7448   -6.1215    3.2622 C   0  0  0  0  0  0  0  0  0  0  0  0
  -13.0340   -6.9502    3.1478 C   0  0  0  0  0  0  0  0  0  0  0  0
  -10.6943   -7.2578    3.2051 C   0  0  0  0  0  0  0  0  0  0  0  0
   -4.3699   -5.6917   -1.8842 C   0  0  0  0  0  0  0  0  0  0  0  0
   -4.6075   -4.3412   -1.5556 C   0  0  0  0  0  0  0  0  0  0  0  0
   -5.8057   -3.7422   -1.2978 N   0  0  0  0  0  0  0  0  0  0  0  0
   -5.7931   -2.5095   -0.6000 C   0  0  0  0  0  0  0  0  0  0  0  0
   -6.3727   -1.3851   -1.1739 C   0  0  0  0  0  0  0  0  0  0  0  0
   -6.2900   -0.1600   -0.5407 C   0  0  0  0  0  0  0  0  0  0  0  0
   -5.6311   -0.0518    0.6775 C   0  0  0  0  0  0  0  0  0  0  0  0
   -5.4264    1.4700    1.5412 S   0  0  0  0  0  0  0  0  0  0  0  0
   -5.7749    2.7257    0.2778 C   0  0  0  0  0  0  0  0  0  0  0  0
   -5.1040   -1.1928    1.2808 C   0  0  0  0  0  0  0  0  0  0  0  0
   -5.1804   -2.4133    0.6478 C   0  0  0  0  0  0  0  0  0  0  0  0
   -7.0457   -4.2473   -1.6986 C   0  0  0  0  0  0  0  0  0  0  0  0
   -8.1438   -4.1253   -0.8430 C   0  0  0  0  0  0  0  0  0  0  0  0
   -9.3593   -4.6691   -1.1897 C   0  0  0  0  0  0  0  0  0  0  0  0
   -9.5164   -5.3373   -2.4036 C   0  0  0  0  0  0  0  0  0  0  0  0
  -11.0922   -6.0620   -2.6996 S   0  0  0  0  0  0  0  0  0  0  0  0
  -10.9541   -6.7928   -4.3533 C   0  0  0  0  0  0  0  0  0  0  0  0
   -8.4444   -5.4037   -3.2867 C   0  0  0  0  0  0  0  0  0  0  0  0
   -7.2226   -4.8665   -2.9342 C   0  0  0  0  0  0  0  0  0  0  0  0
   -3.4026   -3.6033   -1.6213 C   0  0  0  0  0  0  0  0  0  0  0  0
   -3.0011   -1.9482   -1.3397 S   0  0  0  0  0  0  0  0  0  0  0  0
   -1.3127   -2.2477   -1.7250 C   0  0  0  0  0  0  0  0  0  0  0  0
   -1.0927   -3.5642   -2.1238 C   0  0  0  0  0  0  0  0  0  0  0  0
    0.1010   -4.1551   -2.5099 N   0  0  0  0  0  0  0  0  0  0  0  0
    0.2919   -5.4928   -2.1027 C   0  0  0  0  0  0  0  0  0  0  0  0
    0.0818   -5.8435   -0.7696 C   0  0  0  0  0  0  0  0  0  0  0  0
    0.2255   -7.1517   -0.3665 C   0  0  0  0  0  0  0  0  0  0  0  0
    0.5887   -8.1365   -1.2835 C   0  0  0  0  0  0  0  0  0  0  0  0
    0.7430   -9.7761   -0.6519 S   0  0  0  0  0  0  0  0  0  0  0  0
    0.9954  -10.7942   -2.1336 C   0  0  0  0  0  0  0  0  0  0  0  0
    0.8122   -7.7876   -2.6091 C   0  0  0  0  0  0  0  0  0  0  0  0
    0.6591   -6.4763   -3.0145 C   0  0  0  0  0  0  0  0  0  0  0  0
    1.0164   -3.5549   -3.3698 C   0  0  0  0  0  0  0  0  0  0  0  0
    2.3531   -3.9652   -3.3534 C   0  0  0  0  0  0  0  0  0  0  0  0
    3.2801   -3.3578   -4.1684 C   0  0  0  0  0  0  0  0  0  0  0  0
    2.9043   -2.3122   -5.0050 C   0  0  0  0  0  0  0  0  0  0  0  0
    4.1632   -1.5640   -5.9943 S   0  0  0  0  0  0  0  0  0  0  0  0
    3.5781    0.1507   -6.1234 C   0  0  0  0  0  0  0  0  0  0  0  0
    1.5756   -1.9140   -5.0456 C   0  0  0  0  0  0  0  0  0  0  0  0
    0.6399   -2.5318   -4.2396 C   0  0  0  0  0  0  0  0  0  0  0  0
   -2.2922   -4.3174   -2.0433 C   0  0  0  0  0  0  0  0  0  0  0  0
   -2.6969   -5.9570   -2.4061 S   0  0  0  0  0  0  0  0  0  0  0  0
   -0.4384   -1.1427   -1.5089 C   0  0  0  0  0  0  0  0  0  0  0  0
    0.9206   -1.0259   -1.5875 C   0  0  0  0  0  0  0  0  0  0  0  0
    1.4063    0.2523   -1.2106 C   0  0  0  0  0  0  0  0  0  0  0  0
    2.7337    0.7090   -1.2241 C   0  0  0  0  0  0  0  0  0  0  0  0
    3.8409   -0.1276   -1.7096 C   0  0  0  0  0  0  0  0  0  0  0  0
    4.0687   -1.4037   -1.1993 C   0  0  0  0  0  0  0  0  0  0  0  0
    5.1190   -2.1546   -1.6861 C   0  0  0  0  0  0  0  0  0  0  0  0
    5.9484   -1.6679   -2.6833 C   0  0  0  0  0  0  0  0  0  0  0  0
    5.7300   -0.3948   -3.1996 C   0  0  0  0  0  0  0  0  0  0  0  0
    6.4667    0.1939   -4.1740 O   0  0  0  0  0  0  0  0  0  0  0  0
    7.5092   -0.5433   -4.7834 C   0  0  0  0  0  0  0  0  0  0  0  0
    8.1078    0.3233   -5.8798 C   0  0  0  0  0  0  0  0  0  0  0  0
    4.6770    0.3685   -2.6975 C   0  0  0  0  0  0  0  0  0  0  0  0
    2.9484    2.0036   -0.7756 C   0  0  0  0  0  0  0  0  0  0  0  0
    1.9100    2.8616   -0.3364 C   0  0  0  0  0  0  0  0  0  0  0  0
    0.5765    2.4218   -0.3695 C   0  0  0  0  0  0  0  0  0  0  0  0
   -0.5364    3.2829    0.0570 C   0  0  0  0  0  0  0  0  0  0  0  0
   -1.4531    2.8290    0.9971 C   0  0  0  0  0  0  0  0  0  0  0  0
   -2.4915    3.6521    1.3967 C   0  0  0  0  0  0  0  0  0  0  0  0
   -2.6314    4.9126    0.8555 C   0  0  0  0  0  0  0  0  0  0  0  0
   -1.7219    5.3775   -0.0976 C   0  0  0  0  0  0  0  0  0  0  0  0
   -1.9525    6.6401   -0.5528 O   0  0  0  0  0  0  0  0  0  0  0  0
   -1.1024    7.1995   -1.5324 C   0  0  0  0  0  0  0  0  0  0  0  0
   -1.4194    6.7075   -2.9421 C   0  0  0  0  0  0  0  0  0  0  0  0
   -0.6726    4.5570   -0.4891 C   0  0  0  0  0  0  0  0  0  0  0  0
    0.3656    1.1237   -0.8027 C   0  0  0  0  0  0  0  0  0  0  0  0
   -1.1883    0.3503   -0.9499 S   0  0  0  0  0  0  0  0  0  0  0  0
    2.4137    4.0914    0.1623 C   0  0  0  0  0  0  0  0  0  0  0  0
    3.7712    4.1831    0.1243 C   0  0  0  0  0  0  0  0  0  0  0  0
    4.5093    2.7513   -0.5744 S   0  0  0  0  0  0  0  0  0  0  0  0
    4.6140    5.2421    0.6349 C   0  0  0  0  0  0  0  0  0  0  0  0
    4.1686    6.5755    0.6898 C   0  0  0  0  0  0  0  0  0  0  0  0
    2.9261    6.9002    0.2069 O   0  0  0  0  0  0  0  0  0  0  0  0
    2.9077    7.7999   -0.8955 C   0  0  0  0  0  0  0  0  0  0  0  0
    3.2961    7.0993   -2.1931 C   0  0  0  0  0  0  0  0  0  0  0  0
    4.9826    7.5523    1.2691 C   0  0  0  0  0  0  0  0  0  0  0  0
    4.5232    8.8517    1.3319 O   0  0  0  0  0  0  0  0  0  0  0  0
    4.1395    9.3047    2.6210 C   0  0  0  0  0  0  0  0  0  0  0  0
    2.9730    8.5139    3.1987 C   0  0  0  0  0  0  0  0  0  0  0  0
    6.2423    7.2187    1.7936 C   0  0  0  0  0  0  0  0  0  0  0  0
    6.6876    5.8993    1.6874 C   0  0  0  0  0  0  0  0  0  0  0  0
    5.8907    4.9389    1.1164 C   0  0  0  0  0  0  0  0  0  0  0  0
    7.0683    8.2559    2.3698 C   0  0  0  0  0  0  0  0  0  0  0  0
    7.7954    8.1470    3.5069 C   0  0  0  0  0  0  0  0  0  0  0  0
    7.6229    7.0740    4.5285 C   0  0  0  0  0  0  0  0  0  0  0  0
    6.9742    6.0554    4.4395 O   0  0  0  0  0  0  0  0  0  0  0  0
    8.3412    7.5512    5.7242 C   0  0  0  0  0  0  0  0  0  0  0  0
    8.4084    6.9101    6.9598 C   0  0  0  0  0  0  0  0  0  0  0  0
    9.1457    7.5853    7.9014 C   0  0  0  0  0  0  0  0  0  0  0  0
    9.7632    8.8170    7.6394 C   0  0  0  0  0  0  0  0  0  0  0  0
    9.6992    9.4637    6.4291 C   0  0  0  0  0  0  0  0  0  0  0  0
    8.9615    8.7875    5.4513 C   0  0  0  0  0  0  0  0  0  0  0  0
    8.6829    9.1554    4.0686 C   0  0  0  0  0  0  0  0  0  0  0  0
    9.2193   10.2176    3.3928 C   0  0  0  0  0  0  0  0  0  0  0  0
   10.1031   11.1606    3.9589 C   0  0  0  0  0  0  0  0  0  0  0  0
   10.8207   11.9627    4.3583 N   0  0  0  0  0  0  0  0  0  0  0  0
    8.9960   10.4995    2.0273 C   0  0  0  0  0  0  0  0  0  0  0  0
    8.8805   10.7840    0.9211 N   0  0  0  0  0  0  0  0  0  0  0  0
   10.3351    8.9157    9.0313 C   0  0  0  0  0  0  0  0  0  0  0  0
   11.8390    8.5949    9.2156 C   0  0  0  0  0  0  0  0  0  0  0  0
   12.2151    7.6492    8.1018 C   0  0  0  0  0  0  0  0  0  0  0  0
   11.6336    6.4827    8.3477 C   0  0  0  0  0  0  0  0  0  0  0  0
   10.8536    6.6187    9.6320 C   0  0  0  0  0  0  0  0  0  0  0  0
   11.7520    7.6082   10.3910 C   0  0  0  0  0  0  0  0  0  0  0  0
    9.6500    7.5430    9.3216 C   0  0  0  0  0  0  0  0  0  0  0  0
   -4.9192   -7.6309   -2.5052 H   0  0  0  0  0  0  0  0  0  0  0  0
   -7.9021   -5.7588    2.6466 H   0  0  0  0  0  0  0  0  0  0  0  0
   -9.9710   -9.1028   -0.5458 H   0  0  0  0  0  0  0  0  0  0  0  0
  -11.4886   -9.2897    2.5277 H   0  0  0  0  0  0  0  0  0  0  0  0
  -13.3714   -8.2091    1.3074 H   0  0  0  0  0  0  0  0  0  0  0  0
  -12.3540   -6.2091   -0.0296 H   0  0  0  0  0  0  0  0  0  0  0  0
  -11.3039   -4.4952    1.7185 H   0  0  0  0  0  0  0  0  0  0  0  0
  -11.6495   -5.4596    4.1193 H   0  0  0  0  0  0  0  0  0  0  0  0
  -13.1471   -7.6883    3.9408 H   0  0  0  0  0  0  0  0  0  0  0  0
  -13.9285   -6.3316    3.0906 H   0  0  0  0  0  0  0  0  0  0  0  0
  -10.4286   -7.6290    4.1933 H   0  0  0  0  0  0  0  0  0  0  0  0
   -6.8729   -1.4693   -2.1278 H   0  0  0  0  0  0  0  0  0  0  0  0
   -6.7339    0.7020   -1.0115 H   0  0  0  0  0  0  0  0  0  0  0  0
   -6.8337    2.7364    0.0353 H   0  0  0  0  0  0  0  0  0  0  0  0
   -5.4894    3.6755    0.7180 H   0  0  0  0  0  0  0  0  0  0  0  0
   -5.1651    2.5304   -0.5990 H   0  0  0  0  0  0  0  0  0  0  0  0
   -4.6241   -1.1035    2.2429 H   0  0  0  0  0  0  0  0  0  0  0  0
   -4.7763   -3.3050    1.1006 H   0  0  0  0  0  0  0  0  0  0  0  0
   -8.0227   -3.6243    0.1053 H   0  0  0  0  0  0  0  0  0  0  0  0
  -10.1988   -4.6076   -0.5155 H   0  0  0  0  0  0  0  0  0  0  0  0
  -10.2098   -7.5835   -4.3540 H   0  0  0  0  0  0  0  0  0  0  0  0
  -11.9314   -7.2157   -4.5641 H   0  0  0  0  0  0  0  0  0  0  0  0
  -10.7197   -6.0216   -5.0812 H   0  0  0  0  0  0  0  0  0  0  0  0
   -8.5397   -5.8845   -4.2471 H   0  0  0  0  0  0  0  0  0  0  0  0
   -6.3966   -4.9376   -3.6259 H   0  0  0  0  0  0  0  0  0  0  0  0
   -0.2023   -5.0829   -0.0572 H   0  0  0  0  0  0  0  0  0  0  0  0
    0.0583   -7.4282    0.6630 H   0  0  0  0  0  0  0  0  0  0  0  0
    0.1704  -10.6481   -2.8244 H   0  0  0  0  0  0  0  0  0  0  0  0
    1.0060  -11.8215   -1.7826 H   0  0  0  0  0  0  0  0  0  0  0  0
    1.9484  -10.5550   -2.5966 H   0  0  0  0  0  0  0  0  0  0  0  0
    1.0952   -8.5269   -3.3403 H   0  0  0  0  0  0  0  0  0  0  0  0
    0.8187   -6.2117   -4.0491 H   0  0  0  0  0  0  0  0  0  0  0  0
    2.6624   -4.7507   -2.6810 H   0  0  0  0  0  0  0  0  0  0  0  0
    4.3105   -3.6749   -4.1510 H   0  0  0  0  0  0  0  0  0  0  0  0
    3.1440    0.4425   -5.1723 H   0  0  0  0  0  0  0  0  0  0  0  0
    2.8596    0.2477   -6.9327 H   0  0  0  0  0  0  0  0  0  0  0  0
    4.4556    0.7548   -6.3303 H   0  0  0  0  0  0  0  0  0  0  0  0
    1.2571   -1.1266   -5.7105 H   0  0  0  0  0  0  0  0  0  0  0  0
   -0.3924   -2.2202   -4.2859 H   0  0  0  0  0  0  0  0  0  0  0  0
    1.5772   -1.8182   -1.8865 H   0  0  0  0  0  0  0  0  0  0  0  0
    3.4433   -1.7870   -0.4075 H   0  0  0  0  0  0  0  0  0  0  0  0
    5.3017   -3.1408   -1.2846 H   0  0  0  0  0  0  0  0  0  0  0  0
    6.7562   -2.2832   -3.0460 H   0  0  0  0  0  0  0  0  0  0  0  0
    7.1082   -1.4713   -5.2123 H   0  0  0  0  0  0  0  0  0  0  0  0
    8.2771   -0.7949   -4.0384 H   0  0  0  0  0  0  0  0  0  0  0  0
    7.3554    0.5419   -6.6325 H   0  0  0  0  0  0  0  0  0  0  0  0
    8.9376   -0.1967   -6.3496 H   0  0  0  0  0  0  0  0  0  0  0  0
    8.4638    1.2603   -5.4601 H   0  0  0  0  0  0  0  0  0  0  0  0
    4.5213    1.3542   -3.1085 H   0  0  0  0  0  0  0  0  0  0  0  0
   -1.3417    1.8480    1.4314 H   0  0  0  0  0  0  0  0  0  0  0  0
   -3.1940    3.3021    2.1378 H   0  0  0  0  0  0  0  0  0  0  0  0
   -3.4325    5.5697    1.1565 H   0  0  0  0  0  0  0  0  0  0  0  0
   -0.0520    7.0104   -1.2816 H   0  0  0  0  0  0  0  0  0  0  0  0
   -1.2847    8.2764   -1.4684 H   0  0  0  0  0  0  0  0  0  0  0  0
   -0.7676    7.2022   -3.6573 H   0  0  0  0  0  0  0  0  0  0  0  0
   -1.2792    5.6321   -3.0201 H   0  0  0  0  0  0  0  0  0  0  0  0
   -2.4532    6.9366   -3.1886 H   0  0  0  0  0  0  0  0  0  0  0  0
    0.0467    4.8749   -1.2275 H   0  0  0  0  0  0  0  0  0  0  0  0
    1.7908    4.8575    0.5849 H   0  0  0  0  0  0  0  0  0  0  0  0
    1.8766    8.1601   -0.9451 H   0  0  0  0  0  0  0  0  0  0  0  0
    3.5695    8.6507   -0.7099 H   0  0  0  0  0  0  0  0  0  0  0  0
    3.2068    7.7914   -3.0258 H   0  0  0  0  0  0  0  0  0  0  0  0
    2.6482    6.2434   -2.3702 H   0  0  0  0  0  0  0  0  0  0  0  0
    4.3242    6.7469   -2.1374 H   0  0  0  0  0  0  0  0  0  0  0  0
    3.8618   10.3500    2.4655 H   0  0  0  0  0  0  0  0  0  0  0  0
    4.9970    9.2625    3.3083 H   0  0  0  0  0  0  0  0  0  0  0  0
    3.2765    7.4895    3.4069 H   0  0  0  0  0  0  0  0  0  0  0  0
    2.1482    8.4925    2.4906 H   0  0  0  0  0  0  0  0  0  0  0  0
    2.6388    8.9769    4.1229 H   0  0  0  0  0  0  0  0  0  0  0  0
    7.6738    5.6451    2.0398 H   0  0  0  0  0  0  0  0  0  0  0  0
    6.2412    3.9200    1.0489 H   0  0  0  0  0  0  0  0  0  0  0  0
    7.0550    9.1998    1.8359 H   0  0  0  0  0  0  0  0  0  0  0  0
    7.9124    5.9655    7.1195 H   0  0  0  0  0  0  0  0  0  0  0  0
   10.1704   10.4150    6.2458 H   0  0  0  0  0  0  0  0  0  0  0  0
   10.0196    9.7773    9.6163 H   0  0  0  0  0  0  0  0  0  0  0  0
   12.4744    9.4676    9.3392 H   0  0  0  0  0  0  0  0  0  0  0  0
   12.8003    7.9338    7.2472 H   0  0  0  0  0  0  0  0  0  0  0  0
   11.6356    5.5974    7.7392 H   0  0  0  0  0  0  0  0  0  0  0  0
   10.5922    5.6917   10.1356 H   0  0  0  0  0  0  0  0  0  0  0  0
   11.2810    8.0298   11.2779 H   0  0  0  0  0  0  0  0  0  0  0  0
   12.7185    7.1819   10.6550 H   0  0  0  0  0  0  0  0  0  0  0  0
    8.8880    7.5066   10.0977 H   0  0  0  0  0  0  0  0  0  0  0  0
  1  2  2  0  0  0  0
  2  3  1  0  0  0  0
  3  4  2  0  0  0  0
  3  5  1  0  0  0  0
  5  6  2  0  0  0  0
  6  7  1  0  0  0  0
  7  8  2  0  0  0  0
  8  9  1  0  0  0  0
  9 10  2  0  0  0  0
 10 11  1  0  0  0  0
 11 12  2  0  0  0  0
 12 13  1  0  0  0  0
 13 14  3  0  0  0  0
 12 15  1  0  0  0  0
 15 16  3  0  0  0  0
  8 17  1  0  0  0  0
 17 18  1  0  0  0  0
 18 19  1  0  0  0  0
 19 20  2  0  0  0  0
 20 21  1  0  0  0  0
 21 22  1  0  0  0  0
 21 23  1  0  0  0  0
  1 24  1  0  0  0  0
 24 25  2  0  0  0  0
 25 26  1  0  0  0  0
 26 27  1  0  0  0  0
 27 28  2  0  0  0  0
 28 29  1  0  0  0  0
 29 30  2  0  0  0  0
 30 31  1  0  0  0  0
 31 32  1  0  0  0  0
 30 33  1  0  0  0  0
 33 34  2  0  0  0  0
 26 35  1  0  0  0  0
 35 36  2  0  0  0  0
 36 37  1  0  0  0  0
 37 38  2  0  0  0  0
 38 39  1  0  0  0  0
 39 40  1  0  0  0  0
 38 41  1  0  0  0  0
 41 42  2  0  0  0  0
 25 43  1  0  0  0  0
 43 44  1  0  0  0  0
 44 45  1  0  0  0  0
 45 46  2  0  0  0  0
 46 47  1  0  0  0  0
 47 48  1  0  0  0  0
 48 49  2  0  0  0  0
 49 50  1  0  0  0  0
 50 51  2  0  0  0  0
 51 52  1  0  0  0  0
 52 53  1  0  0  0  0
 51 54  1  0  0  0  0
 54 55  2  0  0  0  0
 47 56  1  0  0  0  0
 56 57  2  0  0  0  0
 57 58  1  0  0  0  0
 58 59  2  0  0  0  0
 59 60  1  0  0  0  0
 60 61  1  0  0  0  0
 59 62  1  0  0  0  0
 62 63  2  0  0  0  0
 46 64  1  0  0  0  0
 64 65  1  0  0  0  0
 45 66  1  0  0  0  0
 66 67  2  0  0  0  0
 67 68  1  0  0  0  0
 68 69  2  0  0  0  0
 69 70  1  0  0  0  0
 70 71  2  0  0  0  0
 71 72  1  0  0  0  0
 72 73  2  0  0  0  0
 73 74  1  0  0  0  0
 74 75  1  0  0  0  0
 75 76  1  0  0  0  0
 76 77  1  0  0  0  0
 74 78  2  0  0  0  0
 69 79  1  0  0  0  0
 79 80  2  0  0  0  0
 80 81  1  0  0  0  0
 81 82  1  0  0  0  0
 82 83  2  0  0  0  0
 83 84  1  0  0  0  0
 84 85  2  0  0  0  0
 85 86  1  0  0  0  0
 86 87  1  0  0  0  0
 87 88  1  0  0  0  0
 88 89  1  0  0  0  0
 86 90  2  0  0  0  0
 81 91  2  0  0  0  0
 91 92  1  0  0  0  0
 80 93  1  0  0  0  0
 93 94  2  0  0  0  0
 94 95  1  0  0  0  0
 94 96  1  0  0  0  0
 96 97  2  0  0  0  0
 97 98  1  0  0  0  0
 98 99  1  0  0  0  0
 99100  1  0  0  0  0
 97101  1  0  0  0  0
101102  1  0  0  0  0
102103  1  0  0  0  0
103104  1  0  0  0  0
101105  2  0  0  0  0
105106  1  0  0  0  0
106107  2  0  0  0  0
105108  1  0  0  0  0
108109  2  0  0  0  0
109110  1  0  0  0  0
110111  2  0  0  0  0
110112  1  0  0  0  0
112113  2  0  0  0  0
113114  1  0  0  0  0
114115  2  0  0  0  0
115116  1  0  0  0  0
116117  2  0  0  0  0
117118  1  0  0  0  0
118119  2  0  0  0  0
119120  1  0  0  0  0
120121  3  0  0  0  0
119122  1  0  0  0  0
122123  3  0  0  0  0
115124  1  0  0  0  0
124125  1  0  0  0  0
125126  1  0  0  0  0
126127  2  0  0  0  0
127128  1  0  0  0  0
128129  1  0  0  0  0
128130  1  0  0  0  0
 11  2  1  0  0  0  0
 23 17  1  0  0  0  0
 65 24  1  0  0  0  0
 92 66  1  0  0  0  0
107 96  1  0  0  0  0
118109  1  0  0  0  0
130124  1  0  0  0  0
 10  5  1  0  0  0  0
 22 18  1  0  0  0  0
 34 27  1  0  0  0  0
 42 35  1  0  0  0  0
 64 43  2  0  0  0  0
 91 68  1  0  0  0  0
117112  1  0  0  0  0
129125  1  0  0  0  0
 23  7  1  0  0  0  0
 55 48  1  0  0  0  0
 63 56  1  0  0  0  0
 78 70  1  0  0  0  0
 95 79  1  0  0  0  0
130114  1  0  0  0  0
 90 82  1  0  0  0  0
  1131  1  0  0  0  0
  6132  1  0  0  0  0
  9133  1  0  0  0  0
 17134  1  0  0  0  0
 18135  1  0  0  0  0
 19136  1  0  0  0  0
 20137  1  0  0  0  0
 21138  1  0  0  0  0
 22139  1  0  0  0  0
 22140  1  0  0  0  0
 23141  1  0  0  0  0
 28142  1  0  0  0  0
 29143  1  0  0  0  0
 32144  1  0  0  0  0
 32145  1  0  0  0  0
 32146  1  0  0  0  0
 33147  1  0  0  0  0
 34148  1  0  0  0  0
 36149  1  0  0  0  0
 37150  1  0  0  0  0
 40151  1  0  0  0  0
 40152  1  0  0  0  0
 40153  1  0  0  0  0
 41154  1  0  0  0  0
 42155  1  0  0  0  0
 49156  1  0  0  0  0
 50157  1  0  0  0  0
 53158  1  0  0  0  0
 53159  1  0  0  0  0
 53160  1  0  0  0  0
 54161  1  0  0  0  0
 55162  1  0  0  0  0
 57163  1  0  0  0  0
 58164  1  0  0  0  0
 61165  1  0  0  0  0
 61166  1  0  0  0  0
 61167  1  0  0  0  0
 62168  1  0  0  0  0
 63169  1  0  0  0  0
 67170  1  0  0  0  0
 71171  1  0  0  0  0
 72172  1  0  0  0  0
 73173  1  0  0  0  0
 76174  1  0  0  0  0
 76175  1  0  0  0  0
 77176  1  0  0  0  0
 77177  1  0  0  0  0
 77178  1  0  0  0  0
 78179  1  0  0  0  0
 83180  1  0  0  0  0
 84181  1  0  0  0  0
 85182  1  0  0  0  0
 88183  1  0  0  0  0
 88184  1  0  0  0  0
 89185  1  0  0  0  0
 89186  1  0  0  0  0
 89187  1  0  0  0  0
 90188  1  0  0  0  0
 93189  1  0  0  0  0
 99190  1  0  0  0  0
 99191  1  0  0  0  0
100192  1  0  0  0  0
100193  1  0  0  0  0
100194  1  0  0  0  0
103195  1  0  0  0  0
103196  1  0  0  0  0
104197  1  0  0  0  0
104198  1  0  0  0  0
104199  1  0  0  0  0
106200  1  0  0  0  0
107201  1  0  0  0  0
108202  1  0  0  0  0
113203  1  0  0  0  0
116204  1  0  0  0  0
124205  1  0  0  0  0
125206  1  0  0  0  0
126207  1  0  0  0  0
127208  1  0  0  0  0
128209  1  0  0  0  0
129210  1  0  0  0  0
129211  1  0  0  0  0
130212  1  0  0  0  0
M  END
