
  xtb     02082210303D
 energy: -318.904816299075 gnorm: 0.000709065232 xtb: 6.4.1 (unknown)
192208  0     0  0            999 V2000
    2.0510   -7.5068   -0.5053 C   0  0  0  0  0  0  0  0  0  0  0  0
    3.2881   -7.8522   -0.0818 C   0  0  0  0  0  0  0  0  0  0  0  0
    4.3345   -6.9005    0.3914 C   0  0  0  0  0  0  0  0  0  0  0  0
    4.3322   -5.6926    0.3129 O   0  0  0  0  0  0  0  0  0  0  0  0
    5.3575   -7.7351    1.0451 C   0  0  0  0  0  0  0  0  0  0  0  0
    6.5015   -7.2830    1.6976 C   0  0  0  0  0  0  0  0  0  0  0  0
    7.2728   -8.2847    2.2345 C   0  0  0  0  0  0  0  0  0  0  0  0
    6.9258   -9.6402    2.1426 C   0  0  0  0  0  0  0  0  0  0  0  0
    5.7982  -10.0999    1.5080 C   0  0  0  0  0  0  0  0  0  0  0  0
    5.0032   -9.0960    0.9437 C   0  0  0  0  0  0  0  0  0  0  0  0
    3.7439   -9.2017    0.2204 C   0  0  0  0  0  0  0  0  0  0  0  0
    3.1099  -10.3631   -0.1322 C   0  0  0  0  0  0  0  0  0  0  0  0
    1.8895  -10.4469   -0.8367 C   0  0  0  0  0  0  0  0  0  0  0  0
    0.9038  -10.6139   -1.4023 N   0  0  0  0  0  0  0  0  0  0  0  0
    3.5895  -11.6573    0.1620 C   0  0  0  0  0  0  0  0  0  0  0  0
    3.9119  -12.7394    0.3702 N   0  0  0  0  0  0  0  0  0  0  0  0
    8.1468  -10.0867    2.9070 C   0  0  0  0  0  0  0  0  0  0  0  0
    9.3200  -10.6942    2.0993 C   0  0  0  0  0  0  0  0  0  0  0  0
    9.2321  -10.1096    0.7113 C   0  0  0  0  0  0  0  0  0  0  0  0
    9.5613   -8.8272    0.7906 C   0  0  0  0  0  0  0  0  0  0  0  0
    9.8796   -8.5219    2.2335 C   0  0  0  0  0  0  0  0  0  0  0  0
   10.4835   -9.8667    2.6684 C   0  0  0  0  0  0  0  0  0  0  0  0
    8.5364   -8.5778    3.0030 C   0  0  0  0  0  0  0  0  0  0  0  0
    1.5895   -6.1643   -0.7439 C   0  0  0  0  0  0  0  0  0  0  0  0
    2.3026   -5.1865   -1.4166 C   0  0  0  0  0  0  0  0  0  0  0  0
    3.4201   -5.4997   -2.0784 F   0  0  0  0  0  0  0  0  0  0  0  0
    1.8561   -3.8610   -1.4700 C   0  0  0  0  0  0  0  0  0  0  0  0
    2.6534   -2.9567   -2.0622 F   0  0  0  0  0  0  0  0  0  0  0  0
    0.6712   -3.4519   -0.8789 C   0  0  0  0  0  0  0  0  0  0  0  0
   -0.1872   -4.4842   -0.3897 C   0  0  0  0  0  0  0  0  0  0  0  0
   -1.4704   -4.2120   -0.1042 N   0  0  0  0  0  0  0  0  0  0  0  0
   -2.2505   -5.1724    0.3327 C   0  0  0  0  0  0  0  0  0  0  0  0
   -3.7014   -4.8325    0.5066 C   0  0  0  0  0  0  0  0  0  0  0  0
   -4.0476   -4.4489    1.9475 C   0  0  0  0  0  0  0  0  0  0  0  0
   -1.7207   -6.4644    0.6033 C   0  0  0  0  0  0  0  0  0  0  0  0
   -0.4810   -6.7528    0.2866 N   0  0  0  0  0  0  0  0  0  0  0  0
    0.2908   -5.8111   -0.2807 C   0  0  0  0  0  0  0  0  0  0  0  0
   -2.5220   -7.5974    1.1696 C   0  0  0  0  0  0  0  0  0  0  0  0
   -2.9866   -8.5188    0.0378 C   0  0  0  0  0  0  0  0  0  0  0  0
    0.3041   -2.0691   -0.7369 C   0  0  0  0  0  0  0  0  0  0  0  0
   -0.2756   -1.4757    0.3790 C   0  0  0  0  0  0  0  0  0  0  0  0
   -0.4937   -2.0767    1.6052 N   0  0  0  0  0  0  0  0  0  0  0  0
   -1.4959   -1.5531    2.4314 C   0  0  0  0  0  0  0  0  0  0  0  0
   -1.2693   -1.3772    3.7964 C   0  0  0  0  0  0  0  0  0  0  0  0
   -2.2109   -0.7433    4.5767 C   0  0  0  0  0  0  0  0  0  0  0  0
   -3.3942   -0.2755    4.0108 C   0  0  0  0  0  0  0  0  0  0  0  0
   -4.4940    0.6483    5.0450 S   0  0  0  0  0  0  0  0  0  0  0  0
   -5.2692    1.7753    3.8460 C   0  0  0  0  0  0  0  0  0  0  0  0
   -3.6633   -0.5281    2.6734 C   0  0  0  0  0  0  0  0  0  0  0  0
   -2.7199   -1.1632    1.8904 C   0  0  0  0  0  0  0  0  0  0  0  0
    0.2857   -3.1486    2.0571 C   0  0  0  0  0  0  0  0  0  0  0  0
   -0.3147   -4.1928    2.7584 C   0  0  0  0  0  0  0  0  0  0  0  0
    0.4054   -5.3193    3.0971 C   0  0  0  0  0  0  0  0  0  0  0  0
    1.7450   -5.4179    2.7473 C   0  0  0  0  0  0  0  0  0  0  0  0
    2.6910   -6.8816    3.0588 S   0  0  0  0  0  0  0  0  0  0  0  0
    1.4260   -8.1776    2.8714 C   0  0  0  0  0  0  0  0  0  0  0  0
    2.3783   -4.3361    2.1437 C   0  0  0  0  0  0  0  0  0  0  0  0
    1.6560   -3.2135    1.8011 C   0  0  0  0  0  0  0  0  0  0  0  0
   -0.5356   -0.1036    0.1386 C   0  0  0  0  0  0  0  0  0  0  0  0
   -1.1714    1.1878    1.1084 S   0  0  0  0  0  0  0  0  0  0  0  0
   -1.0044    2.2908   -0.2414 C   0  0  0  0  0  0  0  0  0  0  0  0
   -0.3222    1.7293   -1.3203 C   0  0  0  0  0  0  0  0  0  0  0  0
    0.1947    2.4222   -2.3931 N   0  0  0  0  0  0  0  0  0  0  0  0
    0.3143    1.7741   -3.6311 C   0  0  0  0  0  0  0  0  0  0  0  0
   -0.6969    0.9311   -4.0816 C   0  0  0  0  0  0  0  0  0  0  0  0
   -0.5789    0.2714   -5.2894 C   0  0  0  0  0  0  0  0  0  0  0  0
    0.5548    0.4506   -6.0695 C   0  0  0  0  0  0  0  0  0  0  0  0
    0.8172   -0.3298   -7.6296 S   0  0  0  0  0  0  0  0  0  0  0  0
   -0.5378   -1.5325   -7.7473 C   0  0  0  0  0  0  0  0  0  0  0  0
    1.5625    1.3077   -5.6283 C   0  0  0  0  0  0  0  0  0  0  0  0
    1.4474    1.9609   -4.4230 C   0  0  0  0  0  0  0  0  0  0  0  0
    0.6400    3.7471   -2.2531 C   0  0  0  0  0  0  0  0  0  0  0  0
    1.2400    4.1848   -1.0717 C   0  0  0  0  0  0  0  0  0  0  0  0
    1.5922    5.5071   -0.9197 C   0  0  0  0  0  0  0  0  0  0  0  0
    1.3648    6.4252   -1.9438 C   0  0  0  0  0  0  0  0  0  0  0  0
    1.8146    8.0990   -1.6237 S   0  0  0  0  0  0  0  0  0  0  0  0
    1.5569    8.9417   -3.2091 C   0  0  0  0  0  0  0  0  0  0  0  0
    0.8042    5.9876   -3.1363 C   0  0  0  0  0  0  0  0  0  0  0  0
    0.4522    4.6615   -3.2876 C   0  0  0  0  0  0  0  0  0  0  0  0
   -0.1104    0.3434   -1.1022 C   0  0  0  0  0  0  0  0  0  0  0  0
    0.6278   -0.9190   -2.0223 S   0  0  0  0  0  0  0  0  0  0  0  0
   -1.5181    3.6156   -0.0984 C   0  0  0  0  0  0  0  0  0  0  0  0
   -1.9095    4.4329   -1.1462 C   0  0  0  0  0  0  0  0  0  0  0  0
   -2.0791    3.9190   -2.3808 F   0  0  0  0  0  0  0  0  0  0  0  0
   -2.1844    5.7961   -0.9676 C   0  0  0  0  0  0  0  0  0  0  0  0
   -2.4263    6.4968   -2.0901 F   0  0  0  0  0  0  0  0  0  0  0  0
   -2.2045    6.3940    0.2726 C   0  0  0  0  0  0  0  0  0  0  0  0
   -2.0145    5.5344    1.3849 C   0  0  0  0  0  0  0  0  0  0  0  0
   -2.1622    6.0115    2.6354 N   0  0  0  0  0  0  0  0  0  0  0  0
   -2.0133    5.2079    3.6606 C   0  0  0  0  0  0  0  0  0  0  0  0
   -2.2792    5.8017    5.0109 C   0  0  0  0  0  0  0  0  0  0  0  0
   -3.7350    5.5560    5.4167 C   0  0  0  0  0  0  0  0  0  0  0  0
   -1.6766    3.8384    3.4741 C   0  0  0  0  0  0  0  0  0  0  0  0
   -1.5146    3.3707    2.2599 N   0  0  0  0  0  0  0  0  0  0  0  0
   -1.6784    4.1713    1.2026 C   0  0  0  0  0  0  0  0  0  0  0  0
   -1.4359    2.8699    4.5893 C   0  0  0  0  0  0  0  0  0  0  0  0
    0.0340    2.9129    5.0144 C   0  0  0  0  0  0  0  0  0  0  0  0
   -2.3959    7.8689    0.5368 C   0  0  0  0  0  0  0  0  0  0  0  0
   -1.5354    8.7049   -0.3493 C   0  0  0  0  0  0  0  0  0  0  0  0
   -1.9968    9.3314   -1.4392 C   0  0  0  0  0  0  0  0  0  0  0  0
   -3.3417    9.1748   -1.9242 C   0  0  0  0  0  0  0  0  0  0  0  0
   -3.7053    9.5889   -3.1906 C   0  0  0  0  0  0  0  0  0  0  0  0
   -5.1071    9.5638   -3.6088 C   0  0  0  0  0  0  0  0  0  0  0  0
   -5.9894    8.9365   -3.0548 O   0  0  0  0  0  0  0  0  0  0  0  0
   -5.4350   10.3813   -4.6881 N   0  0  0  0  0  0  0  0  0  0  0  0
   -6.8525   10.4957   -5.0132 C   0  0  0  0  0  0  0  0  0  0  0  0
   -7.2534    9.5091   -6.1016 C   0  0  0  0  0  0  0  0  0  0  0  0
   -4.5233   11.0270   -5.4688 C   0  0  0  0  0  0  0  0  0  0  0  0
   -4.9991   12.0557   -6.6696 S   0  0  0  0  0  0  0  0  0  0  0  0
   -3.2016   10.7710   -5.2461 N   0  0  0  0  0  0  0  0  0  0  0  0
   -2.7147   10.0443   -4.1666 C   0  0  0  0  0  0  0  0  0  0  0  0
   -1.5204    9.8123   -4.1048 O   0  0  0  0  0  0  0  0  0  0  0  0
   -2.2076   11.3087   -6.1685 C   0  0  0  0  0  0  0  0  0  0  0  0
   -1.7427   12.6931   -5.7371 C   0  0  0  0  0  0  0  0  0  0  0  0
   -4.3245    8.5208   -1.0084 C   0  0  0  0  0  0  0  0  0  0  0  0
   -3.8432    8.3660    0.4286 C   0  0  0  0  0  0  0  0  0  0  0  0
    1.2759   -8.2591   -0.5699 H   0  0  0  0  0  0  0  0  0  0  0  0
    6.7263   -6.2296    1.7536 H   0  0  0  0  0  0  0  0  0  0  0  0
    5.5398  -11.1444    1.4537 H   0  0  0  0  0  0  0  0  0  0  0  0
    7.9576  -10.6241    3.8341 H   0  0  0  0  0  0  0  0  0  0  0  0
    9.3975  -11.7764    2.1606 H   0  0  0  0  0  0  0  0  0  0  0  0
    8.8942  -10.6576   -0.1487 H   0  0  0  0  0  0  0  0  0  0  0  0
    9.5529   -8.0893    0.0100 H   0  0  0  0  0  0  0  0  0  0  0  0
   10.4676   -7.6262    2.4164 H   0  0  0  0  0  0  0  0  0  0  0  0
   10.5974   -9.9628    3.7474 H   0  0  0  0  0  0  0  0  0  0  0  0
   11.4319  -10.0806    2.1779 H   0  0  0  0  0  0  0  0  0  0  0  0
    8.6067   -8.1306    3.9927 H   0  0  0  0  0  0  0  0  0  0  0  0
   -4.3134   -5.6810    0.1969 H   0  0  0  0  0  0  0  0  0  0  0  0
   -3.9232   -3.9859   -0.1445 H   0  0  0  0  0  0  0  0  0  0  0  0
   -5.1166   -4.2692    2.0332 H   0  0  0  0  0  0  0  0  0  0  0  0
   -3.7761   -5.2381    2.6452 H   0  0  0  0  0  0  0  0  0  0  0  0
   -3.5258   -3.5387    2.2319 H   0  0  0  0  0  0  0  0  0  0  0  0
   -3.3820   -7.2306    1.7271 H   0  0  0  0  0  0  0  0  0  0  0  0
   -1.8816   -8.1695    1.8433 H   0  0  0  0  0  0  0  0  0  0  0  0
   -3.6130   -7.9782   -0.6687 H   0  0  0  0  0  0  0  0  0  0  0  0
   -3.5583   -9.3493    0.4438 H   0  0  0  0  0  0  0  0  0  0  0  0
   -2.1268   -8.9147   -0.4961 H   0  0  0  0  0  0  0  0  0  0  0  0
   -0.3365   -1.7064    4.2291 H   0  0  0  0  0  0  0  0  0  0  0  0
   -2.0268   -0.5744    5.6266 H   0  0  0  0  0  0  0  0  0  0  0  0
   -4.5049    2.1646    3.1796 H   0  0  0  0  0  0  0  0  0  0  0  0
   -5.7081    2.5800    4.4276 H   0  0  0  0  0  0  0  0  0  0  0  0
   -6.0493    1.2631    3.2906 H   0  0  0  0  0  0  0  0  0  0  0  0
   -4.5989   -0.2258    2.2310 H   0  0  0  0  0  0  0  0  0  0  0  0
   -2.9188   -1.3502    0.8461 H   0  0  0  0  0  0  0  0  0  0  0  0
   -1.3613   -4.1306    3.0137 H   0  0  0  0  0  0  0  0  0  0  0  0
   -0.0893   -6.1237    3.6180 H   0  0  0  0  0  0  0  0  0  0  0  0
    0.8358   -8.2633    3.7792 H   0  0  0  0  0  0  0  0  0  0  0  0
    0.8023   -7.9399    2.0129 H   0  0  0  0  0  0  0  0  0  0  0  0
    1.9658   -9.1047    2.7038 H   0  0  0  0  0  0  0  0  0  0  0  0
    3.4301   -4.3946    1.9156 H   0  0  0  0  0  0  0  0  0  0  0  0
    2.1508   -2.3855    1.3170 H   0  0  0  0  0  0  0  0  0  0  0  0
   -1.5889    0.8045   -3.4863 H   0  0  0  0  0  0  0  0  0  0  0  0
   -1.3828   -0.3704   -5.6114 H   0  0  0  0  0  0  0  0  0  0  0  0
   -0.5220   -2.1876   -6.8814 H   0  0  0  0  0  0  0  0  0  0  0  0
   -0.3427   -2.1053   -8.6485 H   0  0  0  0  0  0  0  0  0  0  0  0
   -1.4903   -1.0184   -7.8387 H   0  0  0  0  0  0  0  0  0  0  0  0
    2.4403    1.4431   -6.2410 H   0  0  0  0  0  0  0  0  0  0  0  0
    2.2371    2.6124   -4.0804 H   0  0  0  0  0  0  0  0  0  0  0  0
    1.4242    3.4863   -0.2693 H   0  0  0  0  0  0  0  0  0  0  0  0
    2.0494    5.8458   -0.0024 H   0  0  0  0  0  0  0  0  0  0  0  0
    0.5030    8.9524   -3.4698 H   0  0  0  0  0  0  0  0  0  0  0  0
    1.9077    9.9576   -3.0549 H   0  0  0  0  0  0  0  0  0  0  0  0
    2.1554    8.4597   -3.9764 H   0  0  0  0  0  0  0  0  0  0  0  0
    0.6093    6.6734   -3.9440 H   0  0  0  0  0  0  0  0  0  0  0  0
   -0.0116    4.3345   -4.2058 H   0  0  0  0  0  0  0  0  0  0  0  0
   -2.1036    6.8762    4.9496 H   0  0  0  0  0  0  0  0  0  0  0  0
   -1.6095    5.3749    5.7570 H   0  0  0  0  0  0  0  0  0  0  0  0
   -3.9334    6.0068    6.3856 H   0  0  0  0  0  0  0  0  0  0  0  0
   -4.4051    5.9983    4.6834 H   0  0  0  0  0  0  0  0  0  0  0  0
   -3.9478    4.4911    5.4810 H   0  0  0  0  0  0  0  0  0  0  0  0
   -2.0774    3.0861    5.4427 H   0  0  0  0  0  0  0  0  0  0  0  0
   -1.6600    1.8691    4.2183 H   0  0  0  0  0  0  0  0  0  0  0  0
    0.2085    2.2021    5.8177 H   0  0  0  0  0  0  0  0  0  0  0  0
    0.6690    2.6490    4.1725 H   0  0  0  0  0  0  0  0  0  0  0  0
    0.3144    3.9057    5.3606 H   0  0  0  0  0  0  0  0  0  0  0  0
   -2.0763    8.0051    1.5760 H   0  0  0  0  0  0  0  0  0  0  0  0
   -0.4924    8.7882   -0.0809 H   0  0  0  0  0  0  0  0  0  0  0  0
   -1.3181    9.9321   -2.0211 H   0  0  0  0  0  0  0  0  0  0  0  0
   -7.4041   10.2853   -4.0955 H   0  0  0  0  0  0  0  0  0  0  0  0
   -7.0441   11.5207   -5.3351 H   0  0  0  0  0  0  0  0  0  0  0  0
   -6.7066    9.7128   -7.0194 H   0  0  0  0  0  0  0  0  0  0  0  0
   -7.0449    8.4916   -5.7796 H   0  0  0  0  0  0  0  0  0  0  0  0
   -8.3166    9.6032   -6.3023 H   0  0  0  0  0  0  0  0  0  0  0  0
   -2.6539   11.3494   -7.1630 H   0  0  0  0  0  0  0  0  0  0  0  0
   -1.3675   10.6117   -6.1675 H   0  0  0  0  0  0  0  0  0  0  0  0
   -2.5789   13.3880   -5.7306 H   0  0  0  0  0  0  0  0  0  0  0  0
   -1.3058   12.6505   -4.7421 H   0  0  0  0  0  0  0  0  0  0  0  0
   -0.9932   13.0571   -6.4335 H   0  0  0  0  0  0  0  0  0  0  0  0
   -4.5629    7.5464   -1.4443 H   0  0  0  0  0  0  0  0  0  0  0  0
   -5.2678    9.0716   -1.0154 H   0  0  0  0  0  0  0  0  0  0  0  0
   -4.5088    7.6893    0.9658 H   0  0  0  0  0  0  0  0  0  0  0  0
   -3.8854    9.3404    0.9213 H   0  0  0  0  0  0  0  0  0  0  0  0
  1  2  2  0  0  0  0
  2  3  1  0  0  0  0
  3  4  2  0  0  0  0
  3  5  1  0  0  0  0
  5  6  2  0  0  0  0
  6  7  1  0  0  0  0
  7  8  2  0  0  0  0
  8  9  1  0  0  0  0
  9 10  2  0  0  0  0
 10 11  1  0  0  0  0
 11 12  2  0  0  0  0
 12 13  1  0  0  0  0
 13 14  3  0  0  0  0
 12 15  1  0  0  0  0
 15 16  3  0  0  0  0
  8 17  1  0  0  0  0
 17 18  1  0  0  0  0
 18 19  1  0  0  0  0
 19 20  2  0  0  0  0
 20 21  1  0  0  0  0
 21 22  1  0  0  0  0
 21 23  1  0  0  0  0
  1 24  1  0  0  0  0
 24 25  2  0  0  0  0
 25 26  1  0  0  0  0
 25 27  1  0  0  0  0
 27 28  1  0  0  0  0
 27 29  2  0  0  0  0
 29 30  1  0  0  0  0
 30 31  2  0  0  0  0
 31 32  1  0  0  0  0
 32 33  1  0  0  0  0
 33 34  1  0  0  0  0
 32 35  2  0  0  0  0
 35 36  1  0  0  0  0
 36 37  2  0  0  0  0
 35 38  1  0  0  0  0
 38 39  1  0  0  0  0
 29 40  1  0  0  0  0
 40 41  2  0  0  0  0
 41 42  1  0  0  0  0
 42 43  1  0  0  0  0
 43 44  2  0  0  0  0
 44 45  1  0  0  0  0
 45 46  2  0  0  0  0
 46 47  1  0  0  0  0
 47 48  1  0  0  0  0
 46 49  1  0  0  0  0
 49 50  2  0  0  0  0
 42 51  1  0  0  0  0
 51 52  2  0  0  0  0
 52 53  1  0  0  0  0
 53 54  2  0  0  0  0
 54 55  1  0  0  0  0
 55 56  1  0  0  0  0
 54 57  1  0  0  0  0
 57 58  2  0  0  0  0
 41 59  1  0  0  0  0
 59 60  1  0  0  0  0
 60 61  1  0  0  0  0
 61 62  2  0  0  0  0
 62 63  1  0  0  0  0
 63 64  1  0  0  0  0
 64 65  2  0  0  0  0
 65 66  1  0  0  0  0
 66 67  2  0  0  0  0
 67 68  1  0  0  0  0
 68 69  1  0  0  0  0
 67 70  1  0  0  0  0
 70 71  2  0  0  0  0
 63 72  1  0  0  0  0
 72 73  2  0  0  0  0
 73 74  1  0  0  0  0
 74 75  2  0  0  0  0
 75 76  1  0  0  0  0
 76 77  1  0  0  0  0
 75 78  1  0  0  0  0
 78 79  2  0  0  0  0
 62 80  1  0  0  0  0
 80 81  1  0  0  0  0
 61 82  1  0  0  0  0
 82 83  2  0  0  0  0
 83 84  1  0  0  0  0
 83 85  1  0  0  0  0
 85 86  1  0  0  0  0
 85 87  2  0  0  0  0
 87 88  1  0  0  0  0
 88 89  2  0  0  0  0
 89 90  1  0  0  0  0
 90 91  1  0  0  0  0
 91 92  1  0  0  0  0
 90 93  2  0  0  0  0
 93 94  1  0  0  0  0
 94 95  2  0  0  0  0
 93 96  1  0  0  0  0
 96 97  1  0  0  0  0
 87 98  1  0  0  0  0
 98 99  1  0  0  0  0
 99100  2  0  0  0  0
100101  1  0  0  0  0
101102  2  0  0  0  0
102103  1  0  0  0  0
103104  2  0  0  0  0
103105  1  0  0  0  0
105106  1  0  0  0  0
106107  1  0  0  0  0
105108  1  0  0  0  0
108109  2  0  0  0  0
108110  1  0  0  0  0
110111  1  0  0  0  0
111112  2  0  0  0  0
110113  1  0  0  0  0
113114  1  0  0  0  0
101115  1  0  0  0  0
115116  1  0  0  0  0
 11  2  1  0  0  0  0
 23 17  1  0  0  0  0
 37 24  1  0  0  0  0
 81 40  1  0  0  0  0
 95 82  1  0  0  0  0
116 98  1  0  0  0  0
 10  5  1  0  0  0  0
 22 18  1  0  0  0  0
 37 30  1  0  0  0  0
 50 43  1  0  0  0  0
 58 51  1  0  0  0  0
 80 59  2  0  0  0  0
 95 88  1  0  0  0  0
111102  1  0  0  0  0
 23  7  1  0  0  0  0
 71 64  1  0  0  0  0
 79 72  1  0  0  0  0
  1117  1  0  0  0  0
  6118  1  0  0  0  0
  9119  1  0  0  0  0
 17120  1  0  0  0  0
 18121  1  0  0  0  0
 19122  1  0  0  0  0
 20123  1  0  0  0  0
 21124  1  0  0  0  0
 22125  1  0  0  0  0
 22126  1  0  0  0  0
 23127  1  0  0  0  0
 33128  1  0  0  0  0
 33129  1  0  0  0  0
 34130  1  0  0  0  0
 34131  1  0  0  0  0
 34132  1  0  0  0  0
 38133  1  0  0  0  0
 38134  1  0  0  0  0
 39135  1  0  0  0  0
 39136  1  0  0  0  0
 39137  1  0  0  0  0
 44138  1  0  0  0  0
 45139  1  0  0  0  0
 48140  1  0  0  0  0
 48141  1  0  0  0  0
 48142  1  0  0  0  0
 49143  1  0  0  0  0
 50144  1  0  0  0  0
 52145  1  0  0  0  0
 53146  1  0  0  0  0
 56147  1  0  0  0  0
 56148  1  0  0  0  0
 56149  1  0  0  0  0
 57150  1  0  0  0  0
 58151  1  0  0  0  0
 65152  1  0  0  0  0
 66153  1  0  0  0  0
 69154  1  0  0  0  0
 69155  1  0  0  0  0
 69156  1  0  0  0  0
 70157  1  0  0  0  0
 71158  1  0  0  0  0
 73159  1  0  0  0  0
 74160  1  0  0  0  0
 77161  1  0  0  0  0
 77162  1  0  0  0  0
 77163  1  0  0  0  0
 78164  1  0  0  0  0
 79165  1  0  0  0  0
 91166  1  0  0  0  0
 91167  1  0  0  0  0
 92168  1  0  0  0  0
 92169  1  0  0  0  0
 92170  1  0  0  0  0
 96171  1  0  0  0  0
 96172  1  0  0  0  0
 97173  1  0  0  0  0
 97174  1  0  0  0  0
 97175  1  0  0  0  0
 98176  1  0  0  0  0
 99177  1  0  0  0  0
100178  1  0  0  0  0
106179  1  0  0  0  0
106180  1  0  0  0  0
107181  1  0  0  0  0
107182  1  0  0  0  0
107183  1  0  0  0  0
113184  1  0  0  0  0
113185  1  0  0  0  0
114186  1  0  0  0  0
114187  1  0  0  0  0
114188  1  0  0  0  0
115189  1  0  0  0  0
115190  1  0  0  0  0
116191  1  0  0  0  0
116192  1  0  0  0  0
M  END
