
  xtb     02072209573D
 energy: -364.641639316122 gnorm: 0.000582170651 xtb: 6.4.1 (unknown)
222242  0     0  0            999 V2000
    6.9610   -0.5003   -1.3220 C   0  0  0  0  0  0  0  0  0  0  0  0
    7.8388   -0.4847   -0.2630 C   0  0  0  0  0  0  0  0  0  0  0  0
    7.5114   -0.3462    1.1647 C   0  0  0  0  0  0  0  0  0  0  0  0
    6.4591   -0.5840    1.7314 O   0  0  0  0  0  0  0  0  0  0  0  0
    8.7340    0.1778    1.8086 C   0  0  0  0  0  0  0  0  0  0  0  0
    8.8836    0.5804    3.1340 C   0  0  0  0  0  0  0  0  0  0  0  0
   10.1448    1.0299    3.4446 C   0  0  0  0  0  0  0  0  0  0  0  0
   11.1862    1.0763    2.5094 C   0  0  0  0  0  0  0  0  0  0  0  0
   11.0551    0.6784    1.1995 C   0  0  0  0  0  0  0  0  0  0  0  0
    9.7781    0.2223    0.8637 C   0  0  0  0  0  0  0  0  0  0  0  0
    9.2642   -0.2901   -0.4023 C   0  0  0  0  0  0  0  0  0  0  0  0
   10.0209   -0.6511   -1.4890 C   0  0  0  0  0  0  0  0  0  0  0  0
    9.5338   -1.4255   -2.5560 C   0  0  0  0  0  0  0  0  0  0  0  0
    9.2358   -2.1388   -3.4068 N   0  0  0  0  0  0  0  0  0  0  0  0
   11.4039   -0.4148   -1.6146 C   0  0  0  0  0  0  0  0  0  0  0  0
   12.5246   -0.2325   -1.7862 N   0  0  0  0  0  0  0  0  0  0  0  0
   12.1645    1.6454    3.5069 C   0  0  0  0  0  0  0  0  0  0  0  0
   12.4596    3.1564    3.3999 C   0  0  0  0  0  0  0  0  0  0  0  0
   13.0396    3.5079    4.7509 C   0  0  0  0  0  0  0  0  0  0  0  0
   12.0535    3.4633    5.6375 C   0  0  0  0  0  0  0  0  0  0  0  0
   10.7903    3.0807    4.9006 C   0  0  0  0  0  0  0  0  0  0  0  0
   11.0568    3.7590    3.5506 C   0  0  0  0  0  0  0  0  0  0  0  0
   11.0029    1.5925    4.5506 C   0  0  0  0  0  0  0  0  0  0  0  0
    5.5670   -0.6468   -1.3103 C   0  0  0  0  0  0  0  0  0  0  0  0
    4.6719   -0.1735   -2.2970 C   0  0  0  0  0  0  0  0  0  0  0  0
    5.0127    0.4773   -3.4556 N   0  0  0  0  0  0  0  0  0  0  0  0
    4.1490    1.4616   -3.9658 C   0  0  0  0  0  0  0  0  0  0  0  0
    3.8368    1.4981   -5.3213 C   0  0  0  0  0  0  0  0  0  0  0  0
    2.9832    2.4614   -5.8224 C   0  0  0  0  0  0  0  0  0  0  0  0
    2.4335    3.4090   -4.9698 C   0  0  0  0  0  0  0  0  0  0  0  0
    1.3117    4.6726   -5.4775 S   0  0  0  0  0  0  0  0  0  0  0  0
    1.2129    4.4833   -7.2782 C   0  0  0  0  0  0  0  0  0  0  0  0
    2.7607    3.3858   -3.6164 C   0  0  0  0  0  0  0  0  0  0  0  0
    3.6054    2.4237   -3.1151 C   0  0  0  0  0  0  0  0  0  0  0  0
    6.0857    0.0571   -4.2613 C   0  0  0  0  0  0  0  0  0  0  0  0
    6.3262   -1.2965   -4.4795 C   0  0  0  0  0  0  0  0  0  0  0  0
    7.3560   -1.6995   -5.3042 C   0  0  0  0  0  0  0  0  0  0  0  0
    8.1691   -0.7517   -5.9169 C   0  0  0  0  0  0  0  0  0  0  0  0
    9.5115   -1.1610   -6.9760 S   0  0  0  0  0  0  0  0  0  0  0  0
    9.8505   -2.8952   -6.5610 C   0  0  0  0  0  0  0  0  0  0  0  0
    7.9198    0.6046   -5.7099 C   0  0  0  0  0  0  0  0  0  0  0  0
    6.8873    1.0077   -4.8938 C   0  0  0  0  0  0  0  0  0  0  0  0
    3.3359   -0.4072   -1.9117 C   0  0  0  0  0  0  0  0  0  0  0  0
    1.7949   -0.0266   -2.6117 S   0  0  0  0  0  0  0  0  0  0  0  0
    0.9842   -0.8879   -1.3148 C   0  0  0  0  0  0  0  0  0  0  0  0
    1.8625   -1.4934   -0.4366 C   0  0  0  0  0  0  0  0  0  0  0  0
    1.4995   -2.3947    0.5560 N   0  0  0  0  0  0  0  0  0  0  0  0
    0.5694   -3.4067    0.2887 C   0  0  0  0  0  0  0  0  0  0  0  0
    0.3230   -3.8541   -1.0102 C   0  0  0  0  0  0  0  0  0  0  0  0
   -0.5615   -4.8850   -1.2424 C   0  0  0  0  0  0  0  0  0  0  0  0
   -1.2240   -5.5012   -0.1858 C   0  0  0  0  0  0  0  0  0  0  0  0
   -2.3089   -6.8485   -0.5656 S   0  0  0  0  0  0  0  0  0  0  0  0
   -2.5123   -7.6984    1.0229 C   0  0  0  0  0  0  0  0  0  0  0  0
   -1.0035   -5.0478    1.1070 C   0  0  0  0  0  0  0  0  0  0  0  0
   -0.1156   -4.0174    1.3387 C   0  0  0  0  0  0  0  0  0  0  0  0
    2.2819   -2.4318    1.7226 C   0  0  0  0  0  0  0  0  0  0  0  0
    2.6680   -3.6326    2.3165 C   0  0  0  0  0  0  0  0  0  0  0  0
    3.4631   -3.6246    3.4418 C   0  0  0  0  0  0  0  0  0  0  0  0
    3.9046   -2.4236    3.9853 C   0  0  0  0  0  0  0  0  0  0  0  0
    4.9589   -2.4792    5.4039 S   0  0  0  0  0  0  0  0  0  0  0  0
    6.0476   -1.0576    5.0785 C   0  0  0  0  0  0  0  0  0  0  0  0
    3.5145   -1.2248    3.4073 C   0  0  0  0  0  0  0  0  0  0  0  0
    2.7136   -1.2356    2.2861 C   0  0  0  0  0  0  0  0  0  0  0  0
    3.2061   -1.1613   -0.7533 C   0  0  0  0  0  0  0  0  0  0  0  0
    4.7179   -1.4487    0.0106 S   0  0  0  0  0  0  0  0  0  0  0  0
   -0.4471   -0.8212   -1.1628 C   0  0  0  0  0  0  0  0  0  0  0  0
   -1.0661   -0.1979   -0.1013 C   0  0  0  0  0  0  0  0  0  0  0  0
   -0.3468    0.5620    0.8362 N   0  0  0  0  0  0  0  0  0  0  0  0
   -0.2984    0.1741    2.1679 C   0  0  0  0  0  0  0  0  0  0  0  0
   -0.8122   -1.0696    2.5414 C   0  0  0  0  0  0  0  0  0  0  0  0
   -0.6835   -1.5244    3.8347 C   0  0  0  0  0  0  0  0  0  0  0  0
   -0.0347   -0.7552    4.7917 C   0  0  0  0  0  0  0  0  0  0  0  0
    0.1731   -1.4436    6.4102 S   0  0  0  0  0  0  0  0  0  0  0  0
    1.7748   -0.7424    6.9067 C   0  0  0  0  0  0  0  0  0  0  0  0
    0.3968    0.5187    4.4521 C   0  0  0  0  0  0  0  0  0  0  0  0
    0.2555    0.9839    3.1605 C   0  0  0  0  0  0  0  0  0  0  0  0
    0.1963    1.7630    0.3392 C   0  0  0  0  0  0  0  0  0  0  0  0
    1.4902    2.1851    0.6440 C   0  0  0  0  0  0  0  0  0  0  0  0
    1.9552    3.3993    0.1890 C   0  0  0  0  0  0  0  0  0  0  0  0
    1.1513    4.2187   -0.5998 C   0  0  0  0  0  0  0  0  0  0  0  0
    1.8229    5.7931   -1.0432 S   0  0  0  0  0  0  0  0  0  0  0  0
    0.5516    6.5335   -2.1049 C   0  0  0  0  0  0  0  0  0  0  0  0
   -0.1077    3.7714   -0.9730 C   0  0  0  0  0  0  0  0  0  0  0  0
   -0.5753    2.5596   -0.5043 C   0  0  0  0  0  0  0  0  0  0  0  0
   -2.4711   -0.3042   -0.1903 C   0  0  0  0  0  0  0  0  0  0  0  0
   -3.7804    0.2966    0.7578 S   0  0  0  0  0  0  0  0  0  0  0  0
   -4.9436   -0.3267   -0.4181 C   0  0  0  0  0  0  0  0  0  0  0  0
   -4.3173   -0.9187   -1.5153 C   0  0  0  0  0  0  0  0  0  0  0  0
   -4.9305   -1.3595   -2.6678 N   0  0  0  0  0  0  0  0  0  0  0  0
   -5.9485   -0.6243   -3.2897 C   0  0  0  0  0  0  0  0  0  0  0  0
   -6.0176    0.7610   -3.1650 C   0  0  0  0  0  0  0  0  0  0  0  0
   -7.0418    1.4741   -3.7537 C   0  0  0  0  0  0  0  0  0  0  0  0
   -8.0165    0.8126   -4.4895 C   0  0  0  0  0  0  0  0  0  0  0  0
   -9.3695    1.6143   -5.2802 S   0  0  0  0  0  0  0  0  0  0  0  0
   -9.2996    3.3105   -4.6396 C   0  0  0  0  0  0  0  0  0  0  0  0
   -7.9358   -0.5713   -4.6409 C   0  0  0  0  0  0  0  0  0  0  0  0
   -6.9198   -1.2831   -4.0469 C   0  0  0  0  0  0  0  0  0  0  0  0
   -4.3834   -2.4796   -3.3181 C   0  0  0  0  0  0  0  0  0  0  0  0
   -4.0524   -3.6126   -2.5821 C   0  0  0  0  0  0  0  0  0  0  0  0
   -3.5307   -4.7285   -3.2051 C   0  0  0  0  0  0  0  0  0  0  0  0
   -3.3216   -4.7227   -4.5772 C   0  0  0  0  0  0  0  0  0  0  0  0
   -2.6485   -6.0854   -5.4712 S   0  0  0  0  0  0  0  0  0  0  0  0
   -2.6576   -7.4455   -4.2691 C   0  0  0  0  0  0  0  0  0  0  0  0
   -3.6420   -3.5844   -5.3165 C   0  0  0  0  0  0  0  0  0  0  0  0
   -4.1693   -2.4750   -4.6963 C   0  0  0  0  0  0  0  0  0  0  0  0
   -2.9094   -0.9412   -1.3399 C   0  0  0  0  0  0  0  0  0  0  0  0
   -1.5865   -1.4788   -2.3193 S   0  0  0  0  0  0  0  0  0  0  0  0
   -6.3166   -0.1882   -0.1052 C   0  0  0  0  0  0  0  0  0  0  0  0
   -6.8331    0.5804    0.9271 C   0  0  0  0  0  0  0  0  0  0  0  0
   -8.2203    0.5468    1.0369 C   0  0  0  0  0  0  0  0  0  0  0  0
   -8.9685    1.2511    2.0870 C   0  0  0  0  0  0  0  0  0  0  0  0
   -9.8077    0.5384    2.9539 C   0  0  0  0  0  0  0  0  0  0  0  0
  -10.6158    1.2340    3.8405 C   0  0  0  0  0  0  0  0  0  0  0  0
  -10.5935    2.6185    3.9167 C   0  0  0  0  0  0  0  0  0  0  0  0
  -11.4916    3.3551    4.8610 C   0  0  0  0  0  0  0  0  0  0  0  0
   -9.6859    3.3010    3.1226 C   0  0  0  0  0  0  0  0  0  0  0  0
   -8.8679    2.6439    2.2131 C   0  0  0  0  0  0  0  0  0  0  0  0
   -7.9020    3.4670    1.4123 C   0  0  0  0  0  0  0  0  0  0  0  0
   -9.8271   -0.9616    3.0072 C   0  0  0  0  0  0  0  0  0  0  0  0
   -8.8090   -0.2867    0.0749 C   0  0  0  0  0  0  0  0  0  0  0  0
   -7.5831   -1.0422   -0.9199 S   0  0  0  0  0  0  0  0  0  0  0  0
  -10.1420   -0.6731   -0.1470 C   0  0  0  0  0  0  0  0  0  0  0  0
  -11.3150   -0.0818    0.2443 C   0  0  0  0  0  0  0  0  0  0  0  0
  -12.5238   -0.9080    0.4460 C   0  0  0  0  0  0  0  0  0  0  0  0
  -12.7125   -2.0733    0.1287 O   0  0  0  0  0  0  0  0  0  0  0  0
  -13.4461   -0.0633    1.2043 C   0  0  0  0  0  0  0  0  0  0  0  0
  -14.6754   -0.4312    1.7380 C   0  0  0  0  0  0  0  0  0  0  0  0
  -15.1742   -1.6631    1.5726 O   0  0  0  0  0  0  0  0  0  0  0  0
  -15.3742    0.5451    2.4608 C   0  0  0  0  0  0  0  0  0  0  0  0
  -14.8437    1.8113    2.6154 C   0  0  0  0  0  0  0  0  0  0  0  0
  -13.6157    2.1806    2.0668 C   0  0  0  0  0  0  0  0  0  0  0  0
  -12.9131    1.2277    1.3577 C   0  0  0  0  0  0  0  0  0  0  0  0
  -11.6357    1.2635    0.6485 C   0  0  0  0  0  0  0  0  0  0  0  0
  -11.0017    2.3971    0.2063 C   0  0  0  0  0  0  0  0  0  0  0  0
   -9.9506    2.3507   -0.7236 C   0  0  0  0  0  0  0  0  0  0  0  0
   -9.1200    2.3550   -1.5180 N   0  0  0  0  0  0  0  0  0  0  0  0
  -11.3998    3.7052    0.5380 C   0  0  0  0  0  0  0  0  0  0  0  0
  -11.6784    4.7935    0.7764 N   0  0  0  0  0  0  0  0  0  0  0  0
    7.3902   -0.2844   -2.2957 H   0  0  0  0  0  0  0  0  0  0  0  0
    8.0618    0.5314    3.8307 H   0  0  0  0  0  0  0  0  0  0  0  0
   11.8617    0.7191    0.4863 H   0  0  0  0  0  0  0  0  0  0  0  0
   13.0564    1.0493    3.6893 H   0  0  0  0  0  0  0  0  0  0  0  0
   13.0391    3.4463    2.5278 H   0  0  0  0  0  0  0  0  0  0  0  0
   14.0832    3.6920    4.9262 H   0  0  0  0  0  0  0  0  0  0  0  0
   12.1087    3.6026    6.7013 H   0  0  0  0  0  0  0  0  0  0  0  0
    9.8487    3.3028    5.3959 H   0  0  0  0  0  0  0  0  0  0  0  0
   10.3626    3.4697    2.7637 H   0  0  0  0  0  0  0  0  0  0  0  0
   11.0820    4.8443    3.6332 H   0  0  0  0  0  0  0  0  0  0  0  0
   11.1212    0.9610    5.4292 H   0  0  0  0  0  0  0  0  0  0  0  0
    4.2573    0.7585   -5.9862 H   0  0  0  0  0  0  0  0  0  0  0  0
    2.7520    2.4525   -6.8751 H   0  0  0  0  0  0  0  0  0  0  0  0
    2.2011    4.5948   -7.7146 H   0  0  0  0  0  0  0  0  0  0  0  0
    0.7743    3.5214   -7.5276 H   0  0  0  0  0  0  0  0  0  0  0  0
    0.5651    5.2836   -7.6226 H   0  0  0  0  0  0  0  0  0  0  0  0
    2.3563    4.1395   -2.9636 H   0  0  0  0  0  0  0  0  0  0  0  0
    3.8531    2.4176   -2.0642 H   0  0  0  0  0  0  0  0  0  0  0  0
    5.6971   -2.0328   -4.0016 H   0  0  0  0  0  0  0  0  0  0  0  0
    7.5113   -2.7518   -5.4692 H   0  0  0  0  0  0  0  0  0  0  0  0
    9.8652   -2.9966   -5.4802 H   0  0  0  0  0  0  0  0  0  0  0  0
   10.8304   -3.1127   -6.9743 H   0  0  0  0  0  0  0  0  0  0  0  0
    9.1070   -3.5437   -7.0157 H   0  0  0  0  0  0  0  0  0  0  0  0
    8.5526    1.3341   -6.1913 H   0  0  0  0  0  0  0  0  0  0  0  0
    6.6968    2.0579   -4.7291 H   0  0  0  0  0  0  0  0  0  0  0  0
    0.8467   -3.4158   -1.8458 H   0  0  0  0  0  0  0  0  0  0  0  0
   -0.7288   -5.2256   -2.2521 H   0  0  0  0  0  0  0  0  0  0  0  0
   -2.9983   -8.6411    0.7910 H   0  0  0  0  0  0  0  0  0  0  0  0
   -3.1441   -7.1142    1.6860 H   0  0  0  0  0  0  0  0  0  0  0  0
   -1.5370   -7.8805    1.4645 H   0  0  0  0  0  0  0  0  0  0  0  0
   -1.5154   -5.4888    1.9474 H   0  0  0  0  0  0  0  0  0  0  0  0
    0.0587   -3.6879    2.3503 H   0  0  0  0  0  0  0  0  0  0  0  0
    2.3656   -4.5727    1.8806 H   0  0  0  0  0  0  0  0  0  0  0  0
    3.7707   -4.5531    3.8974 H   0  0  0  0  0  0  0  0  0  0  0  0
    6.1986   -0.9835    4.0050 H   0  0  0  0  0  0  0  0  0  0  0  0
    5.6107   -0.1464    5.4798 H   0  0  0  0  0  0  0  0  0  0  0  0
    6.9843   -1.2695    5.5854 H   0  0  0  0  0  0  0  0  0  0  0  0
    3.8337   -0.2797    3.8170 H   0  0  0  0  0  0  0  0  0  0  0  0
    2.4106   -0.3054    1.8366 H   0  0  0  0  0  0  0  0  0  0  0  0
   -1.2985   -1.6907    1.8050 H   0  0  0  0  0  0  0  0  0  0  0  0
   -1.0774   -2.4891    4.1166 H   0  0  0  0  0  0  0  0  0  0  0  0
    2.1288   -1.3523    7.7316 H   0  0  0  0  0  0  0  0  0  0  0  0
    1.6564    0.2869    7.2334 H   0  0  0  0  0  0  0  0  0  0  0  0
    2.4616   -0.8157    6.0701 H   0  0  0  0  0  0  0  0  0  0  0  0
    0.8432    1.1619    5.1944 H   0  0  0  0  0  0  0  0  0  0  0  0
    0.5762    1.9870    2.9263 H   0  0  0  0  0  0  0  0  0  0  0  0
    2.1396    1.5690    1.2454 H   0  0  0  0  0  0  0  0  0  0  0  0
    2.9493    3.7318    0.4476 H   0  0  0  0  0  0  0  0  0  0  0  0
    0.3993    5.9215   -2.9901 H   0  0  0  0  0  0  0  0  0  0  0  0
    0.9473    7.5020   -2.3944 H   0  0  0  0  0  0  0  0  0  0  0  0
   -0.3691    6.6645   -1.5439 H   0  0  0  0  0  0  0  0  0  0  0  0
   -0.7429    4.3621   -1.6127 H   0  0  0  0  0  0  0  0  0  0  0  0
   -1.5686    2.2384   -0.7799 H   0  0  0  0  0  0  0  0  0  0  0  0
   -5.2623    1.2879   -2.6001 H   0  0  0  0  0  0  0  0  0  0  0  0
   -7.0696    2.5430   -3.6276 H   0  0  0  0  0  0  0  0  0  0  0  0
   -8.4375    3.8296   -5.0489 H   0  0  0  0  0  0  0  0  0  0  0  0
   -9.2719    3.2786   -3.5539 H   0  0  0  0  0  0  0  0  0  0  0  0
  -10.2127    3.7911   -4.9771 H   0  0  0  0  0  0  0  0  0  0  0  0
   -8.6921   -1.0808   -5.2178 H   0  0  0  0  0  0  0  0  0  0  0  0
   -6.8786   -2.3569   -4.1475 H   0  0  0  0  0  0  0  0  0  0  0  0
   -4.2158   -3.6241   -1.5143 H   0  0  0  0  0  0  0  0  0  0  0  0
   -3.3001   -5.5948   -2.6087 H   0  0  0  0  0  0  0  0  0  0  0  0
   -1.9554   -7.2517   -3.4639 H   0  0  0  0  0  0  0  0  0  0  0  0
   -2.3484   -8.3255   -4.8243 H   0  0  0  0  0  0  0  0  0  0  0  0
   -3.6620   -7.5846   -3.8814 H   0  0  0  0  0  0  0  0  0  0  0  0
   -3.4699   -3.5842   -6.3818 H   0  0  0  0  0  0  0  0  0  0  0  0
   -4.4181   -1.5963   -5.2721 H   0  0  0  0  0  0  0  0  0  0  0  0
   -6.2010    1.1433    1.5912 H   0  0  0  0  0  0  0  0  0  0  0  0
  -11.2767    0.6767    4.4899 H   0  0  0  0  0  0  0  0  0  0  0  0
  -12.3920    2.7802    5.0651 H   0  0  0  0  0  0  0  0  0  0  0  0
  -10.9774    3.5292    5.8067 H   0  0  0  0  0  0  0  0  0  0  0  0
  -11.7705    4.3220    4.4482 H   0  0  0  0  0  0  0  0  0  0  0  0
   -9.6197    4.3767    3.1995 H   0  0  0  0  0  0  0  0  0  0  0  0
   -8.3368    4.4391    1.1863 H   0  0  0  0  0  0  0  0  0  0  0  0
   -6.9968    3.6358    1.9972 H   0  0  0  0  0  0  0  0  0  0  0  0
   -7.6201    2.9860    0.4802 H   0  0  0  0  0  0  0  0  0  0  0  0
  -10.7203   -1.3625    2.5283 H   0  0  0  0  0  0  0  0  0  0  0  0
   -8.9566   -1.3932    2.5208 H   0  0  0  0  0  0  0  0  0  0  0  0
   -9.8395   -1.2854    4.0466 H   0  0  0  0  0  0  0  0  0  0  0  0
  -10.2657   -1.6403   -0.6269 H   0  0  0  0  0  0  0  0  0  0  0  0
  -14.5443   -2.1869    1.0404 H   0  0  0  0  0  0  0  0  0  0  0  0
  -16.3298    0.2870    2.8887 H   0  0  0  0  0  0  0  0  0  0  0  0
  -15.4013    2.5436    3.1802 H   0  0  0  0  0  0  0  0  0  0  0  0
  -13.2307    3.1763    2.2105 H   0  0  0  0  0  0  0  0  0  0  0  0
  1  2  2  0  0  0  0
  2  3  1  0  0  0  0
  3  4  2  0  0  0  0
  3  5  1  0  0  0  0
  5  6  2  0  0  0  0
  6  7  1  0  0  0  0
  7  8  2  0  0  0  0
  8  9  1  0  0  0  0
  9 10  2  0  0  0  0
 10 11  1  0  0  0  0
 11 12  2  0  0  0  0
 12 13  1  0  0  0  0
 13 14  3  0  0  0  0
 12 15  1  0  0  0  0
 15 16  3  0  0  0  0
  8 17  1  0  0  0  0
 17 18  1  0  0  0  0
 18 19  1  0  0  0  0
 19 20  2  0  0  0  0
 20 21  1  0  0  0  0
 21 22  1  0  0  0  0
 21 23  1  0  0  0  0
  1 24  1  0  0  0  0
 24 25  2  0  0  0  0
 25 26  1  0  0  0  0
 26 27  1  0  0  0  0
 27 28  2  0  0  0  0
 28 29  1  0  0  0  0
 29 30  2  0  0  0  0
 30 31  1  0  0  0  0
 31 32  1  0  0  0  0
 30 33  1  0  0  0  0
 33 34  2  0  0  0  0
 26 35  1  0  0  0  0
 35 36  2  0  0  0  0
 36 37  1  0  0  0  0
 37 38  2  0  0  0  0
 38 39  1  0  0  0  0
 39 40  1  0  0  0  0
 38 41  1  0  0  0  0
 41 42  2  0  0  0  0
 25 43  1  0  0  0  0
 43 44  1  0  0  0  0
 44 45  1  0  0  0  0
 45 46  2  0  0  0  0
 46 47  1  0  0  0  0
 47 48  1  0  0  0  0
 48 49  2  0  0  0  0
 49 50  1  0  0  0  0
 50 51  2  0  0  0  0
 51 52  1  0  0  0  0
 52 53  1  0  0  0  0
 51 54  1  0  0  0  0
 54 55  2  0  0  0  0
 47 56  1  0  0  0  0
 56 57  2  0  0  0  0
 57 58  1  0  0  0  0
 58 59  2  0  0  0  0
 59 60  1  0  0  0  0
 60 61  1  0  0  0  0
 59 62  1  0  0  0  0
 62 63  2  0  0  0  0
 46 64  1  0  0  0  0
 64 65  1  0  0  0  0
 45 66  1  0  0  0  0
 66 67  2  0  0  0  0
 67 68  1  0  0  0  0
 68 69  1  0  0  0  0
 69 70  2  0  0  0  0
 70 71  1  0  0  0  0
 71 72  2  0  0  0  0
 72 73  1  0  0  0  0
 73 74  1  0  0  0  0
 72 75  1  0  0  0  0
 75 76  2  0  0  0  0
 68 77  1  0  0  0  0
 77 78  2  0  0  0  0
 78 79  1  0  0  0  0
 79 80  2  0  0  0  0
 80 81  1  0  0  0  0
 81 82  1  0  0  0  0
 80 83  1  0  0  0  0
 83 84  2  0  0  0  0
 67 85  1  0  0  0  0
 85 86  1  0  0  0  0
 86 87  1  0  0  0  0
 87 88  2  0  0  0  0
 88 89  1  0  0  0  0
 89 90  1  0  0  0  0
 90 91  2  0  0  0  0
 91 92  1  0  0  0  0
 92 93  2  0  0  0  0
 93 94  1  0  0  0  0
 94 95  1  0  0  0  0
 93 96  1  0  0  0  0
 96 97  2  0  0  0  0
 89 98  1  0  0  0  0
 98 99  2  0  0  0  0
 99100  1  0  0  0  0
100101  2  0  0  0  0
101102  1  0  0  0  0
102103  1  0  0  0  0
101104  1  0  0  0  0
104105  2  0  0  0  0
 88106  1  0  0  0  0
106107  1  0  0  0  0
 87108  1  0  0  0  0
108109  2  0  0  0  0
109110  1  0  0  0  0
110111  1  0  0  0  0
111112  2  0  0  0  0
112113  1  0  0  0  0
113114  2  0  0  0  0
114115  1  0  0  0  0
114116  1  0  0  0  0
116117  2  0  0  0  0
117118  1  0  0  0  0
112119  1  0  0  0  0
110120  2  0  0  0  0
120121  1  0  0  0  0
120122  1  0  0  0  0
122123  2  0  0  0  0
123124  1  0  0  0  0
124125  2  0  0  0  0
124126  1  0  0  0  0
126127  2  0  0  0  0
127128  1  0  0  0  0
127129  1  0  0  0  0
129130  2  0  0  0  0
130131  1  0  0  0  0
131132  2  0  0  0  0
132133  1  0  0  0  0
133134  2  0  0  0  0
134135  1  0  0  0  0
135136  3  0  0  0  0
134137  1  0  0  0  0
137138  3  0  0  0  0
 11  2  1  0  0  0  0
 23 17  1  0  0  0  0
 65 24  1  0  0  0  0
107 66  1  0  0  0  0
121108  1  0  0  0  0
133123  1  0  0  0  0
 10  5  1  0  0  0  0
 22 18  1  0  0  0  0
 34 27  1  0  0  0  0
 42 35  1  0  0  0  0
 64 43  2  0  0  0  0
 76 69  1  0  0  0  0
 84 77  1  0  0  0  0
106 85  2  0  0  0  0
117111  1  0  0  0  0
132126  1  0  0  0  0
 23  7  1  0  0  0  0
 55 48  1  0  0  0  0
 63 56  1  0  0  0  0
 97 90  1  0  0  0  0
105 98  1  0  0  0  0
  1139  1  0  0  0  0
  6140  1  0  0  0  0
  9141  1  0  0  0  0
 17142  1  0  0  0  0
 18143  1  0  0  0  0
 19144  1  0  0  0  0
 20145  1  0  0  0  0
 21146  1  0  0  0  0
 22147  1  0  0  0  0
 22148  1  0  0  0  0
 23149  1  0  0  0  0
 28150  1  0  0  0  0
 29151  1  0  0  0  0
 32152  1  0  0  0  0
 32153  1  0  0  0  0
 32154  1  0  0  0  0
 33155  1  0  0  0  0
 34156  1  0  0  0  0
 36157  1  0  0  0  0
 37158  1  0  0  0  0
 40159  1  0  0  0  0
 40160  1  0  0  0  0
 40161  1  0  0  0  0
 41162  1  0  0  0  0
 42163  1  0  0  0  0
 49164  1  0  0  0  0
 50165  1  0  0  0  0
 53166  1  0  0  0  0
 53167  1  0  0  0  0
 53168  1  0  0  0  0
 54169  1  0  0  0  0
 55170  1  0  0  0  0
 57171  1  0  0  0  0
 58172  1  0  0  0  0
 61173  1  0  0  0  0
 61174  1  0  0  0  0
 61175  1  0  0  0  0
 62176  1  0  0  0  0
 63177  1  0  0  0  0
 70178  1  0  0  0  0
 71179  1  0  0  0  0
 74180  1  0  0  0  0
 74181  1  0  0  0  0
 74182  1  0  0  0  0
 75183  1  0  0  0  0
 76184  1  0  0  0  0
 78185  1  0  0  0  0
 79186  1  0  0  0  0
 82187  1  0  0  0  0
 82188  1  0  0  0  0
 82189  1  0  0  0  0
 83190  1  0  0  0  0
 84191  1  0  0  0  0
 91192  1  0  0  0  0
 92193  1  0  0  0  0
 95194  1  0  0  0  0
 95195  1  0  0  0  0
 95196  1  0  0  0  0
 96197  1  0  0  0  0
 97198  1  0  0  0  0
 99199  1  0  0  0  0
100200  1  0  0  0  0
103201  1  0  0  0  0
103202  1  0  0  0  0
103203  1  0  0  0  0
104204  1  0  0  0  0
105205  1  0  0  0  0
109206  1  0  0  0  0
113207  1  0  0  0  0
115208  1  0  0  0  0
115209  1  0  0  0  0
115210  1  0  0  0  0
116211  1  0  0  0  0
118212  1  0  0  0  0
118213  1  0  0  0  0
118214  1  0  0  0  0
119215  1  0  0  0  0
119216  1  0  0  0  0
119217  1  0  0  0  0
122218  1  0  0  0  0
128219  1  0  0  0  0
129220  1  0  0  0  0
130221  1  0  0  0  0
131222  1  0  0  0  0
M  END
