
  xtb     02042221343D
 energy: -277.060803205571 gnorm: 0.000958967312 xtb: 6.4.1 (unknown)
150168  0     0  0            999 V2000
   -2.4401   -4.2771    4.9083 C   0  0  0  0  0  0  0  0  0  0  0  0
   -2.2373   -5.6266    4.8288 C   0  0  0  0  0  0  0  0  0  0  0  0
   -1.2943   -6.2706    3.8851 C   0  0  0  0  0  0  0  0  0  0  0  0
   -0.7140   -5.7723    2.9414 O   0  0  0  0  0  0  0  0  0  0  0  0
   -1.0963   -7.6401    4.4013 C   0  0  0  0  0  0  0  0  0  0  0  0
   -0.2180   -8.5988    3.9028 C   0  0  0  0  0  0  0  0  0  0  0  0
   -0.2424   -9.7903    4.5866 C   0  0  0  0  0  0  0  0  0  0  0  0
   -1.0655  -10.0096    5.6987 C   0  0  0  0  0  0  0  0  0  0  0  0
   -1.9167   -9.0630    6.2182 C   0  0  0  0  0  0  0  0  0  0  0  0
   -1.9148   -7.8470    5.5297 C   0  0  0  0  0  0  0  0  0  0  0  0
   -2.6583   -6.6181    5.7914 C   0  0  0  0  0  0  0  0  0  0  0  0
   -3.6487   -6.4520    6.7255 C   0  0  0  0  0  0  0  0  0  0  0  0
   -4.0682   -7.4482    7.6289 C   0  0  0  0  0  0  0  0  0  0  0  0
   -4.4552   -8.2164    8.3904 N   0  0  0  0  0  0  0  0  0  0  0  0
   -4.4078   -5.2724    6.8749 C   0  0  0  0  0  0  0  0  0  0  0  0
   -5.0824   -4.3589    7.0460 N   0  0  0  0  0  0  0  0  0  0  0  0
   -0.5712  -11.4225    5.8853 C   0  0  0  0  0  0  0  0  0  0  0  0
   -1.4882  -12.5763    5.4096 C   0  0  0  0  0  0  0  0  0  0  0  0
   -2.3467  -12.0144    4.3040 C   0  0  0  0  0  0  0  0  0  0  0  0
   -1.5668  -11.8075    3.2513 C   0  0  0  0  0  0  0  0  0  0  0  0
   -0.1664  -12.2248    3.6267 C   0  0  0  0  0  0  0  0  0  0  0  0
   -0.4776  -13.3873    4.5827 C   0  0  0  0  0  0  0  0  0  0  0  0
    0.3466  -11.1775    4.6461 C   0  0  0  0  0  0  0  0  0  0  0  0
   -2.1580   -3.3572    3.8700 C   0  0  0  0  0  0  0  0  0  0  0  0
   -2.3379   -3.6333    2.4967 C   0  0  0  0  0  0  0  0  0  0  0  0
   -1.9353   -2.7158    1.4477 C   0  0  0  0  0  0  0  0  0  0  0  0
   -2.3126   -3.1527    0.2458 N   0  0  0  0  0  0  0  0  0  0  0  0
   -3.0783   -4.5567    0.4137 S   0  0  0  0  0  4  0  0  0  0  0  0
   -2.9847   -4.6884    2.0085 N   0  0  0  0  0  0  0  0  0  0  0  0
   -1.2903   -1.4862    1.7237 C   0  0  0  0  0  0  0  0  0  0  0  0
   -1.3020   -1.1396    3.0986 C   0  0  0  0  0  0  0  0  0  0  0  0
   -0.8841    0.0231    3.5937 N   0  0  0  0  0  0  0  0  0  0  0  0
   -1.0216   -0.0029    5.1983 S   0  0  0  0  0  0  0  0  0  0  0  0
   -1.5970   -1.4941    5.3507 N   0  0  0  0  0  0  0  0  0  0  0  0
   -1.7307   -2.0410    4.1424 C   0  0  0  0  0  0  0  0  0  0  0  0
   -0.7109   -0.6040    0.7807 C   0  0  0  0  0  0  0  0  0  0  0  0
   -0.3514   -0.7900   -0.5667 C   0  0  0  0  0  0  0  0  0  0  0  0
   -0.3636   -1.9363   -1.3291 N   0  0  0  0  0  0  0  0  0  0  0  0
    0.0005   -3.1932   -0.8707 C   0  0  0  0  0  0  0  0  0  0  0  0
   -0.4415   -4.3335   -1.5465 C   0  0  0  0  0  0  0  0  0  0  0  0
   -0.1289   -5.5917   -1.0829 C   0  0  0  0  0  0  0  0  0  0  0  0
    0.6539   -5.7428    0.0573 C   0  0  0  0  0  0  0  0  0  0  0  0
    1.1021   -7.3093    0.7087 S   0  0  0  0  0  0  0  0  0  0  0  0
   -0.2364   -8.3928    0.1235 C   0  0  0  0  0  0  0  0  0  0  0  0
    1.1427   -4.6104    0.7059 C   0  0  0  0  0  0  0  0  0  0  0  0
    0.8225   -3.3529    0.2496 C   0  0  0  0  0  0  0  0  0  0  0  0
   -0.7096   -1.7384   -2.6833 C   0  0  0  0  0  0  0  0  0  0  0  0
    0.1070   -2.1852   -3.7206 C   0  0  0  0  0  0  0  0  0  0  0  0
   -0.2027   -1.8639   -5.0235 C   0  0  0  0  0  0  0  0  0  0  0  0
   -1.3281   -1.0939   -5.3174 C   0  0  0  0  0  0  0  0  0  0  0  0
   -1.5773   -0.6784   -7.0105 S   0  0  0  0  0  0  0  0  0  0  0  0
   -3.1583    0.2138   -7.0167 C   0  0  0  0  0  0  0  0  0  0  0  0
   -2.1680   -0.6884   -4.2882 C   0  0  0  0  0  0  0  0  0  0  0  0
   -1.8581   -1.0118   -2.9835 C   0  0  0  0  0  0  0  0  0  0  0  0
    0.0846    0.4291   -1.1377 C   0  0  0  0  0  0  0  0  0  0  0  0
    0.6557    0.8761   -2.7062 S   0  0  0  0  0  0  0  0  0  0  0  0
    0.9286    2.5248   -2.1781 C   0  0  0  0  0  0  0  0  0  0  0  0
    0.5844    2.7113   -0.8349 C   0  0  0  0  0  0  0  0  0  0  0  0
    0.4644    3.9092   -0.1487 N   0  0  0  0  0  0  0  0  0  0  0  0
    1.5516    4.7580    0.1148 C   0  0  0  0  0  0  0  0  0  0  0  0
    1.3979    6.1354   -0.0037 C   0  0  0  0  0  0  0  0  0  0  0  0
    2.4470    6.9852    0.2875 C   0  0  0  0  0  0  0  0  0  0  0  0
    3.6626    6.4625    0.7132 C   0  0  0  0  0  0  0  0  0  0  0  0
    5.0798    7.4452    1.0761 S   0  0  0  0  0  0  0  0  0  0  0  0
    4.4601    9.1507    1.0469 C   0  0  0  0  0  0  0  0  0  0  0  0
    3.8134    5.0815    0.8417 C   0  0  0  0  0  0  0  0  0  0  0  0
    2.7696    4.2346    0.5444 C   0  0  0  0  0  0  0  0  0  0  0  0
   -0.7557    4.1546    0.4864 C   0  0  0  0  0  0  0  0  0  0  0  0
   -1.9512    3.7369   -0.1061 C   0  0  0  0  0  0  0  0  0  0  0  0
   -3.1537    3.9618    0.5203 C   0  0  0  0  0  0  0  0  0  0  0  0
   -3.2011    4.6149    1.7521 C   0  0  0  0  0  0  0  0  0  0  0  0
   -4.7997    4.8375    2.4579 S   0  0  0  0  0  0  0  0  0  0  0  0
   -4.4898    5.8109    3.9580 C   0  0  0  0  0  0  0  0  0  0  0  0
   -2.0172    5.0403    2.3412 C   0  0  0  0  0  0  0  0  0  0  0  0
   -0.8093    4.8103    1.7150 C   0  0  0  0  0  0  0  0  0  0  0  0
    0.1037    1.5046   -0.2708 C   0  0  0  0  0  0  0  0  0  0  0  0
   -0.4005    1.0473    1.3236 S   0  0  0  0  0  0  0  0  0  0  0  0
    1.2819    3.4551   -3.1999 C   0  0  0  0  0  0  0  0  0  0  0  0
    2.2635    4.4605   -3.0976 C   0  0  0  0  0  0  0  0  0  0  0  0
    2.4429    5.4879   -4.1010 C   0  0  0  0  0  0  0  0  0  0  0  0
    3.4736    6.2812   -3.8044 N   0  0  0  0  0  0  0  0  0  0  0  0
    4.1535    5.7802   -2.4350 S   0  0  0  0  0  4  0  0  0  0  0  0
    3.1845    4.5425   -2.1388 N   0  0  0  0  0  0  0  0  0  0  0  0
    1.6529    5.5549   -5.2718 C   0  0  0  0  0  0  0  0  0  0  0  0
    0.8256    4.4230   -5.4679 C   0  0  0  0  0  0  0  0  0  0  0  0
    0.0844    4.1853   -6.5482 N   0  0  0  0  0  0  0  0  0  0  0  0
   -0.7337    2.8202   -6.3360 S   0  0  0  0  0  0  0  0  0  0  0  0
   -0.2226    2.4654   -4.8573 N   0  0  0  0  0  0  0  0  0  0  0  0
    0.6462    3.3984   -4.4615 C   0  0  0  0  0  0  0  0  0  0  0  0
    1.6932    6.5796   -6.2416 C   0  0  0  0  0  0  0  0  0  0  0  0
    2.1684    7.8593   -6.1445 C   0  0  0  0  0  0  0  0  0  0  0  0
    2.5107    8.6042   -7.3774 C   0  0  0  0  0  0  0  0  0  0  0  0
    2.2549    8.3164   -8.5361 O   0  0  0  0  0  0  0  0  0  0  0  0
    3.2916    9.7562   -6.9310 C   0  0  0  0  0  0  0  0  0  0  0  0
    3.9146   10.7064   -7.7310 C   0  0  0  0  0  0  0  0  0  0  0  0
    3.8321   10.6641   -9.0661 O   0  0  0  0  0  0  0  0  0  0  0  0
    4.6332   11.7176   -7.0781 C   0  0  0  0  0  0  0  0  0  0  0  0
    4.7018   11.7422   -5.6990 C   0  0  0  0  0  0  0  0  0  0  0  0
    4.0664   10.7913   -4.8999 C   0  0  0  0  0  0  0  0  0  0  0  0
    3.3531    9.7887   -5.5272 C   0  0  0  0  0  0  0  0  0  0  0  0
    2.5472    8.6774   -5.0201 C   0  0  0  0  0  0  0  0  0  0  0  0
    2.0779    8.5745   -3.7327 C   0  0  0  0  0  0  0  0  0  0  0  0
    1.0568    7.6965   -3.3257 C   0  0  0  0  0  0  0  0  0  0  0  0
    0.2037    7.0341   -2.9335 N   0  0  0  0  0  0  0  0  0  0  0  0
    2.5263    9.3627   -2.6607 C   0  0  0  0  0  0  0  0  0  0  0  0
    2.8748    9.9258   -1.7206 N   0  0  0  0  0  0  0  0  0  0  0  0
   -2.7679   -3.8380    5.8428 H   0  0  0  0  0  0  0  0  0  0  0  0
    0.4176   -8.3821    3.0588 H   0  0  0  0  0  0  0  0  0  0  0  0
   -2.5267   -9.2344    7.0897 H   0  0  0  0  0  0  0  0  0  0  0  0
   -0.0936  -11.6395    6.8387 H   0  0  0  0  0  0  0  0  0  0  0  0
   -2.0130  -13.0939    6.2078 H   0  0  0  0  0  0  0  0  0  0  0  0
   -3.3884  -11.7776    4.4164 H   0  0  0  0  0  0  0  0  0  0  0  0
   -1.8295  -11.3643    2.3082 H   0  0  0  0  0  0  0  0  0  0  0  0
    0.5141  -12.4239    2.8024 H   0  0  0  0  0  0  0  0  0  0  0  0
    0.3860  -13.7191    5.1573 H   0  0  0  0  0  0  0  0  0  0  0  0
   -0.9326  -14.2383    4.0778 H   0  0  0  0  0  0  0  0  0  0  0  0
    1.4239  -11.2328    4.7907 H   0  0  0  0  0  0  0  0  0  0  0  0
   -1.0741   -4.2256   -2.4138 H   0  0  0  0  0  0  0  0  0  0  0  0
   -0.5015   -6.4518   -1.6162 H   0  0  0  0  0  0  0  0  0  0  0  0
   -1.1909   -7.9300    0.3570 H   0  0  0  0  0  0  0  0  0  0  0  0
   -0.1303   -9.3239    0.6718 H   0  0  0  0  0  0  0  0  0  0  0  0
   -0.1375   -8.5851   -0.9409 H   0  0  0  0  0  0  0  0  0  0  0  0
    1.7603   -4.7329    1.5812 H   0  0  0  0  0  0  0  0  0  0  0  0
    1.2034   -2.4837    0.7637 H   0  0  0  0  0  0  0  0  0  0  0  0
    0.9936   -2.7583   -3.4954 H   0  0  0  0  0  0  0  0  0  0  0  0
    0.4367   -2.1859   -5.8308 H   0  0  0  0  0  0  0  0  0  0  0  0
   -3.3398    0.4784   -8.0537 H   0  0  0  0  0  0  0  0  0  0  0  0
   -3.0815    1.1148   -6.4151 H   0  0  0  0  0  0  0  0  0  0  0  0
   -3.9509   -0.4371   -6.6594 H   0  0  0  0  0  0  0  0  0  0  0  0
   -3.0575   -0.1139   -4.4854 H   0  0  0  0  0  0  0  0  0  0  0  0
   -2.5020   -0.6907   -2.1783 H   0  0  0  0  0  0  0  0  0  0  0  0
    0.4573    6.5377   -0.3483 H   0  0  0  0  0  0  0  0  0  0  0  0
    2.3092    8.0470    0.1642 H   0  0  0  0  0  0  0  0  0  0  0  0
    5.3080    9.7709    1.3208 H   0  0  0  0  0  0  0  0  0  0  0  0
    4.1138    9.4154    0.0517 H   0  0  0  0  0  0  0  0  0  0  0  0
    3.6689    9.2610    1.7826 H   0  0  0  0  0  0  0  0  0  0  0  0
    4.7596    4.6876    1.1788 H   0  0  0  0  0  0  0  0  0  0  0  0
    2.8862    3.1660    0.6397 H   0  0  0  0  0  0  0  0  0  0  0  0
   -1.9287    3.2480   -1.0686 H   0  0  0  0  0  0  0  0  0  0  0  0
   -4.0770    3.6437    0.0608 H   0  0  0  0  0  0  0  0  0  0  0  0
   -3.8908    5.2368    4.6589 H   0  0  0  0  0  0  0  0  0  0  0  0
   -5.4682    6.0072    4.3856 H   0  0  0  0  0  0  0  0  0  0  0  0
   -4.0066    6.7478    3.6972 H   0  0  0  0  0  0  0  0  0  0  0  0
   -2.0184    5.5418    3.2953 H   0  0  0  0  0  0  0  0  0  0  0  0
    0.1056    5.1293    2.1905 H   0  0  0  0  0  0  0  0  0  0  0  0
    1.3301    6.2921   -7.2235 H   0  0  0  0  0  0  0  0  0  0  0  0
    3.2932    9.8901   -9.3220 H   0  0  0  0  0  0  0  0  0  0  0  0
    5.1274   12.4691   -7.6729 H   0  0  0  0  0  0  0  0  0  0  0  0
    5.2665   12.5280   -5.2198 H   0  0  0  0  0  0  0  0  0  0  0  0
    4.1490   10.8456   -3.8270 H   0  0  0  0  0  0  0  0  0  0  0  0
  1  2  2  0  0  0  0
  2  3  1  0  0  0  0
  3  4  2  0  0  0  0
  3  5  1  0  0  0  0
  5  6  2  0  0  0  0
  6  7  1  0  0  0  0
  7  8  2  0  0  0  0
  8  9  1  0  0  0  0
  9 10  2  0  0  0  0
 10 11  1  0  0  0  0
 11 12  2  0  0  0  0
 12 13  1  0  0  0  0
 13 14  3  0  0  0  0
 12 15  1  0  0  0  0
 15 16  3  0  0  0  0
  8 17  1  0  0  0  0
 17 18  1  0  0  0  0
 18 19  1  0  0  0  0
 19 20  2  0  0  0  0
 20 21  1  0  0  0  0
 21 22  1  0  0  0  0
 21 23  1  0  0  0  0
  1 24  1  0  0  0  0
 24 25  2  0  0  0  0
 25 26  1  0  0  0  0
 26 27  1  0  0  0  0
 27 28  2  0  0  0  0
 28 29  2  0  0  0  0
 26 30  2  0  0  0  0
 30 31  1  0  0  0  0
 31 32  2  0  0  0  0
 32 33  1  0  0  0  0
 33 34  1  0  0  0  0
 34 35  2  0  0  0  0
 30 36  1  0  0  0  0
 36 37  2  0  0  0  0
 37 38  1  0  0  0  0
 38 39  1  0  0  0  0
 39 40  2  0  0  0  0
 40 41  1  0  0  0  0
 41 42  2  0  0  0  0
 42 43  1  0  0  0  0
 43 44  1  0  0  0  0
 42 45  1  0  0  0  0
 45 46  2  0  0  0  0
 38 47  1  0  0  0  0
 47 48  2  0  0  0  0
 48 49  1  0  0  0  0
 49 50  2  0  0  0  0
 50 51  1  0  0  0  0
 51 52  1  0  0  0  0
 50 53  1  0  0  0  0
 53 54  2  0  0  0  0
 37 55  1  0  0  0  0
 55 56  1  0  0  0  0
 56 57  1  0  0  0  0
 57 58  2  0  0  0  0
 58 59  1  0  0  0  0
 59 60  1  0  0  0  0
 60 61  2  0  0  0  0
 61 62  1  0  0  0  0
 62 63  2  0  0  0  0
 63 64  1  0  0  0  0
 64 65  1  0  0  0  0
 63 66  1  0  0  0  0
 66 67  2  0  0  0  0
 59 68  1  0  0  0  0
 68 69  2  0  0  0  0
 69 70  1  0  0  0  0
 70 71  2  0  0  0  0
 71 72  1  0  0  0  0
 72 73  1  0  0  0  0
 71 74  1  0  0  0  0
 74 75  2  0  0  0  0
 58 76  1  0  0  0  0
 76 77  1  0  0  0  0
 57 78  1  0  0  0  0
 78 79  2  0  0  0  0
 79 80  1  0  0  0  0
 80 81  1  0  0  0  0
 81 82  2  0  0  0  0
 82 83  2  0  0  0  0
 80 84  2  0  0  0  0
 84 85  1  0  0  0  0
 85 86  2  0  0  0  0
 86 87  1  0  0  0  0
 87 88  1  0  0  0  0
 88 89  2  0  0  0  0
 84 90  1  0  0  0  0
 90 91  2  0  0  0  0
 91 92  1  0  0  0  0
 92 93  2  0  0  0  0
 92 94  1  0  0  0  0
 94 95  2  0  0  0  0
 95 96  1  0  0  0  0
 95 97  1  0  0  0  0
 97 98  2  0  0  0  0
 98 99  1  0  0  0  0
 99100  2  0  0  0  0
100101  1  0  0  0  0
101102  2  0  0  0  0
102103  1  0  0  0  0
103104  3  0  0  0  0
102105  1  0  0  0  0
105106  3  0  0  0  0
 11  2  1  0  0  0  0
 23 17  1  0  0  0  0
 35 24  1  0  0  0  0
 77 36  1  0  0  0  0
 89 78  1  0  0  0  0
101 91  1  0  0  0  0
 10  5  1  0  0  0  0
 22 18  1  0  0  0  0
 29 25  1  0  0  0  0
 35 31  1  0  0  0  0
 46 39  1  0  0  0  0
 54 47  1  0  0  0  0
 76 55  2  0  0  0  0
 83 79  1  0  0  0  0
 89 85  1  0  0  0  0
100 94  1  0  0  0  0
 23  7  1  0  0  0  0
 67 60  1  0  0  0  0
 75 68  1  0  0  0  0
  1107  1  0  0  0  0
  6108  1  0  0  0  0
  9109  1  0  0  0  0
 17110  1  0  0  0  0
 18111  1  0  0  0  0
 19112  1  0  0  0  0
 20113  1  0  0  0  0
 21114  1  0  0  0  0
 22115  1  0  0  0  0
 22116  1  0  0  0  0
 23117  1  0  0  0  0
 40118  1  0  0  0  0
 41119  1  0  0  0  0
 44120  1  0  0  0  0
 44121  1  0  0  0  0
 44122  1  0  0  0  0
 45123  1  0  0  0  0
 46124  1  0  0  0  0
 48125  1  0  0  0  0
 49126  1  0  0  0  0
 52127  1  0  0  0  0
 52128  1  0  0  0  0
 52129  1  0  0  0  0
 53130  1  0  0  0  0
 54131  1  0  0  0  0
 61132  1  0  0  0  0
 62133  1  0  0  0  0
 65134  1  0  0  0  0
 65135  1  0  0  0  0
 65136  1  0  0  0  0
 66137  1  0  0  0  0
 67138  1  0  0  0  0
 69139  1  0  0  0  0
 70140  1  0  0  0  0
 73141  1  0  0  0  0
 73142  1  0  0  0  0
 73143  1  0  0  0  0
 74144  1  0  0  0  0
 75145  1  0  0  0  0
 90146  1  0  0  0  0
 96147  1  0  0  0  0
 97148  1  0  0  0  0
 98149  1  0  0  0  0
 99150  1  0  0  0  0
M  END
