
  xtb     02152216333D
 energy: -375.741284124786 gnorm: 0.000960504559 xtb: 6.4.1 (unknown)
236258  0     0  0            999 V2000
    8.0826    0.4243   -3.0585 C   0  0  0  0  0  0  0  0  0  0  0  0
    8.7268    1.6367   -2.9647 C   0  0  0  0  0  0  0  0  0  0  0  0
    8.3204    2.8177   -2.1881 C   0  0  0  0  0  0  0  0  0  0  0  0
    7.1972    3.1559   -1.8571 O   0  0  0  0  0  0  0  0  0  0  0  0
    9.5544    3.5824   -1.9338 C   0  0  0  0  0  0  0  0  0  0  0  0
    9.6987    4.6950   -1.1097 C   0  0  0  0  0  0  0  0  0  0  0  0
   10.9733    5.2086   -1.0898 C   0  0  0  0  0  0  0  0  0  0  0  0
   12.0266    4.6566   -1.8305 C   0  0  0  0  0  0  0  0  0  0  0  0
   11.8979    3.5532   -2.6420 C   0  0  0  0  0  0  0  0  0  0  0  0
   10.6090    3.0173   -2.6783 C   0  0  0  0  0  0  0  0  0  0  0  0
   10.0728    1.8868   -3.4327 C   0  0  0  0  0  0  0  0  0  0  0  0
   10.6863    1.2721   -4.4959 C   0  0  0  0  0  0  0  0  0  0  0  0
   10.0106    0.4428   -5.4077 C   0  0  0  0  0  0  0  0  0  0  0  0
    9.4926   -0.1425   -6.2502 N   0  0  0  0  0  0  0  0  0  0  0  0
   12.0116    1.5210   -4.9020 C   0  0  0  0  0  0  0  0  0  0  0  0
   13.0899    1.6681   -5.2692 N   0  0  0  0  0  0  0  0  0  0  0  0
   13.0136    5.6888   -1.3450 C   0  0  0  0  0  0  0  0  0  0  0  0
   13.3882    6.8367   -2.3150 C   0  0  0  0  0  0  0  0  0  0  0  0
   12.2142    7.0121   -3.2459 C   0  0  0  0  0  0  0  0  0  0  0  0
   11.2165    7.5342   -2.5450 C   0  0  0  0  0  0  0  0  0  0  0  0
   11.6978    7.7209   -1.1273 C   0  0  0  0  0  0  0  0  0  0  0  0
   13.1786    8.0423   -1.3847 C   0  0  0  0  0  0  0  0  0  0  0  0
   11.8392    6.3033   -0.5196 C   0  0  0  0  0  0  0  0  0  0  0  0
    6.8565    0.0370   -2.5023 C   0  0  0  0  0  0  0  0  0  0  0  0
    6.4248   -1.2939   -2.2829 C   0  0  0  0  0  0  0  0  0  0  0  0
    7.1149   -2.4366   -2.6070 N   0  0  0  0  0  0  0  0  0  0  0  0
    7.7626   -2.6059   -3.8414 C   0  0  0  0  0  0  0  0  0  0  0  0
    8.9588   -3.3216   -3.9026 C   0  0  0  0  0  0  0  0  0  0  0  0
    9.5745   -3.5350   -5.1149 C   0  0  0  0  0  0  0  0  0  0  0  0
    9.0115   -3.0392   -6.2893 C   0  0  0  0  0  0  0  0  0  0  0  0
    9.8647   -3.3772   -7.7895 S   0  0  0  0  0  0  0  0  0  0  0  0
    9.2304   -2.0982   -8.9113 C   0  0  0  0  0  0  0  0  0  0  0  0
    7.8150   -2.3325   -6.2301 C   0  0  0  0  0  0  0  0  0  0  0  0
    7.1990   -2.1146   -5.0158 C   0  0  0  0  0  0  0  0  0  0  0  0
    7.0321   -3.5413   -1.7410 C   0  0  0  0  0  0  0  0  0  0  0  0
    6.8708   -4.8321   -2.2447 C   0  0  0  0  0  0  0  0  0  0  0  0
    6.8022   -5.9050   -1.3867 C   0  0  0  0  0  0  0  0  0  0  0  0
    6.8869   -5.7179   -0.0072 C   0  0  0  0  0  0  0  0  0  0  0  0
    6.7879   -7.1709    0.9857 S   0  0  0  0  0  0  0  0  0  0  0  0
    6.7966   -6.5414    2.6887 C   0  0  0  0  0  0  0  0  0  0  0  0
    7.0501   -4.4348    0.4976 C   0  0  0  0  0  0  0  0  0  0  0  0
    7.1251   -3.3584   -0.3643 C   0  0  0  0  0  0  0  0  0  0  0  0
    5.2009   -1.3200   -1.5830 C   0  0  0  0  0  0  0  0  0  0  0  0
    4.1299   -2.5759   -1.0391 S   0  0  0  0  0  0  0  0  0  0  0  0
    3.0240   -1.3773   -0.4021 C   0  0  0  0  0  0  0  0  0  0  0  0
    3.4365   -0.0795   -0.6462 C   0  0  0  0  0  0  0  0  0  0  0  0
    2.7300    1.0746   -0.3482 N   0  0  0  0  0  0  0  0  0  0  0  0
    1.3379    1.1154   -0.4577 C   0  0  0  0  0  0  0  0  0  0  0  0
    0.6860    0.3855   -1.4545 C   0  0  0  0  0  0  0  0  0  0  0  0
   -0.6879    0.3672   -1.5206 C   0  0  0  0  0  0  0  0  0  0  0  0
   -1.4505    1.0852   -0.6018 C   0  0  0  0  0  0  0  0  0  0  0  0
   -3.2042    0.9458   -0.7625 S   0  0  0  0  0  0  0  0  0  0  0  0
   -3.8261    2.3677    0.1764 C   0  0  0  0  0  0  0  0  0  0  0  0
   -0.8103    1.8380    0.3736 C   0  0  0  0  0  0  0  0  0  0  0  0
    0.5704    1.8555    0.4389 C   0  0  0  0  0  0  0  0  0  0  0  0
    3.4773    2.2057    0.0043 C   0  0  0  0  0  0  0  0  0  0  0  0
    4.6084    2.0638    0.8097 C   0  0  0  0  0  0  0  0  0  0  0  0
    5.4347    3.1410    1.0489 C   0  0  0  0  0  0  0  0  0  0  0  0
    5.1425    4.3768    0.4884 C   0  0  0  0  0  0  0  0  0  0  0  0
    6.2825    5.7099    0.7324 S   0  0  0  0  0  0  0  0  0  0  0  0
    6.3073    6.4331   -0.9381 C   0  0  0  0  0  0  0  0  0  0  0  0
    3.9793    4.5413   -0.2517 C   0  0  0  0  0  0  0  0  0  0  0  0
    3.1526    3.4641   -0.4951 C   0  0  0  0  0  0  0  0  0  0  0  0
    4.6815   -0.0618   -1.3193 C   0  0  0  0  0  0  0  0  0  0  0  0
    5.6951    1.2094   -1.8734 S   0  0  0  0  0  0  0  0  0  0  0  0
    1.7749   -1.7152    0.2449 C   0  0  0  0  0  0  0  0  0  0  0  0
    0.8306   -2.5535   -0.3130 C   0  0  0  0  0  0  0  0  0  0  0  0
    1.1281   -3.2601   -1.4174 F   0  0  0  0  0  0  0  0  0  0  0  0
   -0.4939   -2.5875    0.1415 C   0  0  0  0  0  0  0  0  0  0  0  0
   -1.3507   -3.3383   -0.5624 F   0  0  0  0  0  0  0  0  0  0  0  0
   -0.9277   -1.8150    1.2087 C   0  0  0  0  0  0  0  0  0  0  0  0
    0.0863   -1.1374    1.9526 C   0  0  0  0  0  0  0  0  0  0  0  0
   -0.1927   -0.6116    3.1544 N   0  0  0  0  0  0  0  0  0  0  0  0
    0.7314    0.0418    3.8118 C   0  0  0  0  0  0  0  0  0  0  0  0
    0.4134    0.4827    5.2100 C   0  0  0  0  0  0  0  0  0  0  0  0
   -0.9017   -0.0866    5.7265 C   0  0  0  0  0  0  0  0  0  0  0  0
    2.0071    0.2723    3.2220 C   0  0  0  0  0  0  0  0  0  0  0  0
    2.3230   -0.3049    2.0904 N   0  0  0  0  0  0  0  0  0  0  0  0
    1.4062   -1.0475    1.4468 C   0  0  0  0  0  0  0  0  0  0  0  0
    3.0665    1.1154    3.8653 C   0  0  0  0  0  0  0  0  0  0  0  0
    4.1396    0.2322    4.5048 C   0  0  0  0  0  0  0  0  0  0  0  0
   -2.3184   -1.5922    1.4984 C   0  0  0  0  0  0  0  0  0  0  0  0
   -2.8844   -0.6637    2.3370 C   0  0  0  0  0  0  0  0  0  0  0  0
   -4.2825   -0.7287    2.1371 C   0  0  0  0  0  0  0  0  0  0  0  0
   -5.3711   -0.0081    2.6747 C   0  0  0  0  0  0  0  0  0  0  0  0
   -5.2558    1.0929    3.5944 C   0  0  0  0  0  0  0  0  0  0  0  0
   -6.2483    1.6844    4.3373 C   0  0  0  0  0  0  0  0  0  0  0  0
   -5.8189    2.8211    5.0377 C   0  0  0  0  0  0  0  0  0  0  0  0
   -4.5015    3.1372    4.8543 C   0  0  0  0  0  0  0  0  0  0  0  0
   -3.5550    4.6359    5.5008 Si  0  0  0  0  0  4  0  0  0  0  0  0
   -2.1439    5.0575    4.2728 C   0  0  0  0  0  0  0  0  0  0  0  0
   -0.9675    4.0870    4.2858 C   0  0  0  0  0  0  0  0  0  0  0  0
   -4.7930    6.0904    5.5530 C   0  0  0  0  0  0  0  0  0  0  0  0
   -4.1984    7.3627    6.1443 C   0  0  0  0  0  0  0  0  0  0  0  0
   -2.9073    4.2815    7.2707 C   0  0  0  0  0  0  0  0  0  0  0  0
   -2.4569    2.8405    7.4916 C   0  0  0  0  0  0  0  0  0  0  0  0
   -3.7630    1.9665    3.8116 S   0  0  0  0  0  0  0  0  0  0  0  0
   -6.6056   -0.4195    2.1734 C   0  0  0  0  0  0  0  0  0  0  0  0
   -6.7927   -1.4256    1.1817 C   0  0  0  0  0  0  0  0  0  0  0  0
   -5.6942   -2.1112    0.6072 C   0  0  0  0  0  0  0  0  0  0  0  0
   -5.7735   -3.0600   -0.4618 C   0  0  0  0  0  0  0  0  0  0  0  0
   -6.8144   -3.3552   -1.3188 C   0  0  0  0  0  0  0  0  0  0  0  0
   -6.4784   -4.3188   -2.2738 C   0  0  0  0  0  0  0  0  0  0  0  0
   -5.1925   -4.7857   -2.1706 C   0  0  0  0  0  0  0  0  0  0  0  0
   -4.2382   -5.9827   -3.2723 Si  0  0  0  0  0  4  0  0  0  0  0  0
   -5.5261   -7.1032   -4.1357 C   0  0  0  0  0  0  0  0  0  0  0  0
   -4.9066   -8.2579   -4.9133 C   0  0  0  0  0  0  0  0  0  0  0  0
   -3.0428   -6.9521   -2.1335 C   0  0  0  0  0  0  0  0  0  0  0  0
   -1.8372   -7.5566   -2.8481 C   0  0  0  0  0  0  0  0  0  0  0  0
   -3.2751   -4.9482   -4.5668 C   0  0  0  0  0  0  0  0  0  0  0  0
   -2.4284   -3.8426   -3.9418 C   0  0  0  0  0  0  0  0  0  0  0  0
   -4.3720   -4.0054   -0.8768 S   0  0  0  0  0  0  0  0  0  0  0  0
   -4.4667   -1.7369    1.1571 C   0  0  0  0  0  0  0  0  0  0  0  0
   -3.2725   -2.2450    0.7897 O   0  0  0  0  0  0  0  0  0  0  0  0
   -8.1861   -1.4932    0.9818 C   0  0  0  0  0  0  0  0  0  0  0  0
   -8.7643   -0.5477    1.8050 C   0  0  0  0  0  0  0  0  0  0  0  0
   -7.7962    0.0983    2.5307 O   0  0  0  0  0  0  0  0  0  0  0  0
  -10.0817   -0.1158    2.0690 C   0  0  0  0  0  0  0  0  0  0  0  0
  -11.2681   -0.4298    1.4709 C   0  0  0  0  0  0  0  0  0  0  0  0
  -11.4922   -1.2660    0.2689 C   0  0  0  0  0  0  0  0  0  0  0  0
  -10.6955   -1.9590   -0.3310 O   0  0  0  0  0  0  0  0  0  0  0  0
  -12.9102   -1.0812   -0.0910 C   0  0  0  0  0  0  0  0  0  0  0  0
  -13.5638   -1.6213   -1.1971 C   0  0  0  0  0  0  0  0  0  0  0  0
  -14.8857   -1.2608   -1.2967 C   0  0  0  0  0  0  0  0  0  0  0  0
  -15.5144   -0.4275   -0.3614 C   0  0  0  0  0  0  0  0  0  0  0  0
  -14.8839    0.1058    0.7369 C   0  0  0  0  0  0  0  0  0  0  0  0
  -13.5351   -0.2456    0.8551 C   0  0  0  0  0  0  0  0  0  0  0  0
  -12.5503    0.1302    1.8655 C   0  0  0  0  0  0  0  0  0  0  0  0
  -12.8217    0.8487    3.0017 C   0  0  0  0  0  0  0  0  0  0  0  0
  -11.9036    1.1720    4.0237 C   0  0  0  0  0  0  0  0  0  0  0  0
  -11.2409    1.4828    4.9097 N   0  0  0  0  0  0  0  0  0  0  0  0
  -14.0928    1.3588    3.3403 C   0  0  0  0  0  0  0  0  0  0  0  0
  -15.0916    1.8065    3.6876 N   0  0  0  0  0  0  0  0  0  0  0  0
  -16.8332   -0.4672   -1.0920 C   0  0  0  0  0  0  0  0  0  0  0  0
  -17.1918    0.7789   -1.9292 C   0  0  0  0  0  0  0  0  0  0  0  0
  -18.2519    0.2803   -2.8844 C   0  0  0  0  0  0  0  0  0  0  0  0
  -17.6576   -0.5085   -3.7705 C   0  0  0  0  0  0  0  0  0  0  0  0
  -16.1857   -0.5562   -3.4292 C   0  0  0  0  0  0  0  0  0  0  0  0
  -15.9953    0.8658   -2.8856 C   0  0  0  0  0  0  0  0  0  0  0  0
  -16.1328   -1.3962   -2.1350 C   0  0  0  0  0  0  0  0  0  0  0  0
    8.6391   -0.3744   -3.5391 H   0  0  0  0  0  0  0  0  0  0  0  0
    8.8670    5.0836   -0.5437 H   0  0  0  0  0  0  0  0  0  0  0  0
   12.7179    3.1306   -3.1990 H   0  0  0  0  0  0  0  0  0  0  0  0
   13.8756    5.3080   -0.8008 H   0  0  0  0  0  0  0  0  0  0  0  0
   14.3616    6.7299   -2.7860 H   0  0  0  0  0  0  0  0  0  0  0  0
   12.2113    6.6940   -4.2720 H   0  0  0  0  0  0  0  0  0  0  0  0
   10.2132    7.7398   -2.8701 H   0  0  0  0  0  0  0  0  0  0  0  0
   11.1326    8.4196   -0.5158 H   0  0  0  0  0  0  0  0  0  0  0  0
   13.7923    8.0085   -0.4856 H   0  0  0  0  0  0  0  0  0  0  0  0
   13.3211    8.9954   -1.8919 H   0  0  0  0  0  0  0  0  0  0  0  0
   11.9327    6.3241    0.5644 H   0  0  0  0  0  0  0  0  0  0  0  0
    9.3996   -3.7009   -2.9925 H   0  0  0  0  0  0  0  0  0  0  0  0
   10.5040   -4.0804   -5.1667 H   0  0  0  0  0  0  0  0  0  0  0  0
    9.9192   -2.0693   -9.7498 H   0  0  0  0  0  0  0  0  0  0  0  0
    9.2346   -1.1490   -8.3854 H   0  0  0  0  0  0  0  0  0  0  0  0
    8.2362   -2.3610   -9.2615 H   0  0  0  0  0  0  0  0  0  0  0  0
    7.3526   -1.9538   -7.1258 H   0  0  0  0  0  0  0  0  0  0  0  0
    6.2685   -1.5680   -4.9715 H   0  0  0  0  0  0  0  0  0  0  0  0
    6.7926   -4.9845   -3.3102 H   0  0  0  0  0  0  0  0  0  0  0  0
    6.6726   -6.9041   -1.7729 H   0  0  0  0  0  0  0  0  0  0  0  0
    5.9619   -5.8624    2.8352 H   0  0  0  0  0  0  0  0  0  0  0  0
    6.6777   -7.4148    3.3224 H   0  0  0  0  0  0  0  0  0  0  0  0
    7.7449   -6.0580    2.9047 H   0  0  0  0  0  0  0  0  0  0  0  0
    7.1297   -4.2575    1.5578 H   0  0  0  0  0  0  0  0  0  0  0  0
    7.2640   -2.3638    0.0340 H   0  0  0  0  0  0  0  0  0  0  0  0
    1.2666   -0.1618   -2.1819 H   0  0  0  0  0  0  0  0  0  0  0  0
   -1.1898   -0.2019   -2.2881 H   0  0  0  0  0  0  0  0  0  0  0  0
   -3.3522    3.2751   -0.1857 H   0  0  0  0  0  0  0  0  0  0  0  0
   -4.8943    2.4025   -0.0138 H   0  0  0  0  0  0  0  0  0  0  0  0
   -3.6470    2.2252    1.2376 H   0  0  0  0  0  0  0  0  0  0  0  0
   -1.3745    2.4011    1.0997 H   0  0  0  0  0  0  0  0  0  0  0  0
    1.0630    2.4336    1.2075 H   0  0  0  0  0  0  0  0  0  0  0  0
    4.8468    1.0914    1.2139 H   0  0  0  0  0  0  0  0  0  0  0  0
    6.3245    3.0275    1.6487 H   0  0  0  0  0  0  0  0  0  0  0  0
    5.4149    7.0275   -1.1104 H   0  0  0  0  0  0  0  0  0  0  0  0
    7.1841    7.0716   -0.9848 H   0  0  0  0  0  0  0  0  0  0  0  0
    6.3857    5.6221   -1.6562 H   0  0  0  0  0  0  0  0  0  0  0  0
    3.7253    5.5057   -0.6634 H   0  0  0  0  0  0  0  0  0  0  0  0
    2.2664    3.5860   -1.1003 H   0  0  0  0  0  0  0  0  0  0  0  0
    0.3809    1.5758    5.2362 H   0  0  0  0  0  0  0  0  0  0  0  0
    1.2328    0.1665    5.8612 H   0  0  0  0  0  0  0  0  0  0  0  0
   -1.7431    0.3473    5.1953 H   0  0  0  0  0  0  0  0  0  0  0  0
   -0.9279   -1.1627    5.5813 H   0  0  0  0  0  0  0  0  0  0  0  0
   -1.0120    0.1302    6.7858 H   0  0  0  0  0  0  0  0  0  0  0  0
    2.6281    1.7735    4.6146 H   0  0  0  0  0  0  0  0  0  0  0  0
    3.5321    1.7282    3.0911 H   0  0  0  0  0  0  0  0  0  0  0  0
    4.5715   -0.4238    3.7536 H   0  0  0  0  0  0  0  0  0  0  0  0
    4.9275    0.8487    4.9297 H   0  0  0  0  0  0  0  0  0  0  0  0
    3.7152   -0.3830    5.2956 H   0  0  0  0  0  0  0  0  0  0  0  0
   -2.3384   -0.0270    2.9971 H   0  0  0  0  0  0  0  0  0  0  0  0
   -7.2542    1.3121    4.3797 H   0  0  0  0  0  0  0  0  0  0  0  0
   -6.4718    3.4067    5.6596 H   0  0  0  0  0  0  0  0  0  0  0  0
   -2.5544    5.0975    3.2619 H   0  0  0  0  0  0  0  0  0  0  0  0
   -1.7680    6.0583    4.4901 H   0  0  0  0  0  0  0  0  0  0  0  0
   -0.4905    4.0826    5.2630 H   0  0  0  0  0  0  0  0  0  0  0  0
   -0.2210    4.3744    3.5462 H   0  0  0  0  0  0  0  0  0  0  0  0
   -1.3022    3.0777    4.0570 H   0  0  0  0  0  0  0  0  0  0  0  0
   -5.1596    6.3026    4.5483 H   0  0  0  0  0  0  0  0  0  0  0  0
   -5.6639    5.8056    6.1430 H   0  0  0  0  0  0  0  0  0  0  0  0
   -3.8507    7.1872    7.1592 H   0  0  0  0  0  0  0  0  0  0  0  0
   -3.3551    7.7063    5.5506 H   0  0  0  0  0  0  0  0  0  0  0  0
   -4.9391    8.1599    6.1721 H   0  0  0  0  0  0  0  0  0  0  0  0
   -2.0774    4.9522    7.4989 H   0  0  0  0  0  0  0  0  0  0  0  0
   -3.6957    4.5134    7.9888 H   0  0  0  0  0  0  0  0  0  0  0  0
   -3.2757    2.1514    7.2996 H   0  0  0  0  0  0  0  0  0  0  0  0
   -1.6393    2.5872    6.8236 H   0  0  0  0  0  0  0  0  0  0  0  0
   -2.1207    2.6942    8.5168 H   0  0  0  0  0  0  0  0  0  0  0  0
   -7.7730   -2.8737   -1.2897 H   0  0  0  0  0  0  0  0  0  0  0  0
   -7.1621   -4.6680   -3.0269 H   0  0  0  0  0  0  0  0  0  0  0  0
   -6.2158   -7.5080   -3.3942 H   0  0  0  0  0  0  0  0  0  0  0  0
   -6.1270   -6.5030   -4.8199 H   0  0  0  0  0  0  0  0  0  0  0  0
   -4.3673   -8.9225   -4.2436 H   0  0  0  0  0  0  0  0  0  0  0  0
   -4.2110   -7.8874   -5.6622 H   0  0  0  0  0  0  0  0  0  0  0  0
   -5.6735   -8.8409   -5.4210 H   0  0  0  0  0  0  0  0  0  0  0  0
   -3.5867   -7.7481   -1.6212 H   0  0  0  0  0  0  0  0  0  0  0  0
   -2.6819   -6.2767   -1.3561 H   0  0  0  0  0  0  0  0  0  0  0  0
   -2.1488   -8.2377   -3.6359 H   0  0  0  0  0  0  0  0  0  0  0  0
   -1.2268   -6.7769   -3.2953 H   0  0  0  0  0  0  0  0  0  0  0  0
   -1.2148   -8.1106   -2.1471 H   0  0  0  0  0  0  0  0  0  0  0  0
   -3.9754   -4.4986   -5.2736 H   0  0  0  0  0  0  0  0  0  0  0  0
   -2.6274   -5.6039   -5.1506 H   0  0  0  0  0  0  0  0  0  0  0  0
   -1.7152   -4.2514   -3.2317 H   0  0  0  0  0  0  0  0  0  0  0  0
   -3.0574   -3.1340   -3.4088 H   0  0  0  0  0  0  0  0  0  0  0  0
   -1.8765   -3.3003   -4.7080 H   0  0  0  0  0  0  0  0  0  0  0  0
   -8.7331   -2.1523    0.3439 H   0  0  0  0  0  0  0  0  0  0  0  0
  -10.1095    0.6161    2.8674 H   0  0  0  0  0  0  0  0  0  0  0  0
  -13.0405   -2.2605   -1.8909 H   0  0  0  0  0  0  0  0  0  0  0  0
  -15.3831    0.7456    1.4448 H   0  0  0  0  0  0  0  0  0  0  0  0
  -17.6775   -0.8590   -0.5283 H   0  0  0  0  0  0  0  0  0  0  0  0
  -17.4339    1.6637   -1.3469 H   0  0  0  0  0  0  0  0  0  0  0  0
  -19.2987    0.5009   -2.7870 H   0  0  0  0  0  0  0  0  0  0  0  0
  -18.1089   -1.0787   -4.5612 H   0  0  0  0  0  0  0  0  0  0  0  0
  -15.5117   -0.8868   -4.2148 H   0  0  0  0  0  0  0  0  0  0  0  0
  -15.0404    1.0272   -2.3889 H   0  0  0  0  0  0  0  0  0  0  0  0
  -16.1379    1.6230   -3.6549 H   0  0  0  0  0  0  0  0  0  0  0  0
  -16.5104   -2.4082   -2.2683 H   0  0  0  0  0  0  0  0  0  0  0  0
  1  2  2  0  0  0  0
  2  3  1  0  0  0  0
  3  4  2  0  0  0  0
  3  5  1  0  0  0  0
  5  6  2  0  0  0  0
  6  7  1  0  0  0  0
  7  8  2  0  0  0  0
  8  9  1  0  0  0  0
  9 10  2  0  0  0  0
 10 11  1  0  0  0  0
 11 12  2  0  0  0  0
 12 13  1  0  0  0  0
 13 14  3  0  0  0  0
 12 15  1  0  0  0  0
 15 16  3  0  0  0  0
  8 17  1  0  0  0  0
 17 18  1  0  0  0  0
 18 19  1  0  0  0  0
 19 20  2  0  0  0  0
 20 21  1  0  0  0  0
 21 22  1  0  0  0  0
 21 23  1  0  0  0  0
  1 24  1  0  0  0  0
 24 25  2  0  0  0  0
 25 26  1  0  0  0  0
 26 27  1  0  0  0  0
 27 28  2  0  0  0  0
 28 29  1  0  0  0  0
 29 30  2  0  0  0  0
 30 31  1  0  0  0  0
 31 32  1  0  0  0  0
 30 33  1  0  0  0  0
 33 34  2  0  0  0  0
 26 35  1  0  0  0  0
 35 36  2  0  0  0  0
 36 37  1  0  0  0  0
 37 38  2  0  0  0  0
 38 39  1  0  0  0  0
 39 40  1  0  0  0  0
 38 41  1  0  0  0  0
 41 42  2  0  0  0  0
 25 43  1  0  0  0  0
 43 44  1  0  0  0  0
 44 45  1  0  0  0  0
 45 46  2  0  0  0  0
 46 47  1  0  0  0  0
 47 48  1  0  0  0  0
 48 49  2  0  0  0  0
 49 50  1  0  0  0  0
 50 51  2  0  0  0  0
 51 52  1  0  0  0  0
 52 53  1  0  0  0  0
 51 54  1  0  0  0  0
 54 55  2  0  0  0  0
 47 56  1  0  0  0  0
 56 57  2  0  0  0  0
 57 58  1  0  0  0  0
 58 59  2  0  0  0  0
 59 60  1  0  0  0  0
 60 61  1  0  0  0  0
 59 62  1  0  0  0  0
 62 63  2  0  0  0  0
 46 64  1  0  0  0  0
 64 65  1  0  0  0  0
 45 66  1  0  0  0  0
 66 67  2  0  0  0  0
 67 68  1  0  0  0  0
 67 69  1  0  0  0  0
 69 70  1  0  0  0  0
 69 71  2  0  0  0  0
 71 72  1  0  0  0  0
 72 73  2  0  0  0  0
 73 74  1  0  0  0  0
 74 75  1  0  0  0  0
 75 76  1  0  0  0  0
 74 77  2  0  0  0  0
 77 78  1  0  0  0  0
 78 79  2  0  0  0  0
 77 80  1  0  0  0  0
 80 81  1  0  0  0  0
 71 82  1  0  0  0  0
 82 83  2  0  0  0  0
 83 84  1  0  0  0  0
 84 85  2  0  0  0  0
 85 86  1  0  0  0  0
 86 87  2  0  0  0  0
 87 88  1  0  0  0  0
 88 89  2  0  0  0  0
 89 90  1  0  0  0  0
 90 91  1  0  0  0  0
 91 92  1  0  0  0  0
 90 93  1  0  0  0  0
 93 94  1  0  0  0  0
 90 95  1  0  0  0  0
 95 96  1  0  0  0  0
 89 97  1  0  0  0  0
 85 98  1  0  0  0  0
 98 99  2  0  0  0  0
 99100  1  0  0  0  0
100101  1  0  0  0  0
101102  2  0  0  0  0
102103  1  0  0  0  0
103104  2  0  0  0  0
104105  1  0  0  0  0
105106  1  0  0  0  0
106107  1  0  0  0  0
105108  1  0  0  0  0
108109  1  0  0  0  0
105110  1  0  0  0  0
110111  1  0  0  0  0
104112  1  0  0  0  0
100113  2  0  0  0  0
113114  1  0  0  0  0
 99115  1  0  0  0  0
115116  2  0  0  0  0
116117  1  0  0  0  0
116118  1  0  0  0  0
118119  2  0  0  0  0
119120  1  0  0  0  0
120121  2  0  0  0  0
120122  1  0  0  0  0
122123  2  0  0  0  0
123124  1  0  0  0  0
124125  2  0  0  0  0
125126  1  0  0  0  0
126127  2  0  0  0  0
127128  1  0  0  0  0
128129  2  0  0  0  0
129130  1  0  0  0  0
130131  3  0  0  0  0
129132  1  0  0  0  0
132133  3  0  0  0  0
125134  1  0  0  0  0
134135  1  0  0  0  0
135136  1  0  0  0  0
136137  2  0  0  0  0
137138  1  0  0  0  0
138139  1  0  0  0  0
138140  1  0  0  0  0
 11  2  1  0  0  0  0
 23 17  1  0  0  0  0
 65 24  1  0  0  0  0
 79 66  1  0  0  0  0
114 82  1  0  0  0  0
128119  1  0  0  0  0
140134  1  0  0  0  0
 10  5  1  0  0  0  0
 22 18  1  0  0  0  0
 34 27  1  0  0  0  0
 42 35  1  0  0  0  0
 64 43  2  0  0  0  0
 79 72  1  0  0  0  0
113 84  1  0  0  0  0
127122  1  0  0  0  0
139135  1  0  0  0  0
 23  7  1  0  0  0  0
 55 48  1  0  0  0  0
 63 56  1  0  0  0  0
 97 86  1  0  0  0  0
117 98  1  0  0  0  0
140124  1  0  0  0  0
112101  1  0  0  0  0
  1141  1  0  0  0  0
  6142  1  0  0  0  0
  9143  1  0  0  0  0
 17144  1  0  0  0  0
 18145  1  0  0  0  0
 19146  1  0  0  0  0
 20147  1  0  0  0  0
 21148  1  0  0  0  0
 22149  1  0  0  0  0
 22150  1  0  0  0  0
 23151  1  0  0  0  0
 28152  1  0  0  0  0
 29153  1  0  0  0  0
 32154  1  0  0  0  0
 32155  1  0  0  0  0
 32156  1  0  0  0  0
 33157  1  0  0  0  0
 34158  1  0  0  0  0
 36159  1  0  0  0  0
 37160  1  0  0  0  0
 40161  1  0  0  0  0
 40162  1  0  0  0  0
 40163  1  0  0  0  0
 41164  1  0  0  0  0
 42165  1  0  0  0  0
 49166  1  0  0  0  0
 50167  1  0  0  0  0
 53168  1  0  0  0  0
 53169  1  0  0  0  0
 53170  1  0  0  0  0
 54171  1  0  0  0  0
 55172  1  0  0  0  0
 57173  1  0  0  0  0
 58174  1  0  0  0  0
 61175  1  0  0  0  0
 61176  1  0  0  0  0
 61177  1  0  0  0  0
 62178  1  0  0  0  0
 63179  1  0  0  0  0
 75180  1  0  0  0  0
 75181  1  0  0  0  0
 76182  1  0  0  0  0
 76183  1  0  0  0  0
 76184  1  0  0  0  0
 80185  1  0  0  0  0
 80186  1  0  0  0  0
 81187  1  0  0  0  0
 81188  1  0  0  0  0
 81189  1  0  0  0  0
 83190  1  0  0  0  0
 87191  1  0  0  0  0
 88192  1  0  0  0  0
 91193  1  0  0  0  0
 91194  1  0  0  0  0
 92195  1  0  0  0  0
 92196  1  0  0  0  0
 92197  1  0  0  0  0
 93198  1  0  0  0  0
 93199  1  0  0  0  0
 94200  1  0  0  0  0
 94201  1  0  0  0  0
 94202  1  0  0  0  0
 95203  1  0  0  0  0
 95204  1  0  0  0  0
 96205  1  0  0  0  0
 96206  1  0  0  0  0
 96207  1  0  0  0  0
102208  1  0  0  0  0
103209  1  0  0  0  0
106210  1  0  0  0  0
106211  1  0  0  0  0
107212  1  0  0  0  0
107213  1  0  0  0  0
107214  1  0  0  0  0
108215  1  0  0  0  0
108216  1  0  0  0  0
109217  1  0  0  0  0
109218  1  0  0  0  0
109219  1  0  0  0  0
110220  1  0  0  0  0
110221  1  0  0  0  0
111222  1  0  0  0  0
111223  1  0  0  0  0
111224  1  0  0  0  0
115225  1  0  0  0  0
118226  1  0  0  0  0
123227  1  0  0  0  0
126228  1  0  0  0  0
134229  1  0  0  0  0
135230  1  0  0  0  0
136231  1  0  0  0  0
137232  1  0  0  0  0
138233  1  0  0  0  0
139234  1  0  0  0  0
139235  1  0  0  0  0
140236  1  0  0  0  0
M  END
