215

C          7.57490        4.90140        4.32710
C          7.58730        6.16070        3.77690
C          6.70820        6.63020        2.70570
O          5.85320        5.99290        2.10730
C          7.03820        8.04500        2.48070
C          6.45410        8.90490        1.55400
C          6.95520       10.18340        1.58530
C          7.96510       10.57710        2.47280
C          8.55910        9.73370        3.38270
C          8.06370        8.42720        3.36870
C          8.43730        7.26430        4.17570
C          9.42830        7.24790        5.12470
C          9.81640        6.13120        5.89350
N         10.20090        5.27600        6.55780
C         10.22440        8.36010        5.46860
N         10.91110        9.21750        5.80370
C          7.96250       11.99860        1.96900
C          7.25040       13.06800        2.83420
C          6.18790       12.34590        3.62500
C          5.23630       11.97370        2.77950
C          5.63890       12.43650        1.40100
C          6.37970       13.73510        1.75730
C          6.84130       11.55780        0.97570
C          6.76730        3.79910        4.02250
C          6.82380        2.60050        4.73700
C          5.91120        1.66220        4.30210
F          5.74060        0.48660        4.92950
C          5.13160        2.07370        3.22340
S          5.54780        3.70020        2.77460
C          4.05130        1.45290        2.55810
C          3.60350        0.13070        2.52290
N          4.27940       -0.98510        2.98240
C          5.63590       -1.15930        2.67010
C          6.44660       -1.95320        3.48350
C          7.77080       -2.14760        3.16490
C          8.32430       -1.55180        2.03130
S         10.02550       -1.89480        1.71080
C         10.42790       -0.82790        0.29820
C          7.52430       -0.75590        1.22400
C          6.19240       -0.56700        1.54010
C          3.49990       -2.06990        3.41030
C          2.37750       -1.83540        4.20830
C          1.54190       -2.87100        4.55850
C          1.80870       -4.17050        4.13200
S          0.64680       -5.41040        4.60200
C          1.23000       -6.90920        3.76340
C          2.95030       -4.41720        3.38140
C          3.78420       -3.37610        3.02330
C          2.38340        0.04050        1.81560
S          1.34820       -1.27450        1.40650
C          0.36430       -0.22340        0.38870
C          0.83250        1.09160        0.39040
N          0.32420        2.17050       -0.31600
C          0.47090        3.42560        0.30560
C          0.05560        3.58440        1.62710
C          0.31800        4.75710        2.30150
C          1.00150        5.78940        1.66680
S          1.38210        7.22880        2.61750
C          2.94930        7.77660        1.87690
C          1.35650        5.65930        0.33000
C          1.09310        4.48610       -0.34610
C         -0.06700        2.08130       -1.65160
C          0.41640        1.07070       -2.47950
C         -0.07530        0.91130       -3.76000
C         -1.04370        1.78020       -4.24370
S         -1.80630        1.63430       -5.83010
C         -1.31330       -0.02060       -6.39140
C         -1.46220        2.84650       -3.45050
C         -0.98870        2.99510       -2.16820
C          1.96210        1.22150        1.22850
S          3.03000        2.52750        1.60180
C         -0.80660       -0.75910       -0.19870
C         -1.14720       -2.10350       -0.35600
N         -0.30190       -3.18870       -0.15070
C          0.99200       -3.20180       -0.66560
C          2.00580       -3.91610       -0.02620
C          3.31420       -3.82680       -0.45330
C          3.64460       -3.00810       -1.52400
S          5.29740       -2.73870       -2.08760
C          6.32640       -3.55450       -0.83470
C          2.62900       -2.34190       -2.20770
C          1.32010       -2.44640       -1.79370
C         -0.80660       -4.27570        0.58000
C         -0.54740       -5.58810        0.18830
C         -1.02410       -6.63890        0.93900
C         -1.77670       -6.40350        2.08830
S         -2.29930       -7.82490        2.99610
C         -2.89930       -7.13360        4.56400
C         -2.06610       -5.09900        2.46130
C         -1.57900       -4.04580        1.71370
C         -2.48310       -2.25210       -0.78420
S         -3.45120       -3.62500       -1.19140
C         -4.78020       -2.55350       -1.65570
C         -4.41320       -1.18420       -1.57830
N         -5.15490       -0.13190       -2.04770
C         -6.01580       -0.26310       -3.15630
C         -7.23070        0.41320       -3.16970
C         -8.12350        0.22640       -4.20750
C         -7.81770       -0.65290       -5.23680
S         -8.93410       -1.05280       -6.54230
C        -10.55090       -0.59030       -5.85950
C         -6.56600       -1.26850       -5.26520
C         -5.66810       -1.06730       -4.24310
C         -4.89540        1.16280       -1.56170
C         -4.74960        2.23040       -2.44740
C         -4.42350        3.47860       -1.97150
C         -4.22130        3.68940       -0.60760
S         -3.69280        5.30530       -0.13800
C         -3.29790        5.14450        1.62490
C         -4.42810        2.64400        0.28130
C         -4.77010        1.39230       -0.19450
C         -3.13150       -1.04620       -1.02270
S         -2.11870        0.31300       -0.66760
C         -6.05920       -2.98160       -2.00760
C         -6.53150       -4.23780       -2.31170
C         -5.74470       -5.47190       -2.36210
O         -4.59840       -5.63970       -1.98010
C         -6.61450       -6.48960       -2.97970
C         -6.29200       -7.81370       -3.26240
C         -7.30990       -8.52230       -3.85580
C         -8.55660       -7.95510       -4.14770
C         -8.88830       -6.64930       -3.87130
C         -7.86800       -5.91220       -3.26640
C         -7.85390       -4.52250       -2.81180
C         -8.92450       -3.66150       -2.85990
C        -10.15820       -3.94070       -3.47910
N        -11.18450       -4.06230       -3.98190
C         -8.97070       -2.38020       -2.28150
N         -9.12230       -1.33910       -1.81580
C         -9.09490       -9.23920       -4.72740
C        -10.06530      -10.07340       -3.85520
C         -9.73760       -9.74860       -2.41900
C         -8.55720      -10.28600       -2.14130
C         -8.06550      -10.98400       -3.38520
C         -9.40300      -11.45500       -3.97830
C         -7.70540       -9.87190       -4.40110
H          8.27230        4.70850        5.13280
H          5.67980        8.55910        0.88730
H          9.33950       10.05360        4.05240
H          8.90080       12.35990        1.55320
H          7.92060       13.70650        3.40320
H          6.26210       12.13740        4.67620
H          4.35480       11.39430        2.98370
H          4.84250       12.50040        0.66410
H          5.71860       14.49900        2.16370
H          6.95400       14.14810        0.92920
H          7.05000       11.62630       -0.09020
H          7.49320        2.43910        5.56280
H          6.02990       -2.39960        4.37280
H          8.39870       -2.75840        3.79480
H         10.22240        0.20860        0.54850
H         11.49130       -0.96210        0.12600
H          9.87170       -1.14020       -0.58110
H          7.91450       -0.28700        0.33540
H          5.57920        0.03520        0.88620
H          2.16600       -0.83120        4.54380
H          0.66880       -2.68660        5.16520
H          1.26430       -6.73930        2.69100
H          2.19890       -7.20340        4.15610
H          0.49450       -7.67680        3.98410
H          3.19830       -5.41540        3.05730
H          4.65810       -3.57860        2.42290
H         -0.44040        2.76410        2.12690
H          0.01840        4.87740        3.33140
H          2.76630        8.27530        0.92920
H          3.60900        6.92120        1.75860
H          3.37820        8.48120        2.58340
H          1.85920        6.46190       -0.18480
H          1.39520        4.37430       -1.37660
H          1.17620        0.39730       -2.11170
H          0.30950        0.10920       -4.36990
H         -0.25480       -0.03820       -6.63470
H         -1.89790       -0.21290       -7.28570
H         -1.55450       -0.75310       -5.62680
H         -2.18240        3.54260       -3.84890
H         -1.34850        3.80220       -1.54950
H          1.76980       -4.51010        0.84280
H          4.07020       -4.38560        0.07340
H          6.15680       -4.62710       -0.84830
H          7.35330       -3.34580       -1.11820
H          6.12430       -3.12920        0.14450
H          2.88440       -1.73680       -3.06470
H          0.53930       -1.92860       -2.33050
H          0.02890       -5.77520       -0.70530
H         -0.82340       -7.65740        0.64290
H         -3.08260       -7.98680        5.20980
H         -3.82590       -6.59030        4.40320
H         -2.13360       -6.49550        4.99620
H         -2.65580       -4.88750        3.33790
H         -1.78570       -3.03050        2.01870
H         -7.48890        1.06510       -2.34990
H         -9.06550        0.74820       -4.18350
H        -10.66760        0.48960       -5.85970
H        -11.28710       -1.04050       -6.51800
H        -10.65200       -0.99980       -4.85890
H         -6.31590       -1.91100       -6.09540
H         -4.70530       -1.55570       -4.26340
H         -4.86860        2.06670       -3.50770
H         -4.29890        4.30720       -2.65110
H         -2.57610        4.34550        1.76490
H         -2.85350        6.09230        1.91290
H         -4.20440        4.97270        2.19820
H         -4.32490        2.78730        1.34460
H         -4.93480        0.58120        0.49930
H         -6.78160       -2.17990       -2.08810
H         -5.31850       -8.21110       -3.02100
H         -9.85180       -6.22640       -4.10290
H         -9.40470       -9.19900       -5.76990
H        -11.11100       -9.99170       -4.13920
H        -10.35160       -9.13100       -1.78990
H         -7.98730      -10.20680       -1.23410
H         -7.29050      -11.73240       -3.24110
H         -9.89160      -12.21250       -3.36710
H         -9.32200      -11.80720       -5.00580
H         -7.10850      -10.24560       -5.23110
