
  xtb     02092210463D
 energy: -280.306925972336 gnorm: 0.000597040173 xtb: 6.4.1 (unknown)
157172  0     0  0            999 V2000
    2.2472    0.5156    6.1591 C   0  0  0  0  0  0  0  0  0  0  0  0
    2.7070   -0.7578    6.1988 C   0  0  0  0  0  0  0  0  0  0  0  0
    2.3906   -1.7878    5.1670 C   0  0  0  0  0  0  0  0  0  0  0  0
    1.8463   -1.6348    4.0932 O   0  0  0  0  0  0  0  0  0  0  0  0
    2.7719   -3.0761    5.7684 C   0  0  0  0  0  0  0  0  0  0  0  0
    2.5866   -4.3397    5.2083 C   0  0  0  0  0  0  0  0  0  0  0  0
    3.0145   -5.3729    6.0052 C   0  0  0  0  0  0  0  0  0  0  0  0
    3.5770   -5.1702    7.2739 C   0  0  0  0  0  0  0  0  0  0  0  0
    3.7595   -3.9319    7.8415 C   0  0  0  0  0  0  0  0  0  0  0  0
    3.3351   -2.8632    7.0441 C   0  0  0  0  0  0  0  0  0  0  0  0
    3.3580   -1.4303    7.3103 C   0  0  0  0  0  0  0  0  0  0  0  0
    3.9695   -0.8087    8.3646 C   0  0  0  0  0  0  0  0  0  0  0  0
    4.0571    0.5925    8.5144 C   0  0  0  0  0  0  0  0  0  0  0  0
    4.1882    1.7193    8.6885 N   0  0  0  0  0  0  0  0  0  0  0  0
    4.6347   -1.4807    9.4113 C   0  0  0  0  0  0  0  0  0  0  0  0
    5.1876   -1.9708   10.2897 N   0  0  0  0  0  0  0  0  0  0  0  0
    3.7507   -6.6483    7.5198 C   0  0  0  0  0  0  0  0  0  0  0  0
    2.7211   -7.3163    8.4559 C   0  0  0  0  0  0  0  0  0  0  0  0
    2.8380   -8.7881    8.1302 C   0  0  0  0  0  0  0  0  0  0  0  0
    2.3085   -8.9789    6.9285 C   0  0  0  0  0  0  0  0  0  0  0  0
    1.8252   -7.6395    6.4212 C   0  0  0  0  0  0  0  0  0  0  0  0
    1.3994   -6.9943    7.7464 C   0  0  0  0  0  0  0  0  0  0  0  0
    3.1273   -6.8731    6.1046 C   0  0  0  0  0  0  0  0  0  0  0  0
    1.7393    1.0915    4.9392 C   0  0  0  0  0  0  0  0  0  0  0  0
    0.5226    1.7461    4.8674 C   0  0  0  0  0  0  0  0  0  0  0  0
   -0.1938    1.9227    5.9896 F   0  0  0  0  0  0  0  0  0  0  0  0
   -0.0662    2.1005    3.6500 C   0  0  0  0  0  0  0  0  0  0  0  0
   -1.3384    2.5404    3.6766 F   0  0  0  0  0  0  0  0  0  0  0  0
    0.5686    1.8754    2.4380 C   0  0  0  0  0  0  0  0  0  0  0  0
    1.8854    1.3272    2.4994 C   0  0  0  0  0  0  0  0  0  0  0  0
    2.5739    1.1850    1.3611 N   0  0  0  0  0  0  0  0  0  0  0  0
    3.7736    0.6550    1.3807 C   0  0  0  0  0  0  0  0  0  0  0  0
    4.4547    0.5588    0.0483 C   0  0  0  0  0  0  0  0  0  0  0  0
    4.3108   -0.8426   -0.5451 C   0  0  0  0  0  0  0  0  0  0  0  0
    4.3522    0.2503    2.6147 C   0  0  0  0  0  0  0  0  0  0  0  0
    3.7030    0.4205    3.7417 N   0  0  0  0  0  0  0  0  0  0  0  0
    2.4646    0.9315    3.7242 C   0  0  0  0  0  0  0  0  0  0  0  0
    5.7091   -0.3766    2.7443 C   0  0  0  0  0  0  0  0  0  0  0  0
    5.5736   -1.8305    3.2012 C   0  0  0  0  0  0  0  0  0  0  0  0
   -0.0604    1.9932    1.1572 C   0  0  0  0  0  0  0  0  0  0  0  0
   -1.0523    2.8591    0.7050 C   0  0  0  0  0  0  0  0  0  0  0  0
   -1.4369    4.0215    1.3315 N   0  0  0  0  0  0  0  0  0  0  0  0
   -0.5311    4.7537    2.1150 C   0  0  0  0  0  0  0  0  0  0  0  0
    0.8187    4.8152    1.7799 C   0  0  0  0  0  0  0  0  0  0  0  0
    1.7141    5.5013    2.5766 C   0  0  0  0  0  0  0  0  0  0  0  0
    1.2727    6.1504    3.7221 C   0  0  0  0  0  0  0  0  0  0  0  0
    2.3208    7.0472    4.8212 S   0  0  0  0  0  0  0  0  0  0  0  0
    3.9968    6.6627    4.2391 C   0  0  0  0  0  0  0  0  0  0  0  0
   -0.0833    6.1166    4.0441 C   0  0  0  0  0  0  0  0  0  0  0  0
   -0.9744    5.4273    3.2539 C   0  0  0  0  0  0  0  0  0  0  0  0
   -2.7521    4.4812    1.1642 C   0  0  0  0  0  0  0  0  0  0  0  0
   -3.0102    5.8373    0.9631 C   0  0  0  0  0  0  0  0  0  0  0  0
   -4.3024    6.2745    0.7854 C   0  0  0  0  0  0  0  0  0  0  0  0
   -5.3657    5.3715    0.7992 C   0  0  0  0  0  0  0  0  0  0  0  0
   -6.9729    6.0538    0.5517 S   0  0  0  0  0  0  0  0  0  0  0  0
   -8.0808    4.6194    0.6526 C   0  0  0  0  0  0  0  0  0  0  0  0
   -5.1123    4.0224    1.0047 C   0  0  0  0  0  0  0  0  0  0  0  0
   -3.8155    3.5843    1.1891 C   0  0  0  0  0  0  0  0  0  0  0  0
   -1.5448    2.4286   -0.5548 C   0  0  0  0  0  0  0  0  0  0  0  0
   -2.7408    3.0091   -1.6681 S   0  0  0  0  0  0  0  0  0  0  0  0
   -2.4295    1.6538   -2.7377 C   0  0  0  0  0  0  0  0  0  0  0  0
   -1.4029    0.8424   -2.2886 C   0  0  0  0  0  0  0  0  0  0  0  0
   -0.8596   -0.2457   -2.9527 N   0  0  0  0  0  0  0  0  0  0  0  0
   -0.4220   -1.3266   -2.1722 C   0  0  0  0  0  0  0  0  0  0  0  0
    0.7831   -1.9665   -2.4543 C   0  0  0  0  0  0  0  0  0  0  0  0
    1.2430   -2.9690   -1.6239 C   0  0  0  0  0  0  0  0  0  0  0  0
    0.5111   -3.3347   -0.5029 C   0  0  0  0  0  0  0  0  0  0  0  0
    1.1201   -4.5938    0.6033 S   0  0  0  0  0  0  0  0  0  0  0  0
    2.5273   -3.6856    1.3226 C   0  0  0  0  0  0  0  0  0  0  0  0
   -0.7109   -2.7343   -0.2432 C   0  0  0  0  0  0  0  0  0  0  0  0
   -1.1772   -1.7375   -1.0748 C   0  0  0  0  0  0  0  0  0  0  0  0
   -0.7695   -0.2682   -4.3471 C   0  0  0  0  0  0  0  0  0  0  0  0
   -1.0076   -1.4458   -5.0571 C   0  0  0  0  0  0  0  0  0  0  0  0
   -1.0074   -1.4373   -6.4363 C   0  0  0  0  0  0  0  0  0  0  0  0
   -0.7667   -0.2571   -7.1325 C   0  0  0  0  0  0  0  0  0  0  0  0
   -0.8401   -0.2987   -8.9043 S   0  0  0  0  0  0  0  0  0  0  0  0
    0.4064    0.9456   -9.3511 C   0  0  0  0  0  0  0  0  0  0  0  0
   -0.4996    0.9122   -6.4329 C   0  0  0  0  0  0  0  0  0  0  0  0
   -0.4911    0.9016   -5.0544 C   0  0  0  0  0  0  0  0  0  0  0  0
   -0.9158    1.2921   -1.0376 C   0  0  0  0  0  0  0  0  0  0  0  0
    0.3759    0.7723   -0.0230 S   0  0  0  0  0  0  0  0  0  0  0  0
   -3.1512    1.4712   -3.9782 C   0  0  0  0  0  0  0  0  0  0  0  0
   -3.3300    2.4993   -4.9064 C   0  0  0  0  0  0  0  0  0  0  0  0
   -3.7719    2.2348   -6.1825 C   0  0  0  0  0  0  0  0  0  0  0  0
   -4.0981    0.9342   -6.5803 C   0  0  0  0  0  0  0  0  0  0  0  0
   -4.0763   -0.0664   -5.5996 C   0  0  0  0  0  0  0  0  0  0  0  0
   -4.4567   -1.3154   -5.9110 F   0  0  0  0  0  0  0  0  0  0  0  0
   -3.5960    0.1926   -4.3329 C   0  0  0  0  0  0  0  0  0  0  0  0
   -3.5539   -0.8029   -3.4277 F   0  0  0  0  0  0  0  0  0  0  0  0
   -4.4384    0.5487   -7.9276 C   0  0  0  0  0  0  0  0  0  0  0  0
   -3.9143    1.0011   -9.0865 C   0  0  0  0  0  0  0  0  0  0  0  0
   -4.3372    0.3934  -10.3768 C   0  0  0  0  0  0  0  0  0  0  0  0
   -5.2353   -0.3959  -10.5423 O   0  0  0  0  0  0  0  0  0  0  0  0
   -3.4376    0.9652  -11.4059 C   0  0  0  0  0  0  0  0  0  0  0  0
   -3.3849    0.7102  -12.7624 C   0  0  0  0  0  0  0  0  0  0  0  0
   -2.4375    1.3859  -13.5230 C   0  0  0  0  0  0  0  0  0  0  0  0
   -2.3375    1.0889  -15.2120 Cl  0  0  0  0  0  0  0  0  0  0  0  0
   -1.5688    2.3079  -12.9268 C   0  0  0  0  0  0  0  0  0  0  0  0
   -0.4114    3.1373  -13.8894 Cl  0  0  0  0  0  0  0  0  0  0  0  0
   -1.6285    2.5627  -11.5622 C   0  0  0  0  0  0  0  0  0  0  0  0
   -2.5619    1.8773  -10.8072 C   0  0  0  0  0  0  0  0  0  0  0  0
   -2.8153    1.9577   -9.3450 C   0  0  0  0  0  0  0  0  0  0  0  0
   -2.2296    2.6826   -8.5676 O   0  0  0  0  0  0  0  0  0  0  0  0
    2.2120    1.1251    7.0525 H   0  0  0  0  0  0  0  0  0  0  0  0
    2.1362   -4.4550    4.2352 H   0  0  0  0  0  0  0  0  0  0  0  0
    4.1828   -3.7898    8.8220 H   0  0  0  0  0  0  0  0  0  0  0  0
    4.7703   -6.9827    7.7008 H   0  0  0  0  0  0  0  0  0  0  0  0
    2.8101   -7.0380    9.5024 H   0  0  0  0  0  0  0  0  0  0  0  0
    3.3264   -9.5054    8.7632 H   0  0  0  0  0  0  0  0  0  0  0  0
    2.2662   -9.8873    6.3568 H   0  0  0  0  0  0  0  0  0  0  0  0
    1.0987   -7.6542    5.6135 H   0  0  0  0  0  0  0  0  0  0  0  0
    0.5538   -7.5079    8.2005 H   0  0  0  0  0  0  0  0  0  0  0  0
    1.1816   -5.9304    7.6728 H   0  0  0  0  0  0  0  0  0  0  0  0
    3.7306   -7.3572    5.3391 H   0  0  0  0  0  0  0  0  0  0  0  0
    5.5098    0.8222    0.1379 H   0  0  0  0  0  0  0  0  0  0  0  0
    3.9701    1.2745   -0.6170 H   0  0  0  0  0  0  0  0  0  0  0  0
    4.7659   -0.8779   -1.5322 H   0  0  0  0  0  0  0  0  0  0  0  0
    4.7985   -1.5810    0.0871 H   0  0  0  0  0  0  0  0  0  0  0  0
    3.2563   -1.0938   -0.6387 H   0  0  0  0  0  0  0  0  0  0  0  0
    6.2541   -0.3321    1.8029 H   0  0  0  0  0  0  0  0  0  0  0  0
    6.2695    0.1756    3.5017 H   0  0  0  0  0  0  0  0  0  0  0  0
    5.0018   -2.4100    2.4793 H   0  0  0  0  0  0  0  0  0  0  0  0
    6.5556   -2.2828    3.3156 H   0  0  0  0  0  0  0  0  0  0  0  0
    5.0547   -1.8707    4.1555 H   0  0  0  0  0  0  0  0  0  0  0  0
    1.1777    4.3220    0.8888 H   0  0  0  0  0  0  0  0  0  0  0  0
    2.7519    5.5261    2.2857 H   0  0  0  0  0  0  0  0  0  0  0  0
    4.1438    5.5866    4.2257 H   0  0  0  0  0  0  0  0  0  0  0  0
    4.6671    7.1175    4.9619 H   0  0  0  0  0  0  0  0  0  0  0  0
    4.1644    7.0986    3.2583 H   0  0  0  0  0  0  0  0  0  0  0  0
   -0.4241    6.6263    4.9318 H   0  0  0  0  0  0  0  0  0  0  0  0
   -2.0176    5.3838    3.5257 H   0  0  0  0  0  0  0  0  0  0  0  0
   -2.1909    6.5401    0.9445 H   0  0  0  0  0  0  0  0  0  0  0  0
   -4.5073    7.3219    0.6263 H   0  0  0  0  0  0  0  0  0  0  0  0
   -8.0050    4.1598    1.6337 H   0  0  0  0  0  0  0  0  0  0  0  0
   -9.0818    5.0140    0.5080 H   0  0  0  0  0  0  0  0  0  0  0  0
   -7.8461    3.9117   -0.1371 H   0  0  0  0  0  0  0  0  0  0  0  0
   -5.9125    3.3011    1.0324 H   0  0  0  0  0  0  0  0  0  0  0  0
   -3.6250    2.5373    1.3714 H   0  0  0  0  0  0  0  0  0  0  0  0
    1.3580   -1.6657   -3.3179 H   0  0  0  0  0  0  0  0  0  0  0  0
    2.1783   -3.4638   -1.8408 H   0  0  0  0  0  0  0  0  0  0  0  0
    3.0828   -4.4025    1.9196 H   0  0  0  0  0  0  0  0  0  0  0  0
    2.1605   -2.8743    1.9470 H   0  0  0  0  0  0  0  0  0  0  0  0
    3.1527   -3.3064    0.5213 H   0  0  0  0  0  0  0  0  0  0  0  0
   -1.2877   -3.0495    0.6121 H   0  0  0  0  0  0  0  0  0  0  0  0
   -2.1296   -1.2685   -0.8805 H   0  0  0  0  0  0  0  0  0  0  0  0
   -1.2183   -2.3579   -4.5196 H   0  0  0  0  0  0  0  0  0  0  0  0
   -1.2142   -2.3425   -6.9853 H   0  0  0  0  0  0  0  0  0  0  0  0
    0.5845    0.8248  -10.4148 H   0  0  0  0  0  0  0  0  0  0  0  0
    0.0237    1.9411   -9.1455 H   0  0  0  0  0  0  0  0  0  0  0  0
    1.3162    0.7525   -8.7916 H   0  0  0  0  0  0  0  0  0  0  0  0
   -0.3215    1.8384   -6.9530 H   0  0  0  0  0  0  0  0  0  0  0  0
   -0.2801    1.8134   -4.5162 H   0  0  0  0  0  0  0  0  0  0  0  0
   -3.0508    3.5029   -4.6250 H   0  0  0  0  0  0  0  0  0  0  0  0
   -3.8475    3.0343   -6.8995 H   0  0  0  0  0  0  0  0  0  0  0  0
   -5.1393   -0.2762   -8.0239 H   0  0  0  0  0  0  0  0  0  0  0  0
   -4.0596    0.0039  -13.2196 H   0  0  0  0  0  0  0  0  0  0  0  0
   -0.9633    3.2823  -11.1114 H   0  0  0  0  0  0  0  0  0  0  0  0
  1  2  2  0  0  0  0
  2  3  1  0  0  0  0
  3  4  2  0  0  0  0
  3  5  1  0  0  0  0
  5  6  2  0  0  0  0
  6  7  1  0  0  0  0
  7  8  2  0  0  0  0
  8  9  1  0  0  0  0
  9 10  2  0  0  0  0
 10 11  1  0  0  0  0
 11 12  2  0  0  0  0
 12 13  1  0  0  0  0
 13 14  3  0  0  0  0
 12 15  1  0  0  0  0
 15 16  3  0  0  0  0
  8 17  1  0  0  0  0
 17 18  1  0  0  0  0
 18 19  1  0  0  0  0
 19 20  2  0  0  0  0
 20 21  1  0  0  0  0
 21 22  1  0  0  0  0
 21 23  1  0  0  0  0
  1 24  1  0  0  0  0
 24 25  2  0  0  0  0
 25 26  1  0  0  0  0
 25 27  1  0  0  0  0
 27 28  1  0  0  0  0
 27 29  2  0  0  0  0
 29 30  1  0  0  0  0
 30 31  2  0  0  0  0
 31 32  1  0  0  0  0
 32 33  1  0  0  0  0
 33 34  1  0  0  0  0
 32 35  2  0  0  0  0
 35 36  1  0  0  0  0
 36 37  2  0  0  0  0
 35 38  1  0  0  0  0
 38 39  1  0  0  0  0
 29 40  1  0  0  0  0
 40 41  2  0  0  0  0
 41 42  1  0  0  0  0
 42 43  1  0  0  0  0
 43 44  2  0  0  0  0
 44 45  1  0  0  0  0
 45 46  2  0  0  0  0
 46 47  1  0  0  0  0
 47 48  1  0  0  0  0
 46 49  1  0  0  0  0
 49 50  2  0  0  0  0
 42 51  1  0  0  0  0
 51 52  2  0  0  0  0
 52 53  1  0  0  0  0
 53 54  2  0  0  0  0
 54 55  1  0  0  0  0
 55 56  1  0  0  0  0
 54 57  1  0  0  0  0
 57 58  2  0  0  0  0
 41 59  1  0  0  0  0
 59 60  1  0  0  0  0
 60 61  1  0  0  0  0
 61 62  2  0  0  0  0
 62 63  1  0  0  0  0
 63 64  1  0  0  0  0
 64 65  2  0  0  0  0
 65 66  1  0  0  0  0
 66 67  2  0  0  0  0
 67 68  1  0  0  0  0
 68 69  1  0  0  0  0
 67 70  1  0  0  0  0
 70 71  2  0  0  0  0
 63 72  1  0  0  0  0
 72 73  2  0  0  0  0
 73 74  1  0  0  0  0
 74 75  2  0  0  0  0
 75 76  1  0  0  0  0
 76 77  1  0  0  0  0
 75 78  1  0  0  0  0
 78 79  2  0  0  0  0
 62 80  1  0  0  0  0
 80 81  1  0  0  0  0
 61 82  1  0  0  0  0
 82 83  2  0  0  0  0
 83 84  1  0  0  0  0
 84 85  2  0  0  0  0
 85 86  1  0  0  0  0
 86 87  1  0  0  0  0
 86 88  2  0  0  0  0
 88 89  1  0  0  0  0
 85 90  1  0  0  0  0
 90 91  2  0  0  0  0
 91 92  1  0  0  0  0
 92 93  2  0  0  0  0
 92 94  1  0  0  0  0
 94 95  2  0  0  0  0
 95 96  1  0  0  0  0
 96 97  1  0  0  0  0
 96 98  2  0  0  0  0
 98 99  1  0  0  0  0
 98100  1  0  0  0  0
100101  2  0  0  0  0
101102  1  0  0  0  0
102103  2  0  0  0  0
 11  2  1  0  0  0  0
 23 17  1  0  0  0  0
 37 24  1  0  0  0  0
 81 40  1  0  0  0  0
 88 82  1  0  0  0  0
102 91  1  0  0  0  0
 10  5  1  0  0  0  0
 22 18  1  0  0  0  0
 37 30  1  0  0  0  0
 50 43  1  0  0  0  0
 58 51  1  0  0  0  0
 80 59  2  0  0  0  0
101 94  1  0  0  0  0
 23  7  1  0  0  0  0
 71 64  1  0  0  0  0
 79 72  1  0  0  0  0
  1104  1  0  0  0  0
  6105  1  0  0  0  0
  9106  1  0  0  0  0
 17107  1  0  0  0  0
 18108  1  0  0  0  0
 19109  1  0  0  0  0
 20110  1  0  0  0  0
 21111  1  0  0  0  0
 22112  1  0  0  0  0
 22113  1  0  0  0  0
 23114  1  0  0  0  0
 33115  1  0  0  0  0
 33116  1  0  0  0  0
 34117  1  0  0  0  0
 34118  1  0  0  0  0
 34119  1  0  0  0  0
 38120  1  0  0  0  0
 38121  1  0  0  0  0
 39122  1  0  0  0  0
 39123  1  0  0  0  0
 39124  1  0  0  0  0
 44125  1  0  0  0  0
 45126  1  0  0  0  0
 48127  1  0  0  0  0
 48128  1  0  0  0  0
 48129  1  0  0  0  0
 49130  1  0  0  0  0
 50131  1  0  0  0  0
 52132  1  0  0  0  0
 53133  1  0  0  0  0
 56134  1  0  0  0  0
 56135  1  0  0  0  0
 56136  1  0  0  0  0
 57137  1  0  0  0  0
 58138  1  0  0  0  0
 65139  1  0  0  0  0
 66140  1  0  0  0  0
 69141  1  0  0  0  0
 69142  1  0  0  0  0
 69143  1  0  0  0  0
 70144  1  0  0  0  0
 71145  1  0  0  0  0
 73146  1  0  0  0  0
 74147  1  0  0  0  0
 77148  1  0  0  0  0
 77149  1  0  0  0  0
 77150  1  0  0  0  0
 78151  1  0  0  0  0
 79152  1  0  0  0  0
 83153  1  0  0  0  0
 84154  1  0  0  0  0
 90155  1  0  0  0  0
 95156  1  0  0  0  0
100157  1  0  0  0  0
M  END
