
  xtb     02122223403D
 energy: -291.544945117950 gnorm: 0.000467469549 xtb: 6.4.1 (unknown)
170190  0     0  0            999 V2000
   -0.7615   -1.5963   -5.0620 C   0  0  0  0  0  0  0  0  0  0  0  0
   -1.9543   -1.9901   -4.4953 C   0  0  0  0  0  0  0  0  0  0  0  0
   -2.1439   -2.7496   -3.2544 C   0  0  0  0  0  0  0  0  0  0  0  0
   -1.3366   -3.4671   -2.6858 O   0  0  0  0  0  0  0  0  0  0  0  0
   -3.5331   -2.5108   -2.8318 C   0  0  0  0  0  0  0  0  0  0  0  0
   -4.1350   -2.9327   -1.6510 C   0  0  0  0  0  0  0  0  0  0  0  0
   -5.4149   -2.4651   -1.4797 C   0  0  0  0  0  0  0  0  0  0  0  0
   -6.0484   -1.6336   -2.4120 C   0  0  0  0  0  0  0  0  0  0  0  0
   -5.4819   -1.2498   -3.6065 C   0  0  0  0  0  0  0  0  0  0  0  0
   -4.1831   -1.7236   -3.8024 C   0  0  0  0  0  0  0  0  0  0  0  0
   -3.2642   -1.5529   -4.9283 C   0  0  0  0  0  0  0  0  0  0  0  0
   -3.6275   -1.1712   -6.1950 C   0  0  0  0  0  0  0  0  0  0  0  0
   -2.8014   -1.3244   -7.3232 C   0  0  0  0  0  0  0  0  0  0  0  0
   -2.2151   -1.5167   -8.2925 N   0  0  0  0  0  0  0  0  0  0  0  0
   -4.9181   -0.7301   -6.5477 C   0  0  0  0  0  0  0  0  0  0  0  0
   -5.9466   -0.3515   -6.8911 N   0  0  0  0  0  0  0  0  0  0  0  0
   -7.2829   -1.4873   -1.5575 C   0  0  0  0  0  0  0  0  0  0  0  0
   -7.4409   -0.1817   -0.7363 C   0  0  0  0  0  0  0  0  0  0  0  0
   -6.0500    0.3326   -0.4585 C   0  0  0  0  0  0  0  0  0  0  0  0
   -5.4776   -0.4862    0.4144 C   0  0  0  0  0  0  0  0  0  0  0  0
   -6.4731   -1.5734    0.7383 C   0  0  0  0  0  0  0  0  0  0  0  0
   -7.7858   -0.7811    0.6367 C   0  0  0  0  0  0  0  0  0  0  0  0
   -6.5912   -2.4440   -0.5357 C   0  0  0  0  0  0  0  0  0  0  0  0
    0.5264   -1.6915   -4.5243 C   0  0  0  0  0  0  0  0  0  0  0  0
    1.6448   -0.9375   -4.9709 C   0  0  0  0  0  0  0  0  0  0  0  0
    1.7206   -0.1884   -6.1155 N   0  0  0  0  0  0  0  0  0  0  0  0
    1.1971   -0.5886   -7.3533 C   0  0  0  0  0  0  0  0  0  0  0  0
    0.8363    0.3830   -8.2873 C   0  0  0  0  0  0  0  0  0  0  0  0
    0.3636    0.0128   -9.5258 C   0  0  0  0  0  0  0  0  0  0  0  0
    0.2275   -1.3327   -9.8527 C   0  0  0  0  0  0  0  0  0  0  0  0
   -0.3969   -1.7299  -11.4511 S   0  0  0  0  0  0  0  0  0  0  0  0
   -1.2820   -3.2839  -11.1266 C   0  0  0  0  0  0  0  0  0  0  0  0
    0.5979   -2.3031   -8.9289 C   0  0  0  0  0  0  0  0  0  0  0  0
    1.0801   -1.9350   -7.6910 C   0  0  0  0  0  0  0  0  0  0  0  0
    2.5384    0.9650   -6.0779 C   0  0  0  0  0  0  0  0  0  0  0  0
    3.5401    1.1638   -7.0261 C   0  0  0  0  0  0  0  0  0  0  0  0
    4.3853    2.2448   -6.9172 C   0  0  0  0  0  0  0  0  0  0  0  0
    4.2541    3.1448   -5.8595 C   0  0  0  0  0  0  0  0  0  0  0  0
    5.4344    4.4491   -5.7681 S   0  0  0  0  0  0  0  0  0  0  0  0
    5.3529    4.9736   -4.0320 C   0  0  0  0  0  0  0  0  0  0  0  0
    3.2194    2.9795   -4.9469 C   0  0  0  0  0  0  0  0  0  0  0  0
    2.3674    1.8988   -5.0600 C   0  0  0  0  0  0  0  0  0  0  0  0
    2.6644   -0.9384   -3.9974 C   0  0  0  0  0  0  0  0  0  0  0  0
    4.1853   -0.1077   -3.8153 S   0  0  0  0  0  0  0  0  0  0  0  0
    4.3057   -0.6628   -2.1522 C   0  0  0  0  0  0  0  0  0  0  0  0
    3.3168   -1.5907   -1.8367 C   0  0  0  0  0  0  0  0  0  0  0  0
    3.1920   -2.2170   -0.6091 N   0  0  0  0  0  0  0  0  0  0  0  0
    4.2680   -2.8991   -0.0349 C   0  0  0  0  0  0  0  0  0  0  0  0
    4.3129   -3.1069    1.3462 C   0  0  0  0  0  0  0  0  0  0  0  0
    5.3778   -3.7663    1.9147 C   0  0  0  0  0  0  0  0  0  0  0  0
    6.4318   -4.2271    1.1267 C   0  0  0  0  0  0  0  0  0  0  0  0
    7.7415   -5.0543    1.9721 S   0  0  0  0  0  0  0  0  0  0  0  0
    8.9311   -5.4517    0.6599 C   0  0  0  0  0  0  0  0  0  0  0  0
    6.3944   -4.0183   -0.2450 C   0  0  0  0  0  0  0  0  0  0  0  0
    5.3216   -3.3635   -0.8175 C   0  0  0  0  0  0  0  0  0  0  0  0
    1.8921   -2.3150   -0.0765 C   0  0  0  0  0  0  0  0  0  0  0  0
    1.3946   -3.5164    0.4121 C   0  0  0  0  0  0  0  0  0  0  0  0
    0.1027   -3.5934    0.8948 C   0  0  0  0  0  0  0  0  0  0  0  0
   -0.7112   -2.4699    0.8823 C   0  0  0  0  0  0  0  0  0  0  0  0
   -2.3755   -2.4578    1.4646 S   0  0  0  0  0  0  0  0  0  0  0  0
   -2.7388   -4.2077    1.7954 C   0  0  0  0  0  0  0  0  0  0  0  0
   -0.2144   -1.2606    0.4025 C   0  0  0  0  0  0  0  0  0  0  0  0
    1.0760   -1.1840   -0.0688 C   0  0  0  0  0  0  0  0  0  0  0  0
    2.3804   -1.7183   -2.8853 C   0  0  0  0  0  0  0  0  0  0  0  0
    0.8621   -2.5207   -2.9984 S   0  0  0  0  0  0  0  0  0  0  0  0
    5.0526    0.0915   -1.2141 C   0  0  0  0  0  0  0  0  0  0  0  0
    4.6127   -0.0287    0.4855 S   0  0  0  0  0  0  0  0  0  0  0  0
    5.4075    1.4638    0.8104 C   0  0  0  0  0  0  0  0  0  0  0  0
    5.2838    2.2626    1.9506 C   0  0  0  0  0  0  0  0  0  0  0  0
    5.8521    3.5359    1.9374 C   0  0  0  0  0  0  0  0  0  0  0  0
    6.6212    3.9690    0.9188 O   0  0  0  0  0  0  0  0  0  0  0  0
    6.7469    3.2585   -0.2567 C   0  0  0  0  0  0  0  0  0  0  0  0
    7.3731    3.7593   -1.1553 O   0  0  0  0  0  0  0  0  0  0  0  0
    6.0705    1.9711   -0.3091 C   0  0  0  0  0  0  0  0  0  0  0  0
    5.8669    1.1761   -1.4513 C   0  0  0  0  0  0  0  0  0  0  0  0
    5.4459    4.3301    3.0204 C   0  0  0  0  0  0  0  0  0  0  0  0
    4.5417    3.6814    3.8343 C   0  0  0  0  0  0  0  0  0  0  0  0
    4.2602    2.0357    3.3193 S   0  0  0  0  0  0  0  0  0  0  0  0
    3.6988    4.2328    4.8383 C   0  0  0  0  0  0  0  0  0  0  0  0
    3.7314    5.4718    5.4364 C   0  0  0  0  0  0  0  0  0  0  0  0
    2.5999    5.7545    6.2190 C   0  0  0  0  0  0  0  0  0  0  0  0
    2.4103    7.0339    6.9074 C   0  0  0  0  0  0  0  0  0  0  0  0
    2.0763    7.0847    8.2580 C   0  0  0  0  0  0  0  0  0  0  0  0
    1.9190    8.3043    8.8895 C   0  0  0  0  0  0  0  0  0  0  0  0
    2.0869    9.4826    8.1808 C   0  0  0  0  0  0  0  0  0  0  0  0
    2.4214    9.4382    6.8374 C   0  0  0  0  0  0  0  0  0  0  0  0
    2.5884    8.2216    6.2028 C   0  0  0  0  0  0  0  0  0  0  0  0
    1.6517    4.7391    6.1719 C   0  0  0  0  0  0  0  0  0  0  0  0
    2.2468    3.3777    5.2613 S   0  0  0  0  0  0  0  0  0  0  0  0
    0.3201    4.7526    6.6671 C   0  0  0  0  0  0  0  0  0  0  0  0
   -0.7562    4.1175    6.1322 C   0  0  0  0  0  0  0  0  0  0  0  0
   -1.9799    3.8900    6.9507 C   0  0  0  0  0  0  0  0  0  0  0  0
   -2.2396    4.3997    8.0171 O   0  0  0  0  0  0  0  0  0  0  0  0
   -2.7635    2.8827    6.2100 C   0  0  0  0  0  0  0  0  0  0  0  0
   -3.9554    2.2801    6.6093 C   0  0  0  0  0  0  0  0  0  0  0  0
   -4.4668    1.3876    5.6981 C   0  0  0  0  0  0  0  0  0  0  0  0
   -3.8378    1.1035    4.4773 C   0  0  0  0  0  0  0  0  0  0  0  0
   -2.6617    1.6852    4.0704 C   0  0  0  0  0  0  0  0  0  0  0  0
   -2.1306    2.6047    4.9788 C   0  0  0  0  0  0  0  0  0  0  0  0
   -0.9692    3.4779    4.8478 C   0  0  0  0  0  0  0  0  0  0  0  0
   -0.3907    3.8432    3.6591 C   0  0  0  0  0  0  0  0  0  0  0  0
   -0.6275    3.2066    2.4257 C   0  0  0  0  0  0  0  0  0  0  0  0
   -0.7400    2.7046    1.3987 N   0  0  0  0  0  0  0  0  0  0  0  0
    0.4638    4.9579    3.5260 C   0  0  0  0  0  0  0  0  0  0  0  0
    1.1036    5.8970    3.3603 N   0  0  0  0  0  0  0  0  0  0  0  0
   -4.9072    0.1268    4.0610 C   0  0  0  0  0  0  0  0  0  0  0  0
   -4.5890   -1.3831    4.1750 C   0  0  0  0  0  0  0  0  0  0  0  0
   -3.5553   -1.5229    5.2637 C   0  0  0  0  0  0  0  0  0  0  0  0
   -4.1478   -1.2602    6.4208 C   0  0  0  0  0  0  0  0  0  0  0  0
   -5.5936   -0.9371    6.1344 C   0  0  0  0  0  0  0  0  0  0  0  0
   -5.8428   -1.8559    4.9271 C   0  0  0  0  0  0  0  0  0  0  0  0
   -5.6066    0.4384    5.4216 C   0  0  0  0  0  0  0  0  0  0  0  0
   -0.8295   -1.0155   -5.9761 H   0  0  0  0  0  0  0  0  0  0  0  0
   -3.6052   -3.5579   -0.9523 H   0  0  0  0  0  0  0  0  0  0  0  0
   -5.9851   -0.6233   -4.3248 H   0  0  0  0  0  0  0  0  0  0  0  0
   -8.2215   -1.8060   -2.0067 H   0  0  0  0  0  0  0  0  0  0  0  0
   -8.1410    0.5333   -1.1603 H   0  0  0  0  0  0  0  0  0  0  0  0
   -5.6163    1.1817   -0.9535 H   0  0  0  0  0  0  0  0  0  0  0  0
   -4.4701   -0.4677    0.7867 H   0  0  0  0  0  0  0  0  0  0  0  0
   -6.2966   -2.1326    1.6536 H   0  0  0  0  0  0  0  0  0  0  0  0
   -8.6742   -1.4113    0.6243 H   0  0  0  0  0  0  0  0  0  0  0  0
   -7.8848   -0.0235    1.4135 H   0  0  0  0  0  0  0  0  0  0  0  0
   -7.0650   -3.4052   -0.3447 H   0  0  0  0  0  0  0  0  0  0  0  0
    0.9198    1.4282   -8.0292 H   0  0  0  0  0  0  0  0  0  0  0  0
    0.0757    0.7624  -10.2459 H   0  0  0  0  0  0  0  0  0  0  0  0
   -1.9723   -3.4165  -11.9536 H   0  0  0  0  0  0  0  0  0  0  0  0
   -1.8261   -3.1749  -10.1939 H   0  0  0  0  0  0  0  0  0  0  0  0
   -0.5887   -4.1195  -11.0901 H   0  0  0  0  0  0  0  0  0  0  0  0
    0.5207   -3.3508   -9.1711 H   0  0  0  0  0  0  0  0  0  0  0  0
    1.3753   -2.6936   -6.9811 H   0  0  0  0  0  0  0  0  0  0  0  0
    3.6643    0.4529   -7.8289 H   0  0  0  0  0  0  0  0  0  0  0  0
    5.1771    2.3928   -7.6347 H   0  0  0  0  0  0  0  0  0  0  0  0
    4.4394    5.5304   -3.8439 H   0  0  0  0  0  0  0  0  0  0  0  0
    6.2133    5.6172   -3.8786 H   0  0  0  0  0  0  0  0  0  0  0  0
    5.4321    4.1066   -3.3836 H   0  0  0  0  0  0  0  0  0  0  0  0
    3.0717    3.6824   -4.1430 H   0  0  0  0  0  0  0  0  0  0  0  0
    1.5708    1.7639   -4.3422 H   0  0  0  0  0  0  0  0  0  0  0  0
    3.5109   -2.7367    1.9661 H   0  0  0  0  0  0  0  0  0  0  0  0
    5.4133   -3.9250    2.9815 H   0  0  0  0  0  0  0  0  0  0  0  0
    9.2764   -4.5390    0.1830 H   0  0  0  0  0  0  0  0  0  0  0  0
    8.4808   -6.1296   -0.0594 H   0  0  0  0  0  0  0  0  0  0  0  0
    9.7608   -5.9432    1.1585 H   0  0  0  0  0  0  0  0  0  0  0  0
    7.1890   -4.3657   -0.8851 H   0  0  0  0  0  0  0  0  0  0  0  0
    5.3009   -3.2189   -1.8874 H   0  0  0  0  0  0  0  0  0  0  0  0
    2.0177   -4.3980    0.4039 H   0  0  0  0  0  0  0  0  0  0  0  0
   -0.2551   -4.5402    1.2652 H   0  0  0  0  0  0  0  0  0  0  0  0
   -2.5110   -4.8030    0.9159 H   0  0  0  0  0  0  0  0  0  0  0  0
   -3.8022   -4.2572    2.0103 H   0  0  0  0  0  0  0  0  0  0  0  0
   -2.1744   -4.5511    2.6579 H   0  0  0  0  0  0  0  0  0  0  0  0
   -0.8451   -0.3846    0.4067 H   0  0  0  0  0  0  0  0  0  0  0  0
    1.4615   -0.2448   -0.4370 H   0  0  0  0  0  0  0  0  0  0  0  0
    6.2575    1.4210   -2.4222 H   0  0  0  0  0  0  0  0  0  0  0  0
    5.7480    5.3514    3.1512 H   0  0  0  0  0  0  0  0  0  0  0  0
    4.5482    6.1600    5.3171 H   0  0  0  0  0  0  0  0  0  0  0  0
    1.9660    6.1674    8.8181 H   0  0  0  0  0  0  0  0  0  0  0  0
    1.6649    8.3354    9.9386 H   0  0  0  0  0  0  0  0  0  0  0  0
    1.9582   10.4337    8.6755 H   0  0  0  0  0  0  0  0  0  0  0  0
    2.5525   10.3550    6.2820 H   0  0  0  0  0  0  0  0  0  0  0  0
    2.8310    8.1803    5.1516 H   0  0  0  0  0  0  0  0  0  0  0  0
    0.1344    5.3008    7.5841 H   0  0  0  0  0  0  0  0  0  0  0  0
   -4.4122    2.5299    7.5541 H   0  0  0  0  0  0  0  0  0  0  0  0
   -2.1818    1.4519    3.1343 H   0  0  0  0  0  0  0  0  0  0  0  0
   -5.4381    0.3692    3.1425 H   0  0  0  0  0  0  0  0  0  0  0  0
   -4.3499   -1.8598    3.2294 H   0  0  0  0  0  0  0  0  0  0  0  0
   -2.5186   -1.7328    5.0771 H   0  0  0  0  0  0  0  0  0  0  0  0
   -3.7058   -1.2086    7.3987 H   0  0  0  0  0  0  0  0  0  0  0  0
   -6.2790   -1.0171    6.9742 H   0  0  0  0  0  0  0  0  0  0  0  0
   -5.8064   -2.9126    5.1892 H   0  0  0  0  0  0  0  0  0  0  0  0
   -6.7725   -1.6377    4.4027 H   0  0  0  0  0  0  0  0  0  0  0  0
   -6.6002    0.8817    5.3954 H   0  0  0  0  0  0  0  0  0  0  0  0
  1  2  2  0  0  0  0
  2  3  1  0  0  0  0
  3  4  2  0  0  0  0
  3  5  1  0  0  0  0
  5  6  2  0  0  0  0
  6  7  1  0  0  0  0
  7  8  2  0  0  0  0
  8  9  1  0  0  0  0
  9 10  2  0  0  0  0
 10 11  1  0  0  0  0
 11 12  2  0  0  0  0
 12 13  1  0  0  0  0
 13 14  3  0  0  0  0
 12 15  1  0  0  0  0
 15 16  3  0  0  0  0
  8 17  1  0  0  0  0
 17 18  1  0  0  0  0
 18 19  1  0  0  0  0
 19 20  2  0  0  0  0
 20 21  1  0  0  0  0
 21 22  1  0  0  0  0
 21 23  1  0  0  0  0
  1 24  1  0  0  0  0
 24 25  2  0  0  0  0
 25 26  1  0  0  0  0
 26 27  1  0  0  0  0
 27 28  2  0  0  0  0
 28 29  1  0  0  0  0
 29 30  2  0  0  0  0
 30 31  1  0  0  0  0
 31 32  1  0  0  0  0
 30 33  1  0  0  0  0
 33 34  2  0  0  0  0
 26 35  1  0  0  0  0
 35 36  2  0  0  0  0
 36 37  1  0  0  0  0
 37 38  2  0  0  0  0
 38 39  1  0  0  0  0
 39 40  1  0  0  0  0
 38 41  1  0  0  0  0
 41 42  2  0  0  0  0
 25 43  1  0  0  0  0
 43 44  1  0  0  0  0
 44 45  1  0  0  0  0
 45 46  2  0  0  0  0
 46 47  1  0  0  0  0
 47 48  1  0  0  0  0
 48 49  2  0  0  0  0
 49 50  1  0  0  0  0
 50 51  2  0  0  0  0
 51 52  1  0  0  0  0
 52 53  1  0  0  0  0
 51 54  1  0  0  0  0
 54 55  2  0  0  0  0
 47 56  1  0  0  0  0
 56 57  2  0  0  0  0
 57 58  1  0  0  0  0
 58 59  2  0  0  0  0
 59 60  1  0  0  0  0
 60 61  1  0  0  0  0
 59 62  1  0  0  0  0
 62 63  2  0  0  0  0
 46 64  1  0  0  0  0
 64 65  1  0  0  0  0
 45 66  1  0  0  0  0
 66 67  1  0  0  0  0
 67 68  1  0  0  0  0
 68 69  1  0  0  0  0
 69 70  2  0  0  0  0
 70 71  1  0  0  0  0
 71 72  1  0  0  0  0
 72 73  2  0  0  0  0
 72 74  1  0  0  0  0
 74 75  1  0  0  0  0
 70 76  1  0  0  0  0
 76 77  2  0  0  0  0
 77 78  1  0  0  0  0
 77 79  1  0  0  0  0
 79 80  2  0  0  0  0
 80 81  1  0  0  0  0
 81 82  1  0  0  0  0
 82 83  2  0  0  0  0
 83 84  1  0  0  0  0
 84 85  2  0  0  0  0
 85 86  1  0  0  0  0
 86 87  2  0  0  0  0
 81 88  2  0  0  0  0
 88 89  1  0  0  0  0
 88 90  1  0  0  0  0
 90 91  2  0  0  0  0
 91 92  1  0  0  0  0
 92 93  2  0  0  0  0
 92 94  1  0  0  0  0
 94 95  2  0  0  0  0
 95 96  1  0  0  0  0
 96 97  2  0  0  0  0
 97 98  1  0  0  0  0
 98 99  2  0  0  0  0
 99100  1  0  0  0  0
100101  2  0  0  0  0
101102  1  0  0  0  0
102103  3  0  0  0  0
101104  1  0  0  0  0
104105  3  0  0  0  0
 97106  1  0  0  0  0
106107  1  0  0  0  0
107108  1  0  0  0  0
108109  2  0  0  0  0
109110  1  0  0  0  0
110111  1  0  0  0  0
110112  1  0  0  0  0
 11  2  1  0  0  0  0
 23 17  1  0  0  0  0
 65 24  1  0  0  0  0
 75 66  2  0  0  0  0
 89 79  1  0  0  0  0
100 91  1  0  0  0  0
112106  1  0  0  0  0
 10  5  1  0  0  0  0
 22 18  1  0  0  0  0
 34 27  1  0  0  0  0
 42 35  1  0  0  0  0
 64 43  2  0  0  0  0
 74 68  2  0  0  0  0
 87 82  1  0  0  0  0
 99 94  1  0  0  0  0
111107  1  0  0  0  0
 23  7  1  0  0  0  0
 55 48  1  0  0  0  0
 63 56  1  0  0  0  0
 78 69  1  0  0  0  0
112 96  1  0  0  0  0
  1113  1  0  0  0  0
  6114  1  0  0  0  0
  9115  1  0  0  0  0
 17116  1  0  0  0  0
 18117  1  0  0  0  0
 19118  1  0  0  0  0
 20119  1  0  0  0  0
 21120  1  0  0  0  0
 22121  1  0  0  0  0
 22122  1  0  0  0  0
 23123  1  0  0  0  0
 28124  1  0  0  0  0
 29125  1  0  0  0  0
 32126  1  0  0  0  0
 32127  1  0  0  0  0
 32128  1  0  0  0  0
 33129  1  0  0  0  0
 34130  1  0  0  0  0
 36131  1  0  0  0  0
 37132  1  0  0  0  0
 40133  1  0  0  0  0
 40134  1  0  0  0  0
 40135  1  0  0  0  0
 41136  1  0  0  0  0
 42137  1  0  0  0  0
 49138  1  0  0  0  0
 50139  1  0  0  0  0
 53140  1  0  0  0  0
 53141  1  0  0  0  0
 53142  1  0  0  0  0
 54143  1  0  0  0  0
 55144  1  0  0  0  0
 57145  1  0  0  0  0
 58146  1  0  0  0  0
 61147  1  0  0  0  0
 61148  1  0  0  0  0
 61149  1  0  0  0  0
 62150  1  0  0  0  0
 63151  1  0  0  0  0
 75152  1  0  0  0  0
 76153  1  0  0  0  0
 80154  1  0  0  0  0
 83155  1  0  0  0  0
 84156  1  0  0  0  0
 85157  1  0  0  0  0
 86158  1  0  0  0  0
 87159  1  0  0  0  0
 90160  1  0  0  0  0
 95161  1  0  0  0  0
 98162  1  0  0  0  0
106163  1  0  0  0  0
107164  1  0  0  0  0
108165  1  0  0  0  0
109166  1  0  0  0  0
110167  1  0  0  0  0
111168  1  0  0  0  0
111169  1  0  0  0  0
112170  1  0  0  0  0
M  END
