192

C         -6.24290       -2.75420       -1.55500
C         -6.86160       -3.00510       -2.75910
C         -6.61920       -2.31020       -4.02330
O         -5.81740       -1.41480       -4.24520
C         -7.58520       -2.85830       -4.99100
C         -7.70760       -2.52430       -6.33790
C         -8.70520       -3.20510       -6.99390
C         -9.52580       -4.14310       -6.35510
C         -9.41120       -4.48600       -5.02810
C         -8.39610       -3.81210       -4.34370
C         -7.94740       -3.93700       -2.95620
C         -8.45530       -4.82260       -2.03560
C         -7.94390       -5.04600       -0.74270
N         -7.57190       -5.31810        0.31110
C         -9.55350       -5.67420       -2.27000
N        -10.44820       -6.38550       -2.38510
C        -10.29790       -4.44560       -7.61530
C         -9.94490       -5.76390       -8.33580
C        -10.47590       -5.56500       -9.73700
C         -9.69440       -4.68030      -10.34290
C         -8.62190       -4.26610       -9.36120
C         -8.44350       -5.58320       -8.59500
C         -9.37870       -3.40310       -8.32920
C         -5.14890       -1.94520       -1.25380
C         -4.63060       -1.79650        0.05690
N         -5.23500       -2.23100        1.20670
C         -6.62470       -2.17280        1.40430
C         -7.38130       -1.13920        0.85830
C         -8.74600       -1.08580        1.05840
C         -9.37630       -2.06020        1.82320
S        -11.10840       -2.10000        2.14870
C        -11.75170       -0.62670        1.30380
C         -8.61740       -3.08380        2.38750
C         -7.25800       -3.14450        2.17990
C         -4.42120       -2.62460        2.28560
C         -3.36910       -3.51000        2.07390
C         -2.57680       -3.92120        3.12670
C         -2.82520       -3.44640        4.40770
S         -1.85900       -3.89480        5.81730
C         -1.10010       -5.47000        5.31920
C         -3.87140       -2.55130        4.62050
C         -4.66610       -2.14680        3.57170
C         -3.40440       -1.10800        0.04040
S         -2.27490       -0.63230        1.26920
C         -1.35240        0.25160        0.07680
C         -1.81680        0.07370       -1.22200
N         -1.15820        0.48030       -2.36290
C          0.23760        0.59560       -2.39520
C          1.05370       -0.31180       -1.71550
C          2.41520       -0.12010       -1.66930
C          3.00120        0.96930       -2.31390
S          4.74770        1.14230       -2.13030
C          5.14920        2.60660       -3.12350
C          2.20100        1.83980       -3.04060
C          0.83280        1.65190       -3.07940
C         -1.91050        0.73480       -3.52140
C         -3.10760        1.43940       -3.43350
C         -3.90910        1.59560       -4.54540
C         -3.52100        1.04820       -5.76020
S         -4.53910        1.13050       -7.19920
C         -6.20280        1.14500       -6.46490
C         -2.28820        0.41110       -5.86850
C         -1.48750        0.25370       -4.75890
C         -3.01520       -0.68530       -1.22590
S         -4.15030       -1.12180       -2.45280
C         -0.20820        1.01990        0.48750
C          0.09880        2.24960       -0.07070
F         -0.77020        2.83780       -0.91310
C          1.28540        2.92430        0.22860
F          1.52450        4.09540       -0.38550
C          2.19670        2.43010        1.13910
C          1.89380        1.18930        1.76750
N          2.76970        0.64290        2.62320
C          2.49850       -0.50840        3.18650
C          3.54870       -1.03410        4.11840
C          4.43700       -2.07170        3.42940
C          1.28910       -1.19370        2.87870
N          0.43430       -0.67760        2.02960
C          0.69640        0.50460        1.45780
C          0.92650       -2.54840        3.40780
C          0.97980       -3.56500        2.26430
C          3.44690        3.07560        1.45740
S          4.53680        3.61490        0.23800
C          5.79950        3.88170        1.40750
C          5.34620        3.62840        2.69010
C          6.10960        3.88810        3.92880
O          7.05590        4.64900        3.98750
C          5.54740        3.17110        5.07840
C          6.21560        2.90560        6.24380
C          7.64630        3.14360        6.56480
C          8.45760        1.87510        6.28640
S          5.19880        2.05400        7.36050
C          3.84700        2.10420        6.27820
C          2.52980        1.55310        6.68920
C          1.69610        2.62700        7.39420
C          4.18810        2.71440        5.10050
C          3.27820        2.90720        3.96880
O          2.06410        2.88930        4.05530
C          4.00880        3.17320        2.71660
C          7.07960        4.28950        0.93910
C          8.27820        3.89240        1.43900
C          8.49270        2.75750        2.37690
O          7.65770        2.06810        2.92580
C          9.95140        2.57340        2.45080
C         10.63240        1.59920        3.17920
C         11.99940        1.67230        3.07400
C         12.64800        2.63930        2.29310
C         11.99040        3.60060        1.56410
C         10.59610        3.54570        1.65910
C          9.58260        4.38320        1.02730
C          9.82690        5.46960        0.23050
C         11.11300        5.93180       -0.12200
N         12.12300        6.36110       -0.45860
C          8.84300        6.29160       -0.36050
N          8.11530        7.00810       -0.88570
C         14.01820        2.11060        2.63430
C         14.74620        1.25480        1.56810
C         13.67210        0.61900        0.72080
C         13.05930       -0.29450        1.46170
C         13.70820       -0.29300        2.82390
C         15.15430        0.05260        2.43470
C         13.29620        1.03520        3.50610
H         -6.64710       -3.27930       -0.69930
H         -7.05080       -1.80050       -6.79400
H        -10.04900       -5.21300       -4.55430
H        -11.36870       -4.25520       -7.57520
H        -10.25940       -6.66450       -7.81560
H        -11.36800       -6.03120      -10.11220
H         -9.80300       -4.25990      -11.32550
H         -7.73070       -3.80310       -9.77640
H         -7.84450       -5.49340       -7.69070
H         -8.03660       -6.37320       -9.22400
H         -9.83690       -2.51880       -8.76880
H         -6.89750       -0.37290        0.27080
H         -9.30260       -0.27320        0.62030
H        -11.57180       -0.70060        0.23520
H        -12.81990       -0.62510        1.49700
H        -11.30090        0.26880        1.72140
H         -9.11050       -3.84000        2.97740
H         -6.68170       -3.94990        2.60570
H         -3.18150       -3.88580        1.07900
H         -1.77430       -4.61470        2.93760
H         -0.28330       -5.29660        4.62520
H         -0.71520       -5.91330        6.23210
H         -1.85780       -6.11430        4.88450
H         -4.05160       -2.18020        5.61740
H         -5.48080       -1.45910        3.73980
H          0.61260       -1.15970       -1.21310
H          3.04560       -0.81200       -1.13170
H          4.89250        2.42860       -4.16360
H          6.22230        2.73940       -3.02690
H          4.63420        3.47740       -2.72830
H          2.62280        2.68230       -3.56290
H          0.21090        2.34960       -3.61940
H         -3.40490        1.86440       -2.48660
H         -4.83520        2.13930       -4.45440
H         -6.45590        2.14210       -6.11530
H         -6.22510        0.42260       -5.65350
H         -6.88670        0.85580       -7.25720
H         -1.98140        0.01540       -6.82440
H         -0.54590       -0.26990       -4.83480
H          4.16770       -0.18900        4.42240
H          3.08480       -1.46660        5.00670
H          4.90890       -1.63190        2.55420
H          3.86110       -2.93890        3.11650
H          5.21600       -2.40230        4.11180
H         -0.09380       -2.50010        3.79260
H          1.59480       -2.84770        4.21330
H          1.96500       -3.57430        1.80180
H          0.76740       -4.56790        2.62770
H          0.24710       -3.29960        1.50700
H          7.75130        3.42670        7.61430
H          8.01200        3.95750        5.93810
H          9.51460        2.06110        6.45940
H          8.13210        1.06310        6.93400
H          8.31330        1.57730        5.25070
H          1.99210        1.22200        5.79850
H          2.67800        0.70400        7.35990
H          0.74970        2.20520        7.72140
H          1.49380        3.44280        6.70550
H          2.22640        3.01580        8.26100
H          7.06310        4.93540        0.06980
H         10.09900        0.86640        3.76390
H         12.50340        4.33350        0.96450
H         14.68760        2.80790        3.13370
H         15.53410        1.77670        1.03210
H         13.43820        0.92870       -0.28090
H         12.21050       -0.90000        1.20290
H         13.55160       -1.18050        3.43150
H         15.77990        0.32250        3.28430
H         15.63550       -0.73700        1.85950
H         13.49320        1.03090        4.57640
