
  xtb     02132217133D
 energy: -383.312030852061 gnorm: 0.000258170909 xtb: 6.4.1 (unknown)
227248  0     0  0            999 V2000
    3.3305    7.1907   -1.5207 C   0  0  0  0  0  0  0  0  0  0  0  0
    2.7212    8.2134   -2.2120 C   0  0  0  0  0  0  0  0  0  0  0  0
    1.6503    8.0868   -3.2002 C   0  0  0  0  0  0  0  0  0  0  0  0
    1.0275    7.0816   -3.5097 O   0  0  0  0  0  0  0  0  0  0  0  0
    1.4450    9.4300   -3.7671 C   0  0  0  0  0  0  0  0  0  0  0  0
    0.5420    9.7908   -4.7637 C   0  0  0  0  0  0  0  0  0  0  0  0
    0.5672   11.1273   -5.0823 C   0  0  0  0  0  0  0  0  0  0  0  0
    1.4330   12.0358   -4.4607 C   0  0  0  0  0  0  0  0  0  0  0  0
    2.3351   11.6898   -3.4818 C   0  0  0  0  0  0  0  0  0  0  0  0
    2.3209   10.3363   -3.1368 C   0  0  0  0  0  0  0  0  0  0  0  0
    3.0950    9.6073   -2.1313 C   0  0  0  0  0  0  0  0  0  0  0  0
    3.9731   10.1778   -1.2412 C   0  0  0  0  0  0  0  0  0  0  0  0
    4.5897    9.5157   -0.1622 C   0  0  0  0  0  0  0  0  0  0  0  0
    5.0930    9.0658    0.7689 N   0  0  0  0  0  0  0  0  0  0  0  0
    4.3414   11.5382   -1.2458 C   0  0  0  0  0  0  0  0  0  0  0  0
    4.7001   12.6285   -1.1991 N   0  0  0  0  0  0  0  0  0  0  0  0
    0.9057   13.2041   -5.2556 C   0  0  0  0  0  0  0  0  0  0  0  0
   -0.0693   14.1751   -4.5448 C   0  0  0  0  0  0  0  0  0  0  0  0
   -0.7553   13.3791   -3.4625 C   0  0  0  0  0  0  0  0  0  0  0  0
   -1.5753   12.5186   -4.0509 C   0  0  0  0  0  0  0  0  0  0  0  0
   -1.4584   12.7172   -5.5419 C   0  0  0  0  0  0  0  0  0  0  0  0
   -1.1921   14.2300   -5.5932 C   0  0  0  0  0  0  0  0  0  0  0  0
   -0.0594   12.1909   -5.9483 C   0  0  0  0  0  0  0  0  0  0  0  0
    3.0499    5.8253   -1.4834 C   0  0  0  0  0  0  0  0  0  0  0  0
    3.7395    4.9180   -0.6416 C   0  0  0  0  0  0  0  0  0  0  0  0
    4.8374    5.2017    0.1334 N   0  0  0  0  0  0  0  0  0  0  0  0
    5.9124    5.9696   -0.3310 C   0  0  0  0  0  0  0  0  0  0  0  0
    6.6669    6.7428    0.5533 C   0  0  0  0  0  0  0  0  0  0  0  0
    7.7256    7.4891    0.0877 C   0  0  0  0  0  0  0  0  0  0  0  0
    8.0498    7.4955   -1.2674 C   0  0  0  0  0  0  0  0  0  0  0  0
    9.4142    8.5068   -1.7425 S   0  0  0  0  0  0  0  0  0  0  0  0
    9.4415    8.3890   -3.5545 C   0  0  0  0  0  0  0  0  0  0  0  0
    7.3078    6.7187   -2.1489 C   0  0  0  0  0  0  0  0  0  0  0  0
    6.2554    5.9579   -1.6819 C   0  0  0  0  0  0  0  0  0  0  0  0
    4.8643    4.6629    1.4346 C   0  0  0  0  0  0  0  0  0  0  0  0
    3.7134    4.7201    2.2212 C   0  0  0  0  0  0  0  0  0  0  0  0
    3.7214    4.2126    3.4989 C   0  0  0  0  0  0  0  0  0  0  0  0
    4.8778    3.6383    4.0243 C   0  0  0  0  0  0  0  0  0  0  0  0
    4.7747    3.0519    5.6795 S   0  0  0  0  0  0  0  0  0  0  0  0
    6.2894    2.0770    5.8892 C   0  0  0  0  0  0  0  0  0  0  0  0
    6.0250    3.5795    3.2425 C   0  0  0  0  0  0  0  0  0  0  0  0
    6.0157    4.0845    1.9568 C   0  0  0  0  0  0  0  0  0  0  0  0
    3.1161    3.6576   -0.6422 C   0  0  0  0  0  0  0  0  0  0  0  0
    3.4608    2.1524    0.1436 S   0  0  0  0  0  0  0  0  0  0  0  0
    2.0808    1.4256   -0.6378 C   0  0  0  0  0  0  0  0  0  0  0  0
    1.4199    2.2841   -1.4967 C   0  0  0  0  0  0  0  0  0  0  0  0
    0.3616    1.9048   -2.3024 N   0  0  0  0  0  0  0  0  0  0  0  0
   -0.5915    2.8508   -2.6861 C   0  0  0  0  0  0  0  0  0  0  0  0
   -1.1661    2.8036   -3.9560 C   0  0  0  0  0  0  0  0  0  0  0  0
   -2.0102    3.8111   -4.3708 C   0  0  0  0  0  0  0  0  0  0  0  0
   -2.2893    4.8819   -3.5296 C   0  0  0  0  0  0  0  0  0  0  0  0
   -3.2752    6.2160   -4.1473 S   0  0  0  0  0  0  0  0  0  0  0  0
   -2.3879    7.6369   -3.4336 C   0  0  0  0  0  0  0  0  0  0  0  0
   -1.7879    4.8908   -2.2362 C   0  0  0  0  0  0  0  0  0  0  0  0
   -0.9492    3.8795   -1.8161 C   0  0  0  0  0  0  0  0  0  0  0  0
    0.3013    0.5847   -2.7762 C   0  0  0  0  0  0  0  0  0  0  0  0
   -0.8865   -0.1438   -2.7220 C   0  0  0  0  0  0  0  0  0  0  0  0
   -0.9023   -1.4730   -3.0863 C   0  0  0  0  0  0  0  0  0  0  0  0
    0.2612   -2.0998   -3.5269 C   0  0  0  0  0  0  0  0  0  0  0  0
    0.1706   -3.8221   -3.9097 S   0  0  0  0  0  0  0  0  0  0  0  0
    1.9118   -4.3352   -3.8741 C   0  0  0  0  0  0  0  0  0  0  0  0
    1.4286   -1.3580   -3.6532 C   0  0  0  0  0  0  0  0  0  0  0  0
    1.4453   -0.0303   -3.2783 C   0  0  0  0  0  0  0  0  0  0  0  0
    2.0214    3.5681   -1.4915 C   0  0  0  0  0  0  0  0  0  0  0  0
    1.7038    5.0487   -2.3230 S   0  0  0  0  0  0  0  0  0  0  0  0
    1.6556    0.0697   -0.3362 C   0  0  0  0  0  0  0  0  0  0  0  0
    2.4268   -1.0472   -0.5614 C   0  0  0  0  0  0  0  0  0  0  0  0
    3.6790   -0.9152   -1.0414 F   0  0  0  0  0  0  0  0  0  0  0  0
    1.9461   -2.3440   -0.3316 C   0  0  0  0  0  0  0  0  0  0  0  0
    2.7655   -3.3779   -0.6007 F   0  0  0  0  0  0  0  0  0  0  0  0
    0.6933   -2.5745    0.1871 C   0  0  0  0  0  0  0  0  0  0  0  0
   -0.1219   -1.4398    0.4493 C   0  0  0  0  0  0  0  0  0  0  0  0
   -1.3560   -1.6209    0.9447 N   0  0  0  0  0  0  0  0  0  0  0  0
   -2.1193   -0.5800    1.1691 C   0  0  0  0  0  0  0  0  0  0  0  0
   -3.4781   -0.8840    1.7292 C   0  0  0  0  0  0  0  0  0  0  0  0
   -4.2261   -1.8689    0.8305 C   0  0  0  0  0  0  0  0  0  0  0  0
   -1.6453    0.7367    0.8969 C   0  0  0  0  0  0  0  0  0  0  0  0
   -0.4399    0.9270    0.4211 N   0  0  0  0  0  0  0  0  0  0  0  0
    0.3463   -0.1349    0.1763 C   0  0  0  0  0  0  0  0  0  0  0  0
   -2.4752    1.9682    1.0961 C   0  0  0  0  0  0  0  0  0  0  0  0
   -3.4711    2.1474   -0.0529 C   0  0  0  0  0  0  0  0  0  0  0  0
    0.1819   -3.8840    0.5508 C   0  0  0  0  0  0  0  0  0  0  0  0
   -0.2497   -4.2160    1.8230 C   0  0  0  0  0  0  0  0  0  0  0  0
   -0.0731   -3.4433    2.9503 N   0  0  0  0  0  0  0  0  0  0  0  0
    1.0085   -2.5544    3.0453 C   0  0  0  0  0  0  0  0  0  0  0  0
    0.8210   -1.2780    3.5738 C   0  0  0  0  0  0  0  0  0  0  0  0
    1.8625   -0.3763    3.5935 C   0  0  0  0  0  0  0  0  0  0  0  0
    3.1135   -0.7334    3.0953 C   0  0  0  0  0  0  0  0  0  0  0  0
    4.3706    0.5028    3.1302 S   0  0  0  0  0  0  0  0  0  0  0  0
    5.6131   -0.1059    1.9540 C   0  0  0  0  0  0  0  0  0  0  0  0
    3.3214   -2.0230    2.6255 C   0  0  0  0  0  0  0  0  0  0  0  0
    2.2760   -2.9240    2.6029 C   0  0  0  0  0  0  0  0  0  0  0  0
   -0.9093   -3.6480    4.0599 C   0  0  0  0  0  0  0  0  0  0  0  0
   -2.2890   -3.7670    3.8925 C   0  0  0  0  0  0  0  0  0  0  0  0
   -3.0947   -4.0590    4.9715 C   0  0  0  0  0  0  0  0  0  0  0  0
   -2.5416   -4.2373    6.2377 C   0  0  0  0  0  0  0  0  0  0  0  0
   -3.6612   -4.6670    7.5300 S   0  0  0  0  0  0  0  0  0  0  0  0
   -2.5922   -4.9145    8.9767 C   0  0  0  0  0  0  0  0  0  0  0  0
   -1.1735   -4.0730    6.4157 C   0  0  0  0  0  0  0  0  0  0  0  0
   -0.3668   -3.7780    5.3347 C   0  0  0  0  0  0  0  0  0  0  0  0
   -0.8199   -5.5094    1.8270 C   0  0  0  0  0  0  0  0  0  0  0  0
   -1.5849   -6.4443    3.0463 S   0  0  0  0  0  0  0  0  0  0  0  0
   -1.8763   -7.7583    1.9039 C   0  0  0  0  0  0  0  0  0  0  0  0
   -1.4463   -7.4161    0.6003 C   0  0  0  0  0  0  0  0  0  0  0  0
   -1.6549   -8.1482   -0.5326 N   0  0  0  0  0  0  0  0  0  0  0  0
   -0.7718   -8.0358   -1.6219 C   0  0  0  0  0  0  0  0  0  0  0  0
   -1.2781   -7.9276   -2.9131 C   0  0  0  0  0  0  0  0  0  0  0  0
   -0.4267   -7.8461   -3.9954 C   0  0  0  0  0  0  0  0  0  0  0  0
    0.9480   -7.8716   -3.7984 C   0  0  0  0  0  0  0  0  0  0  0  0
    2.1212   -7.7859   -5.1160 S   0  0  0  0  0  0  0  0  0  0  0  0
    1.1405   -7.1596   -6.5108 C   0  0  0  0  0  0  0  0  0  0  0  0
    1.4578   -7.9863   -2.5058 C   0  0  0  0  0  0  0  0  0  0  0  0
    0.6081   -8.0681   -1.4251 C   0  0  0  0  0  0  0  0  0  0  0  0
   -2.7903   -8.9667   -0.6906 C   0  0  0  0  0  0  0  0  0  0  0  0
   -4.0468   -8.5197   -0.2854 C   0  0  0  0  0  0  0  0  0  0  0  0
   -5.1380   -9.3596   -0.3472 C   0  0  0  0  0  0  0  0  0  0  0  0
   -4.9926  -10.6542   -0.8346 C   0  0  0  0  0  0  0  0  0  0  0  0
   -6.3256  -11.8043   -0.8641 S   0  0  0  0  0  0  0  0  0  0  0  0
   -7.2721  -11.3063    0.6056 C   0  0  0  0  0  0  0  0  0  0  0  0
   -3.7570  -11.0700   -1.3237 C   0  0  0  0  0  0  0  0  0  0  0  0
   -2.6620  -10.2365   -1.2496 C   0  0  0  0  0  0  0  0  0  0  0  0
   -0.8034   -6.1528    0.5987 C   0  0  0  0  0  0  0  0  0  0  0  0
   -0.0507   -5.1659   -0.6125 S   0  0  0  0  0  0  0  0  0  0  0  0
   -2.5730   -8.8929    2.3271 C   0  0  0  0  0  0  0  0  0  0  0  0
   -3.0707   -9.1673    3.5812 C   0  0  0  0  0  0  0  0  0  0  0  0
   -4.3159   -9.9515    3.6872 C   0  0  0  0  0  0  0  0  0  0  0  0
   -4.8360  -10.6341    2.8245 O   0  0  0  0  0  0  0  0  0  0  0  0
   -4.8592   -9.6332    5.0254 C   0  0  0  0  0  0  0  0  0  0  0  0
   -6.0516   -9.9911    5.5829 C   0  0  0  0  0  0  0  0  0  0  0  0
   -6.3874   -9.5029    6.8676 C   0  0  0  0  0  0  0  0  0  0  0  0
   -7.6075   -9.8394    7.4873 C   0  0  0  0  0  0  0  0  0  0  0  0
   -7.9312   -9.3482    8.7221 C   0  0  0  0  0  0  0  0  0  0  0  0
   -7.0281   -8.4955    9.3694 C   0  0  0  0  0  0  0  0  0  0  0  0
   -7.3649   -8.0176   10.5834 F   0  0  0  0  0  0  0  0  0  0  0  0
   -5.8305   -8.1396    8.8147 C   0  0  0  0  0  0  0  0  0  0  0  0
   -5.4787   -8.6420    7.5480 C   0  0  0  0  0  0  0  0  0  0  0  0
   -4.2392   -8.3048    6.9551 C   0  0  0  0  0  0  0  0  0  0  0  0
   -3.9349   -8.7983    5.7183 C   0  0  0  0  0  0  0  0  0  0  0  0
   -2.7496   -8.6436    4.8816 C   0  0  0  0  0  0  0  0  0  0  0  0
   -1.4922   -8.3193    5.3355 C   0  0  0  0  0  0  0  0  0  0  0  0
   -0.3374   -8.5266    4.5535 C   0  0  0  0  0  0  0  0  0  0  0  0
    0.6168   -8.7477    3.9535 N   0  0  0  0  0  0  0  0  0  0  0  0
   -1.2222   -7.8257    6.6202 C   0  0  0  0  0  0  0  0  0  0  0  0
   -0.9494   -7.3881    7.6480 N   0  0  0  0  0  0  0  0  0  0  0  0
    4.1572    7.4816   -0.8848 H   0  0  0  0  0  0  0  0  0  0  0  0
   -0.1032    9.0578   -5.2223 H   0  0  0  0  0  0  0  0  0  0  0  0
    2.9974   12.4016   -3.0183 H   0  0  0  0  0  0  0  0  0  0  0  0
    1.6305   13.7257   -5.8775 H   0  0  0  0  0  0  0  0  0  0  0  0
    0.3765   15.1173   -4.2375 H   0  0  0  0  0  0  0  0  0  0  0  0
   -0.5372   13.4805   -2.4154 H   0  0  0  0  0  0  0  0  0  0  0  0
   -2.1797   11.7574   -3.5927 H   0  0  0  0  0  0  0  0  0  0  0  0
   -2.2781   12.3325   -6.1434 H   0  0  0  0  0  0  0  0  0  0  0  0
   -2.0467   14.8197   -5.2649 H   0  0  0  0  0  0  0  0  0  0  0  0
   -0.8575   14.5787   -6.5692 H   0  0  0  0  0  0  0  0  0  0  0  0
    0.0349   12.0504   -7.0234 H   0  0  0  0  0  0  0  0  0  0  0  0
    6.4086    6.7683    1.5995 H   0  0  0  0  0  0  0  0  0  0  0  0
    8.3012    8.0959    0.7685 H   0  0  0  0  0  0  0  0  0  0  0  0
   10.2357    9.0553   -3.8768 H   0  0  0  0  0  0  0  0  0  0  0  0
    8.4919    8.7239   -3.9615 H   0  0  0  0  0  0  0  0  0  0  0  0
    9.6683    7.3722   -3.8616 H   0  0  0  0  0  0  0  0  0  0  0  0
    7.5435    6.6876   -3.2005 H   0  0  0  0  0  0  0  0  0  0  0  0
    5.6893    5.3501   -2.3726 H   0  0  0  0  0  0  0  0  0  0  0  0
    2.8192    5.1767    1.8232 H   0  0  0  0  0  0  0  0  0  0  0  0
    2.8353    4.2610    4.1124 H   0  0  0  0  0  0  0  0  0  0  0  0
    6.3411    1.3300    5.1031 H   0  0  0  0  0  0  0  0  0  0  0  0
    7.1605    2.7255    5.8870 H   0  0  0  0  0  0  0  0  0  0  0  0
    6.1948    1.5929    6.8561 H   0  0  0  0  0  0  0  0  0  0  0  0
    6.9332    3.1420    3.6240 H   0  0  0  0  0  0  0  0  0  0  0  0
    6.9091    4.0348    1.3517 H   0  0  0  0  0  0  0  0  0  0  0  0
   -0.9174    1.9936   -4.6255 H   0  0  0  0  0  0  0  0  0  0  0  0
   -2.4324    3.7950   -5.3636 H   0  0  0  0  0  0  0  0  0  0  0  0
   -2.6223    8.4910   -4.0613 H   0  0  0  0  0  0  0  0  0  0  0  0
   -1.3227    7.4252   -3.4572 H   0  0  0  0  0  0  0  0  0  0  0  0
   -2.7262    7.8266   -2.4187 H   0  0  0  0  0  0  0  0  0  0  0  0
   -2.0413    5.6881   -1.5556 H   0  0  0  0  0  0  0  0  0  0  0  0
   -0.5616    3.8798   -0.8090 H   0  0  0  0  0  0  0  0  0  0  0  0
   -1.7878    0.3341   -2.3675 H   0  0  0  0  0  0  0  0  0  0  0  0
   -1.8131   -2.0476   -3.0160 H   0  0  0  0  0  0  0  0  0  0  0  0
    2.4233   -4.0055   -4.7740 H   0  0  0  0  0  0  0  0  0  0  0  0
    1.9028   -5.4184   -3.8305 H   0  0  0  0  0  0  0  0  0  0  0  0
    2.3895   -3.9447   -2.9830 H   0  0  0  0  0  0  0  0  0  0  0  0
    2.3317   -1.8026   -4.0389 H   0  0  0  0  0  0  0  0  0  0  0  0
    2.3609    0.5368   -3.3626 H   0  0  0  0  0  0  0  0  0  0  0  0
   -3.3378   -1.3398    2.7135 H   0  0  0  0  0  0  0  0  0  0  0  0
   -4.0644    0.0236    1.8561 H   0  0  0  0  0  0  0  0  0  0  0  0
   -4.4335   -1.4198   -0.1387 H   0  0  0  0  0  0  0  0  0  0  0  0
   -3.6212   -2.7577    0.6711 H   0  0  0  0  0  0  0  0  0  0  0  0
   -5.1691   -2.1561    1.2888 H   0  0  0  0  0  0  0  0  0  0  0  0
   -3.0058    1.9180    2.0485 H   0  0  0  0  0  0  0  0  0  0  0  0
   -1.8002    2.8237    1.1194 H   0  0  0  0  0  0  0  0  0  0  0  0
   -4.1384    1.2927   -0.1337 H   0  0  0  0  0  0  0  0  0  0  0  0
   -4.0705    3.0393    0.1109 H   0  0  0  0  0  0  0  0  0  0  0  0
   -2.9393    2.2643   -0.9943 H   0  0  0  0  0  0  0  0  0  0  0  0
   -0.1522   -0.9975    3.9493 H   0  0  0  0  0  0  0  0  0  0  0  0
    1.7192    0.6202    3.9822 H   0  0  0  0  0  0  0  0  0  0  0  0
    6.2780    0.7339    1.7763 H   0  0  0  0  0  0  0  0  0  0  0  0
    5.1306   -0.3905    1.0253 H   0  0  0  0  0  0  0  0  0  0  0  0
    6.1687   -0.9361    2.3811 H   0  0  0  0  0  0  0  0  0  0  0  0
    4.2918   -2.3377    2.2760 H   0  0  0  0  0  0  0  0  0  0  0  0
    2.4427   -3.9263    2.2363 H   0  0  0  0  0  0  0  0  0  0  0  0
   -2.7142   -3.6423    2.9085 H   0  0  0  0  0  0  0  0  0  0  0  0
   -4.1615   -4.1663    4.8448 H   0  0  0  0  0  0  0  0  0  0  0  0
   -2.0997   -3.9821    9.2367 H   0  0  0  0  0  0  0  0  0  0  0  0
   -3.2559   -5.2125    9.7828 H   0  0  0  0  0  0  0  0  0  0  0  0
   -1.8742   -5.7044    8.7686 H   0  0  0  0  0  0  0  0  0  0  0  0
   -0.7192   -4.1971    7.3844 H   0  0  0  0  0  0  0  0  0  0  0  0
    0.6988   -3.6700    5.4730 H   0  0  0  0  0  0  0  0  0  0  0  0
   -2.3465   -7.9065   -3.0673 H   0  0  0  0  0  0  0  0  0  0  0  0
   -0.8462   -7.7635   -4.9842 H   0  0  0  0  0  0  0  0  0  0  0  0
    0.4753   -7.9335   -6.8824 H   0  0  0  0  0  0  0  0  0  0  0  0
    0.5884   -6.2776   -6.1991 H   0  0  0  0  0  0  0  0  0  0  0  0
    1.8605   -6.8973   -7.2797 H   0  0  0  0  0  0  0  0  0  0  0  0
    2.5268   -8.0165   -2.3621 H   0  0  0  0  0  0  0  0  0  0  0  0
    1.0056   -8.1701   -0.4266 H   0  0  0  0  0  0  0  0  0  0  0  0
   -4.1561   -7.5188    0.1058 H   0  0  0  0  0  0  0  0  0  0  0  0
   -6.0986   -9.0032   -0.0126 H   0  0  0  0  0  0  0  0  0  0  0  0
   -6.5738  -11.0868    1.4084 H   0  0  0  0  0  0  0  0  0  0  0  0
   -7.8896  -12.1604    0.8651 H   0  0  0  0  0  0  0  0  0  0  0  0
   -7.9049  -10.4523    0.3804 H   0  0  0  0  0  0  0  0  0  0  0  0
   -3.6593  -12.0652   -1.7282 H   0  0  0  0  0  0  0  0  0  0  0  0
   -1.6944  -10.5741   -1.5891 H   0  0  0  0  0  0  0  0  0  0  0  0
   -2.8958   -9.5910    1.5655 H   0  0  0  0  0  0  0  0  0  0  0  0
   -6.7366  -10.6368    5.0536 H   0  0  0  0  0  0  0  0  0  0  0  0
   -8.2897  -10.4959    6.9680 H   0  0  0  0  0  0  0  0  0  0  0  0
   -8.8609   -9.5968    9.2089 H   0  0  0  0  0  0  0  0  0  0  0  0
   -5.1582   -7.4798    9.3396 H   0  0  0  0  0  0  0  0  0  0  0  0
   -3.5702   -7.6472    7.4857 H   0  0  0  0  0  0  0  0  0  0  0  0
  1  2  2  0  0  0  0
  2  3  1  0  0  0  0
  3  4  2  0  0  0  0
  3  5  1  0  0  0  0
  5  6  2  0  0  0  0
  6  7  1  0  0  0  0
  7  8  2  0  0  0  0
  8  9  1  0  0  0  0
  9 10  2  0  0  0  0
 10 11  1  0  0  0  0
 11 12  2  0  0  0  0
 12 13  1  0  0  0  0
 13 14  3  0  0  0  0
 12 15  1  0  0  0  0
 15 16  3  0  0  0  0
  8 17  1  0  0  0  0
 17 18  1  0  0  0  0
 18 19  1  0  0  0  0
 19 20  2  0  0  0  0
 20 21  1  0  0  0  0
 21 22  1  0  0  0  0
 21 23  1  0  0  0  0
  1 24  1  0  0  0  0
 24 25  2  0  0  0  0
 25 26  1  0  0  0  0
 26 27  1  0  0  0  0
 27 28  2  0  0  0  0
 28 29  1  0  0  0  0
 29 30  2  0  0  0  0
 30 31  1  0  0  0  0
 31 32  1  0  0  0  0
 30 33  1  0  0  0  0
 33 34  2  0  0  0  0
 26 35  1  0  0  0  0
 35 36  2  0  0  0  0
 36 37  1  0  0  0  0
 37 38  2  0  0  0  0
 38 39  1  0  0  0  0
 39 40  1  0  0  0  0
 38 41  1  0  0  0  0
 41 42  2  0  0  0  0
 25 43  1  0  0  0  0
 43 44  1  0  0  0  0
 44 45  1  0  0  0  0
 45 46  2  0  0  0  0
 46 47  1  0  0  0  0
 47 48  1  0  0  0  0
 48 49  2  0  0  0  0
 49 50  1  0  0  0  0
 50 51  2  0  0  0  0
 51 52  1  0  0  0  0
 52 53  1  0  0  0  0
 51 54  1  0  0  0  0
 54 55  2  0  0  0  0
 47 56  1  0  0  0  0
 56 57  2  0  0  0  0
 57 58  1  0  0  0  0
 58 59  2  0  0  0  0
 59 60  1  0  0  0  0
 60 61  1  0  0  0  0
 59 62  1  0  0  0  0
 62 63  2  0  0  0  0
 46 64  1  0  0  0  0
 64 65  1  0  0  0  0
 45 66  1  0  0  0  0
 66 67  2  0  0  0  0
 67 68  1  0  0  0  0
 67 69  1  0  0  0  0
 69 70  1  0  0  0  0
 69 71  2  0  0  0  0
 71 72  1  0  0  0  0
 72 73  2  0  0  0  0
 73 74  1  0  0  0  0
 74 75  1  0  0  0  0
 75 76  1  0  0  0  0
 74 77  2  0  0  0  0
 77 78  1  0  0  0  0
 78 79  2  0  0  0  0
 77 80  1  0  0  0  0
 80 81  1  0  0  0  0
 71 82  1  0  0  0  0
 82 83  2  0  0  0  0
 83 84  1  0  0  0  0
 84 85  1  0  0  0  0
 85 86  2  0  0  0  0
 86 87  1  0  0  0  0
 87 88  2  0  0  0  0
 88 89  1  0  0  0  0
 89 90  1  0  0  0  0
 88 91  1  0  0  0  0
 91 92  2  0  0  0  0
 84 93  1  0  0  0  0
 93 94  2  0  0  0  0
 94 95  1  0  0  0  0
 95 96  2  0  0  0  0
 96 97  1  0  0  0  0
 97 98  1  0  0  0  0
 96 99  1  0  0  0  0
 99100  2  0  0  0  0
 83101  1  0  0  0  0
101102  1  0  0  0  0
102103  1  0  0  0  0
103104  2  0  0  0  0
104105  1  0  0  0  0
105106  1  0  0  0  0
106107  2  0  0  0  0
107108  1  0  0  0  0
108109  2  0  0  0  0
109110  1  0  0  0  0
110111  1  0  0  0  0
109112  1  0  0  0  0
112113  2  0  0  0  0
105114  1  0  0  0  0
114115  2  0  0  0  0
115116  1  0  0  0  0
116117  2  0  0  0  0
117118  1  0  0  0  0
118119  1  0  0  0  0
117120  1  0  0  0  0
120121  2  0  0  0  0
104122  1  0  0  0  0
122123  1  0  0  0  0
103124  1  0  0  0  0
124125  2  0  0  0  0
125126  1  0  0  0  0
126127  2  0  0  0  0
126128  1  0  0  0  0
128129  2  0  0  0  0
129130  1  0  0  0  0
130131  2  0  0  0  0
131132  1  0  0  0  0
132133  2  0  0  0  0
133134  1  0  0  0  0
133135  1  0  0  0  0
135136  2  0  0  0  0
136137  1  0  0  0  0
137138  2  0  0  0  0
138139  1  0  0  0  0
139140  2  0  0  0  0
140141  1  0  0  0  0
141142  3  0  0  0  0
140143  1  0  0  0  0
143144  3  0  0  0  0
 11  2  1  0  0  0  0
 23 17  1  0  0  0  0
 65 24  1  0  0  0  0
 79 66  1  0  0  0  0
123 82  1  0  0  0  0
139125  1  0  0  0  0
 10  5  1  0  0  0  0
 22 18  1  0  0  0  0
 34 27  1  0  0  0  0
 42 35  1  0  0  0  0
 64 43  2  0  0  0  0
 79 72  1  0  0  0  0
 92 85  1  0  0  0  0
100 93  1  0  0  0  0
122101  2  0  0  0  0
138128  1  0  0  0  0
 23  7  1  0  0  0  0
 55 48  1  0  0  0  0
 63 56  1  0  0  0  0
113106  1  0  0  0  0
121114  1  0  0  0  0
136130  1  0  0  0  0
  1145  1  0  0  0  0
  6146  1  0  0  0  0
  9147  1  0  0  0  0
 17148  1  0  0  0  0
 18149  1  0  0  0  0
 19150  1  0  0  0  0
 20151  1  0  0  0  0
 21152  1  0  0  0  0
 22153  1  0  0  0  0
 22154  1  0  0  0  0
 23155  1  0  0  0  0
 28156  1  0  0  0  0
 29157  1  0  0  0  0
 32158  1  0  0  0  0
 32159  1  0  0  0  0
 32160  1  0  0  0  0
 33161  1  0  0  0  0
 34162  1  0  0  0  0
 36163  1  0  0  0  0
 37164  1  0  0  0  0
 40165  1  0  0  0  0
 40166  1  0  0  0  0
 40167  1  0  0  0  0
 41168  1  0  0  0  0
 42169  1  0  0  0  0
 49170  1  0  0  0  0
 50171  1  0  0  0  0
 53172  1  0  0  0  0
 53173  1  0  0  0  0
 53174  1  0  0  0  0
 54175  1  0  0  0  0
 55176  1  0  0  0  0
 57177  1  0  0  0  0
 58178  1  0  0  0  0
 61179  1  0  0  0  0
 61180  1  0  0  0  0
 61181  1  0  0  0  0
 62182  1  0  0  0  0
 63183  1  0  0  0  0
 75184  1  0  0  0  0
 75185  1  0  0  0  0
 76186  1  0  0  0  0
 76187  1  0  0  0  0
 76188  1  0  0  0  0
 80189  1  0  0  0  0
 80190  1  0  0  0  0
 81191  1  0  0  0  0
 81192  1  0  0  0  0
 81193  1  0  0  0  0
 86194  1  0  0  0  0
 87195  1  0  0  0  0
 90196  1  0  0  0  0
 90197  1  0  0  0  0
 90198  1  0  0  0  0
 91199  1  0  0  0  0
 92200  1  0  0  0  0
 94201  1  0  0  0  0
 95202  1  0  0  0  0
 98203  1  0  0  0  0
 98204  1  0  0  0  0
 98205  1  0  0  0  0
 99206  1  0  0  0  0
100207  1  0  0  0  0
107208  1  0  0  0  0
108209  1  0  0  0  0
111210  1  0  0  0  0
111211  1  0  0  0  0
111212  1  0  0  0  0
112213  1  0  0  0  0
113214  1  0  0  0  0
115215  1  0  0  0  0
116216  1  0  0  0  0
119217  1  0  0  0  0
119218  1  0  0  0  0
119219  1  0  0  0  0
120220  1  0  0  0  0
121221  1  0  0  0  0
124222  1  0  0  0  0
129223  1  0  0  0  0
131224  1  0  0  0  0
132225  1  0  0  0  0
135226  1  0  0  0  0
137227  1  0  0  0  0
M  END
