262

C          4.64100       -7.34550        0.37270
C          5.35110       -8.13180       -0.50840
C          5.83800       -7.73240       -1.82860
O          5.62260       -6.68710       -2.42330
C          6.70160       -8.82680       -2.30380
C          7.37040       -8.90050       -3.52250
C          8.11160      -10.04700       -3.68240
C          8.17880      -11.04700       -2.70430
C          7.51110      -10.99140       -1.50270
C          6.75570       -9.83170       -1.31740
C          5.90100       -9.42950       -0.20020
C          5.67590      -10.17810        0.93060
C          4.73730       -9.88660        1.93690
N          3.97910       -9.76330        2.79360
C          6.34610      -11.37510        1.25010
N          6.86030      -12.33760        1.61030
C          9.11250      -11.89950       -3.52630
C         10.61390      -11.89710       -3.14510
C         10.88670      -10.57150       -2.47900
C         10.82020       -9.62920       -3.41000
C         10.49960      -10.30060       -4.72250
C         11.23220      -11.63770       -4.52820
C          9.03300      -10.78750       -4.61930
C          4.11700       -6.06360        0.21680
C          3.56050       -5.29910        1.27460
N          3.61630       -5.60570        2.60940
C          4.68490       -6.32330        3.17760
C          4.43640       -7.24940        4.18560
C          5.46190       -8.02400        4.69200
C          6.74610       -7.89560        4.18180
S          8.09100       -8.92620        4.67420
C          7.25300      -10.40430        5.31480
C          7.01150       -6.91340        3.22770
C          5.99540       -6.12500        2.73900
C          2.62920       -5.08430        3.46670
C          1.28000       -5.15950        3.11760
C          0.32080       -4.60670        3.93540
C          0.68320       -3.97750        5.12520
S         -0.63020       -3.28880        6.07780
C          0.22000       -2.31490        7.35210
C          2.02210       -3.93900        5.49560
C          2.98580       -4.48590        4.67040
C          2.95900       -4.13160        0.78020
S          2.13230       -2.80570        1.51950
C          1.91940       -2.02000       -0.04790
C          2.45130       -2.78750       -1.08920
N          2.43690       -2.50380       -2.45210
C          3.56590       -2.90980       -3.18770
C          4.84090       -2.66160       -2.68490
C          5.95680       -3.15090       -3.33190
C          5.81330       -3.89200       -4.49610
S          7.19900       -4.60690       -5.32830
C          8.22320       -5.12130       -3.91520
C          4.54800       -4.08750       -5.03690
C          3.43270       -3.60640       -4.38770
C          1.26790       -2.15820       -3.13120
C          0.01210       -2.55970       -2.67860
C         -1.13930       -2.13930       -3.31830
C         -1.05290       -1.32840       -4.44010
S         -2.45130       -0.66680       -5.29640
C         -3.84940       -1.63660       -4.66780
C          0.20210       -0.96820       -4.92910
C          1.34680       -1.36930       -4.28300
C          3.05690       -3.96910       -0.59460
S          3.96350       -5.23850       -1.33850
C          1.15560       -0.82650       -0.02970
C          0.56450       -0.26860        1.10780
N          0.92060       -0.55340        2.42660
C         -0.11700       -0.48450        3.37330
C         -0.01080        0.28880        4.52510
C         -1.07340        0.40240        5.40010
C         -2.26350       -0.26170        5.13980
S         -3.68940       -0.15810        6.17000
C         -3.10280        0.71840        7.64700
C         -2.36870       -1.05240        3.99720
C         -1.30990       -1.16370        3.12500
C          2.23050       -0.21850        2.82430
C          2.78620       -0.84310        3.94170
C          4.05510       -0.51760        4.36130
C          4.80430        0.43720        3.67310
S          6.40940        0.79770        4.31250
C          6.98160        2.18260        3.28810
C          4.26430        1.04460        2.54910
C          2.98720        0.72000        2.13230
C         -0.36970        0.72370        0.76350
S         -1.54230        1.61710        1.64640
C         -1.99830        2.51040        0.18680
C         -1.31260        2.05890       -0.92820
N         -1.40150        2.55480       -2.22850
C         -2.58680        2.44880       -2.95380
C         -3.57460        1.53110       -2.59510
C         -4.69310        1.36810       -3.38600
C         -4.83230        2.10890       -4.54940
S         -6.18710        1.76880       -5.64150
C         -5.31070        1.68870       -7.23480
C         -3.89630        3.08200       -4.86970
C         -2.78540        3.25470       -4.07490
C         -0.16580        2.71640       -2.88020
C          0.04990        2.29520       -4.19180
C          1.29920        2.41310       -4.75770
C          2.36650        2.93570       -4.03050
S          3.92640        3.00010       -4.85440
C          5.08600        3.50050       -3.54940
C          2.15410        3.36610       -2.72860
C          0.89830        3.26200       -2.16550
C         -0.39050        1.04380       -0.58190
S          0.73020        0.08240       -1.47700
C         -2.99970        3.50630        0.37660
C         -3.12190        4.24980        1.54620
N         -2.19040        4.28070        2.57870
C         -0.82920        4.40350        2.31290
C         -0.38870        5.10510        1.19260
C          0.95440        5.15960        0.87540
C          1.88420        4.50780        1.67320
S          3.61260        4.45250        1.28810
C          3.86010        5.95340        0.29230
C          1.45550        3.82570        2.80870
C          0.11730        3.77800        3.12960
C         -2.69680        4.15110        3.88270
C         -2.19760        4.91730        4.93290
C         -2.79290        4.85200        6.17460
C         -3.89750        4.03130        6.38470
S         -4.64950        4.05470        7.98420
C         -6.34300        3.51560        7.61220
C         -4.36150        3.22370        5.35520
C         -3.76030        3.28340        4.11680
C         -4.34390        4.95070        1.58650
S         -5.11260        5.92410        2.77370
C         -6.53750        6.09480        1.75250
C         -6.37960        5.42450        0.51680
N         -7.34790        5.26760       -0.44460
C         -7.52810        4.00260       -1.02920
C         -7.36630        2.84650       -0.26420
C         -7.56550        1.60800       -0.82910
C         -7.95070        1.49410       -2.16320
S         -8.18750       -0.14170       -2.78170
C         -9.16040        0.10450       -4.29180
C         -8.11300        2.64120       -2.92870
C         -7.89470        3.88310       -2.36640
C         -8.17110        6.33370       -0.83440
C         -9.53380        6.13320       -1.05920
C        -10.32930        7.18530       -1.45150
C         -9.78510        8.45680       -1.63320
S        -10.89150        9.72840       -2.13400
C         -9.96450       11.24940       -1.78700
C         -8.42370        8.65420       -1.42860
C         -7.62760        7.60180       -1.02600
C         -5.13520        4.76800        0.45960
S         -4.34610        3.76630       -0.72260
C         -7.64650        6.82240        2.20100
C         -8.03530        7.02100        3.50980
C         -7.65190        6.17980        4.66790
O         -6.87140        5.24750        4.70940
C         -8.52460        6.63980        5.74820
S         -8.77510        6.22550        7.39070
C        -10.03640        7.42380        7.48850
Cl       -10.87570        7.66130        8.95170
C        -10.24830        8.10150        6.31830
C         -9.37630        7.64200        5.31630
C         -9.06910        7.93670        3.92660
C         -9.61030        8.98260        3.21940
C        -10.64120        9.78370        3.74980
N        -11.48970       10.44180        4.15580
C         -9.16150        9.43560        1.96940
N         -8.81040        9.91650        0.98570
H          4.47230       -7.77540        1.35150
H          7.28240       -8.11300       -4.25470
H          7.56470      -11.77470       -0.76500
H          8.75240      -12.89410       -3.78220
H         10.94370      -12.78120       -2.60610
H         11.03720      -10.45230       -1.42190
H         10.90520       -8.56530       -3.28550
H         10.72480       -9.73220       -5.62120
H         12.31460      -11.52370       -4.49130
H         10.96650      -12.38970       -5.27010
H          8.61470      -11.05480       -5.58790
H          3.43070       -7.38490        4.55160
H          5.23900       -8.74620        5.45950
H          6.86070      -10.21630        6.31020
H          6.46430      -10.69700        4.62820
H          8.01210      -11.17880        5.35840
H          8.02220       -6.78630        2.87180
H          6.20250       -5.37420        1.99110
H          0.99410       -5.65220        2.20040
H         -0.72280       -4.65330        3.66620
H         -0.56900       -1.81650        7.90630
H          0.77660       -2.96580        8.01980
H          0.86450       -1.57750        6.88240
H          2.33060       -3.47890        6.42070
H          4.02660       -4.43770        4.95390
H          4.95040       -2.09800       -1.76920
H          6.93470       -2.95850       -2.91940
H          8.91870       -5.86340       -4.29480
H          7.56880       -5.55850       -3.16700
H          8.77510       -4.27620       -3.51380
H          4.44600       -4.65050       -5.95160
H          2.44870       -3.80000       -4.78790
H         -0.06340       -3.18970       -1.80400
H         -2.09520       -2.44970       -2.92700
H         -4.00910       -1.42270       -3.61570
H         -4.71510       -1.31550       -5.23860
H         -3.66260       -2.69310       -4.83610
H          0.26460       -0.35840       -5.81650
H          2.31310       -1.06150       -4.65170
H          0.90380        0.82680        4.72730
H         -0.96420        1.02890        6.27110
H         -3.93930        0.72530        8.33870
H         -2.26830        0.18080        8.08730
H         -2.82940        1.73940        7.39760
H         -3.29170       -1.57750        3.80670
H         -1.39320       -1.77470        2.23850
H          2.20930       -1.58920        4.46550
H          4.48550       -0.99820        5.22660
H          7.13370        1.85200        2.26470
H          6.26620        2.99830        3.33550
H          7.92840        2.49250        3.71960
H          4.81060        1.78890        1.99380
H          2.57600        1.22160        1.26900
H         -3.44270        0.91760       -1.71600
H         -5.44650        0.64270       -3.12230
H         -5.13230        2.68860       -7.61890
H         -5.95760        1.14450       -7.91550
H         -4.37590        1.15480       -7.09200
H         -4.02790        3.70000       -5.74450
H         -2.05200        4.00570       -4.32730
H         -0.75680        1.85210       -4.75480
H          1.47110        2.08060       -5.76980
H          4.88720        4.52330       -3.24150
H          6.07300        3.43900       -3.99710
H          5.01610        2.81350       -2.71120
H          2.95770        3.77510       -2.13770
H          0.74020        3.59080       -1.14830
H         -1.10560        5.60550        0.55830
H          1.26180        5.71440        0.00250
H          4.93480        6.08800        0.21720
H          3.41340        6.80100        0.80290
H          3.43520        5.82950       -0.70000
H          2.18240        3.31840        3.42470
H         -0.21350        3.23040        3.99880
H         -1.36370        5.58220        4.76310
H         -2.42590        5.45930        6.98800
H         -6.38130        2.43460        7.50990
H         -6.95150        3.82850        8.45490
H         -6.67000        4.01070        6.70230
H         -5.18480        2.54620        5.50560
H         -4.11960        2.65280        3.31700
H         -7.10300        2.92520        0.78020
H         -7.44430        0.71350       -0.23750
H        -10.02240        0.72480       -4.06630
H         -8.54100        0.54940       -5.06460
H         -9.48340       -0.88580       -4.59730
H         -8.38870        2.57850       -3.96810
H         -8.01020        4.77050       -2.97020
H         -9.96010        5.15250       -0.90940
H        -11.38620        7.03970       -1.61340
H         -9.19410       11.39960       -2.53800
H         -9.54380       11.18160       -0.78830
H        -10.68960       12.05570       -1.83730
H         -7.97380        9.61940       -1.58470
H         -6.57130        7.75610       -0.86150
H         -8.28430        7.24720        1.43280
H        -10.98880        8.87060        6.20210
