254

C         -4.28860       -4.43790       -6.35450
C         -4.34170       -3.69380       -7.51490
C         -3.33570       -2.69070       -7.89170
O         -2.36490       -2.33170       -7.24960
C         -3.67280       -2.28180       -9.27250
C         -2.99860       -1.35390      -10.06040
C         -3.55700       -1.16290      -11.30250
C         -4.69060       -1.85950      -11.73610
C         -5.35500       -2.79260      -10.97360
C         -4.81490       -2.98480       -9.69930
C         -5.26430       -3.84500       -8.60450
C         -6.44980       -4.53940       -8.56460
C         -6.90810       -5.24740       -7.43680
N         -7.35110       -5.82140       -6.54540
C         -7.38540       -4.57090       -9.61490
N         -8.18350       -4.61860      -10.44030
C         -4.70830       -1.16180      -13.07380
C         -5.74840       -0.03410      -13.24560
C         -5.22900        0.75810      -14.42370
C         -4.14680        1.41340      -14.02360
C         -3.91810        1.07780      -12.56780
C         -5.37080        0.91720      -12.10270
C         -3.43820       -0.38870      -12.59350
C         -3.62150       -4.07630       -5.18290
C         -3.24870       -2.81350       -4.67250
N         -3.72150       -1.60810       -5.10340
C         -4.92050       -1.50090       -5.82610
C         -4.99180       -0.65390       -6.92950
C         -6.14020       -0.58990       -7.69600
C         -7.24080       -1.36960       -7.36640
S         -8.72650       -1.42690       -8.30870
C         -8.23820       -0.73120       -9.91280
C         -7.19740       -2.16160       -6.21670
C         -6.05350       -2.22850       -5.45720
C         -3.04450       -0.41320       -4.79420
C         -3.77600        0.69020       -4.36630
C         -3.14420        1.87890       -4.06120
C         -1.76350        1.97630       -4.17600
S         -0.85360        3.43780       -3.80290
C         -2.13820        4.69800       -3.54780
C         -1.03020        0.87600       -4.61800
C         -1.66150       -0.30790       -4.93100
C         -2.43470       -2.97050       -3.52770
S         -1.61430       -1.87970       -2.46600
C         -1.05240       -3.21250       -1.45030
C         -1.54090       -4.43520       -1.89580
N         -1.42430       -5.67390       -1.26910
C         -1.28000       -6.78070       -2.12240
C         -1.95270       -7.98130       -1.91330
C         -1.76970       -9.05150       -2.76750
C         -0.93480       -8.93170       -3.86960
S         -0.58930      -10.24990       -4.99560
C         -1.92100      -11.44170       -4.67940
C         -0.30050       -7.71700       -4.11430
C         -0.46580       -6.66010       -3.25030
C         -1.79150       -5.82760        0.07180
C         -1.37430       -6.94460        0.80090
C         -1.77270       -7.12380        2.10470
C         -2.59170       -6.18780        2.73370
S         -3.02200       -6.52500        4.41160
C         -4.01450       -5.08680        4.90530
C         -2.99540       -5.06570        2.02540
C         -2.60210       -4.89210        0.71100
C         -2.28280       -4.27900       -3.09340
S         -3.12760       -5.39180       -4.10540
C         -0.25660       -2.80710       -0.34000
C          0.64520       -3.44750        0.50230
N          1.08320       -4.76620        0.45080
C          1.37660       -5.35230        1.69620
C          2.54120       -6.07860        1.92340
C          2.79840       -6.63120        3.16310
C          1.90070       -6.45550        4.20720
S          2.11690       -7.11640        5.82760
C          3.75860       -7.89040        5.76990
C          0.74580       -5.70640        3.99310
C          0.48940       -5.16120        2.75720
C          1.59050       -5.31510       -0.73260
C          2.01000       -4.50610       -1.79020
C          2.54880       -5.06580       -2.92820
C          2.68800       -6.44720       -3.04700
S          3.37530       -7.05070       -4.55540
C          3.29150       -8.85590       -4.39150
C          2.27140       -7.25770       -2.00020
C          1.72660       -6.69610       -0.86360
C          1.18370       -2.53660        1.45010
S          2.37490       -2.68450        2.68940
C          2.31640       -0.94800        3.01330
C          1.43630       -0.29590        2.15700
N          1.28790        1.06950        2.00810
C          0.09700        1.53390        1.43770
C          0.10230        2.50960        0.44100
C         -1.07430        2.88690       -0.16830
C         -2.27660        2.30000        0.20480
S         -3.75510        2.74640       -0.66740
C         -4.53140        1.11600       -0.87780
C         -2.30190        1.37810        1.24100
C         -1.12470        0.99300        1.84810
C          2.40140        1.93080        2.05200
C          3.64800        1.52290        1.57960
C          4.69250        2.41620        1.51600
C          4.52310        3.73590        1.93260
S          5.90840        4.80720        1.74810
C          5.19820        6.46740        1.95240
C          3.30050        4.13230        2.45730
C          2.24840        3.23810        2.50420
C          0.77780       -1.22390        1.30690
S         -0.35970       -1.07800        0.01480
C          3.17840       -0.46990        4.05660
C          4.32110       -1.19910        4.37280
C          5.19460       -0.82990        5.37970
C          5.02660        0.34870        6.09470
C          3.84650        1.10020        5.83060
N          3.63430        2.23950        6.50070
C          2.51060        2.89490        6.34140
C          2.45990        4.23960        6.91560
C          1.90040        5.29810        6.20360
C          1.94780        6.57770        6.71650
C          2.53400        6.83360        7.95120
C          2.63360        8.23870        8.46920
C          3.88940        8.91730        7.91690
C          3.07670        5.77140        8.66390
C          3.05300        4.49070        8.14970
C          1.44200        2.29490        5.60670
N          1.67790        1.24690        4.84800
C          2.88790        0.66710        4.87000
C          0.06730        2.78140        5.74040
C         -0.80770        2.73710        4.65990
C         -2.10090        3.20410        4.77730
C         -2.56400        3.71740        5.98230
C         -3.98330        4.18430        6.12470
C         -4.88130        3.02900        6.57230
C         -1.69750        3.73580        7.06990
C         -0.40000        3.27920        6.95690
C          5.99220        0.71970        7.08920
C          6.37460        1.93510        7.55760
C          7.11320        2.02120        8.84860
O          7.62570        1.10720        9.45520
C          7.04020        3.44100        9.24870
C          7.50060        4.00950       10.43520
C          7.28720        5.36390       10.52790
C          6.66050        6.10510        9.51640
C          6.21370        5.56220        8.33610
C          6.41580        4.18330        8.22440
C          6.11400        3.28680        7.11600
C          5.82950        3.66190        5.82770
C          5.92140        2.74430        4.76450
N          6.06260        2.01450        3.88970
C          5.45690        4.95900        5.44430
N          5.08540        5.99050        5.09740
C          6.78160        7.40070       10.28120
C          7.88660        8.37220        9.81720
C          8.08910        9.28600       11.00410
C          8.69330        8.58440       11.95460
C          8.90860        7.18430       11.42630
C          9.13960        7.49580        9.94190
C          7.48990        6.57630       11.40350
H         -4.75080       -5.41760       -6.34720
H         -2.12110       -0.84590       -9.69140
H         -6.21060       -3.34230      -11.33030
H         -4.62860       -1.80330      -13.94920
H         -6.78080       -0.36980      -13.29780
H         -5.65390        0.71520      -15.40920
H         -3.48770        2.02800      -14.60830
H         -3.28330        1.75580      -12.00340
H         -5.92530        1.85350      -12.14520
H         -5.46650        0.47970      -11.11070
H         -2.50920       -0.52370      -13.14430
H         -4.13470       -0.05280       -7.19350
H         -6.16060        0.06380       -8.55320
H         -7.33080       -1.21870      -10.25790
H         -9.05730       -0.95930      -10.58750
H         -8.10910        0.34510       -9.83910
H         -8.06890       -2.73470       -5.94080
H         -6.02830       -2.85780       -4.58070
H         -4.84990        0.61290       -4.27310
H         -3.73590        2.71320       -3.72300
H         -2.75180        4.77950       -4.44000
H         -2.73860        4.45560       -2.67490
H         -1.60390        5.62860       -3.38230
H          0.03970        0.96750       -4.72360
H         -1.10530       -1.14530       -5.32090
H         -2.63410       -8.08220       -1.08230
H         -2.29500       -9.97120       -2.56550
H         -1.77510      -11.92650       -3.71820
H         -1.85290      -12.17730       -5.47470
H         -2.87920      -10.93280       -4.72430
H          0.32320       -7.60930       -4.98820
H          0.03550       -5.72580       -3.44810
H         -0.73690       -7.67850        0.33520
H         -1.44640       -7.99030        2.65880
H         -3.42310       -4.17970        4.81940
H         -4.91640       -5.03080        4.30260
H         -4.27700       -5.25730        5.94470
H         -3.62720       -4.31760        2.47710
H         -2.95130       -4.02290        0.17430
H          3.26350       -6.20090        1.13040
H          3.71190       -7.18680        3.30040
H          3.75960       -8.71420        5.06190
H          3.93870       -8.26730        6.77190
H          4.50840       -7.14730        5.51490
H          0.05260       -5.56510        4.80760
H         -0.40090       -4.57240        2.60010
H          1.93210       -3.43230       -1.71400
H          2.87530       -4.43400       -3.74020
H          2.26060       -9.17250       -4.26110
H          3.67940       -9.24870       -5.32630
H          3.91760       -9.18460       -3.56710
H          2.35670       -8.33050       -2.05800
H          1.41200       -7.34120       -0.05840
H          1.03630        2.94260        0.11770
H         -1.05700        3.61720       -0.96040
H         -3.77630        0.41050       -1.21250
H         -5.29590        1.23750       -1.63810
H         -4.98920        0.79070        0.05160
H         -3.23430        0.94770        1.57210
H         -1.14270        0.26690        2.64770
H          3.78730        0.51150        1.22910
H          5.64930        2.10920        1.12580
H          4.33750        6.57640        1.29970
H          5.98170        7.15690        1.65430
H          4.93890        6.63180        2.99500
H          3.15590        5.13360        2.83090
H          1.29140        3.56440        2.88340
H          4.54080       -2.08760        3.79850
H          6.06770       -1.43710        5.56780
H          1.45320        5.11570        5.23750
H          1.52710        7.39530        6.14910
H          1.75390        8.80900        8.16390
H          2.67510        8.23180        9.56040
H          3.87140        8.91580        6.82980
H          3.95050        9.94620        8.26460
H          4.78070        8.38640        8.24230
H          3.53130        5.95030        9.62830
H          3.48620        3.66820        8.69980
H         -0.45800        2.33960        3.72360
H         -2.75610        3.17200        3.91790
H         -4.34340        4.57020        5.16900
H         -4.03730        4.98780        6.86190
H         -4.84900        2.22180        5.84390
H         -5.91060        3.36450        6.67470
H         -4.54590        2.63810        7.53030
H         -2.04550        4.11620        8.01970
H          0.24780        3.29080        7.82110
H          6.47270       -0.11810        7.58930
H          7.97950        3.40600       11.19030
H          5.73360        6.13510        7.56040
H          5.84610        7.90330       10.52140
H          7.70150        8.84880        8.85810
H          7.73460       10.29910       11.04900
H          8.94440        8.89460       12.95200
H          9.65540        6.57970       11.93350
H          9.13330        6.61870        9.29760
H         10.05540        8.06120        9.77790
H          7.03040        6.53490       12.38960
