
  xtb     02132214483D
 energy: -296.109827247910 gnorm: 0.000287171602 xtb: 6.4.1 (unknown)
169187  0     0  0            999 V2000
    6.2808    1.0614   -5.9714 C   0  0  0  0  0  0  0  0  0  0  0  0
    5.9702    0.7077   -7.2425 C   0  0  0  0  0  0  0  0  0  0  0  0
    4.8251   -0.1000   -7.7575 C   0  0  0  0  0  0  0  0  0  0  0  0
    4.1768   -0.9461   -7.1823 O   0  0  0  0  0  0  0  0  0  0  0  0
    4.6540    0.3190   -9.1598 C   0  0  0  0  0  0  0  0  0  0  0  0
    3.6044   -0.0289  -10.0073 C   0  0  0  0  0  0  0  0  0  0  0  0
    3.6629    0.5687  -11.2413 C   0  0  0  0  0  0  0  0  0  0  0  0
    4.6968    1.4393  -11.6180 C   0  0  0  0  0  0  0  0  0  0  0  0
    5.7513    1.7702  -10.8033 C   0  0  0  0  0  0  0  0  0  0  0  0
    5.7050    1.1791   -9.5361 C   0  0  0  0  0  0  0  0  0  0  0  0
    6.6126    1.3153   -8.4078 C   0  0  0  0  0  0  0  0  0  0  0  0
    7.8719    1.8458   -8.4454 C   0  0  0  0  0  0  0  0  0  0  0  0
    8.7822    1.8454   -7.3646 C   0  0  0  0  0  0  0  0  0  0  0  0
    9.5870    1.8534   -6.5463 N   0  0  0  0  0  0  0  0  0  0  0  0
    8.4585    2.4078   -9.5998 C   0  0  0  0  0  0  0  0  0  0  0  0
    8.9864    2.8856  -10.4998 N   0  0  0  0  0  0  0  0  0  0  0  0
    4.0825    1.7116  -12.9680 C   0  0  0  0  0  0  0  0  0  0  0  0
    3.3453    3.0618  -13.1544 C   0  0  0  0  0  0  0  0  0  0  0  0
    2.8738    3.4828  -11.7845 C   0  0  0  0  0  0  0  0  0  0  0  0
    1.8992    2.6605  -11.4198 C   0  0  0  0  0  0  0  0  0  0  0  0
    1.6906    1.6713  -12.5406 C   0  0  0  0  0  0  0  0  0  0  0  0
    2.0225    2.5571  -13.7519 C   0  0  0  0  0  0  0  0  0  0  0  0
    2.9317    0.7440  -12.5472 C   0  0  0  0  0  0  0  0  0  0  0  0
    5.6698    0.7008   -4.7194 C   0  0  0  0  0  0  0  0  0  0  0  0
    5.8160    1.5815   -3.6321 C   0  0  0  0  0  0  0  0  0  0  0  0
    6.5447    2.7053   -3.7946 F   0  0  0  0  0  0  0  0  0  0  0  0
    5.1746    1.4045   -2.4300 C   0  0  0  0  0  0  0  0  0  0  0  0
    4.3279    0.3099   -2.2472 C   0  0  0  0  0  0  0  0  0  0  0  0
    4.2873   -0.6372   -3.2806 C   0  0  0  0  0  0  0  0  0  0  0  0
    3.5946   -1.7758   -3.0835 F   0  0  0  0  0  0  0  0  0  0  0  0
    4.9283   -0.4619   -4.4819 C   0  0  0  0  0  0  0  0  0  0  0  0
    3.4551    0.2107   -1.1021 C   0  0  0  0  0  0  0  0  0  0  0  0
    2.1046   -0.0942   -1.1329 C   0  0  0  0  0  0  0  0  0  0  0  0
    1.3420   -0.3413   -2.2598 N   0  0  0  0  0  0  0  0  0  0  0  0
    1.5853    0.3114   -3.4699 C   0  0  0  0  0  0  0  0  0  0  0  0
    1.3960   -0.3533   -4.6820 C   0  0  0  0  0  0  0  0  0  0  0  0
    1.7338    0.2574   -5.8694 C   0  0  0  0  0  0  0  0  0  0  0  0
    2.2688    1.5425   -5.8733 C   0  0  0  0  0  0  0  0  0  0  0  0
    2.7382    2.2130   -7.4416 S   0  0  0  0  0  0  0  0  0  0  0  0
    3.8232    3.6033   -7.0099 C   0  0  0  0  0  0  0  0  0  0  0  0
    2.3985    2.2346   -4.6774 C   0  0  0  0  0  0  0  0  0  0  0  0
    2.0526    1.6250   -3.4889 C   0  0  0  0  0  0  0  0  0  0  0  0
    0.2738   -1.2426   -2.1148 C   0  0  0  0  0  0  0  0  0  0  0  0
    0.4679   -2.4303   -1.4094 C   0  0  0  0  0  0  0  0  0  0  0  0
   -0.5985   -3.2556   -1.1351 C   0  0  0  0  0  0  0  0  0  0  0  0
   -1.8767   -2.9136   -1.5672 C   0  0  0  0  0  0  0  0  0  0  0  0
   -3.1942   -3.9933   -1.0945 S   0  0  0  0  0  0  0  0  0  0  0  0
   -4.6632   -2.9344   -1.2365 C   0  0  0  0  0  0  0  0  0  0  0  0
   -2.0608   -1.7716   -2.3351 C   0  0  0  0  0  0  0  0  0  0  0  0
   -0.9917   -0.9394   -2.6049 C   0  0  0  0  0  0  0  0  0  0  0  0
    1.5469   -0.0437    0.1704 C   0  0  0  0  0  0  0  0  0  0  0  0
   -0.0264   -0.3690    0.7963 S   0  0  0  0  0  0  0  0  0  0  0  0
    0.5183    0.0552    2.4016 C   0  0  0  0  0  0  0  0  0  0  0  0
    1.8833    0.3295    2.4639 C   0  0  0  0  0  0  0  0  0  0  0  0
    2.6161    0.4534    3.6250 N   0  0  0  0  0  0  0  0  0  0  0  0
    2.1932   -0.2161    4.7867 C   0  0  0  0  0  0  0  0  0  0  0  0
    1.6656   -1.5026    4.7047 C   0  0  0  0  0  0  0  0  0  0  0  0
    1.0728   -2.0912    5.8030 C   0  0  0  0  0  0  0  0  0  0  0  0
    1.0112   -1.4057    7.0106 C   0  0  0  0  0  0  0  0  0  0  0  0
    0.1542   -1.9992    8.4313 S   0  0  0  0  0  0  0  0  0  0  0  0
   -0.9029   -3.3152    7.7677 C   0  0  0  0  0  0  0  0  0  0  0  0
    1.6401   -0.1668    7.1234 C   0  0  0  0  0  0  0  0  0  0  0  0
    2.2258    0.4235    6.0258 C   0  0  0  0  0  0  0  0  0  0  0  0
    3.7592    1.2599    3.6505 C   0  0  0  0  0  0  0  0  0  0  0  0
    4.8739    0.8769    4.3977 C   0  0  0  0  0  0  0  0  0  0  0  0
    6.0028    1.6628    4.4066 C   0  0  0  0  0  0  0  0  0  0  0  0
    6.0505    2.8450    3.6679 C   0  0  0  0  0  0  0  0  0  0  0  0
    7.5566    3.7595    3.7511 S   0  0  0  0  0  0  0  0  0  0  0  0
    7.3282    5.0906    2.5379 C   0  0  0  0  0  0  0  0  0  0  0  0
    4.9376    3.2374    2.9373 C   0  0  0  0  0  0  0  0  0  0  0  0
    3.8009    2.4523    2.9337 C   0  0  0  0  0  0  0  0  0  0  0  0
    2.4488    0.3052    1.1628 C   0  0  0  0  0  0  0  0  0  0  0  0
    4.0214    0.6196    0.5093 S   0  0  0  0  0  0  0  0  0  0  0  0
   -0.4331    0.0110    3.4764 C   0  0  0  0  0  0  0  0  0  0  0  0
   -1.4363   -0.9988    3.5013 C   0  0  0  0  0  0  0  0  0  0  0  0
   -1.5188   -1.8621    2.4689 N   0  0  0  0  0  0  0  0  0  0  0  0
   -2.4020   -2.8107    2.5121 C   0  0  0  0  0  0  0  0  0  0  0  0
   -3.2376   -2.9817    3.6549 C   0  0  0  0  0  0  0  0  0  0  0  0
   -4.0372   -4.0436    3.6841 O   0  0  0  0  0  0  0  0  0  0  0  0
   -4.8675   -4.2117    4.8300 C   0  0  0  0  0  0  0  0  0  0  0  0
   -6.1511   -3.4025    4.7075 C   0  0  0  0  0  0  0  0  0  0  0  0
   -3.1903   -2.1449    4.6635 N   0  0  0  0  0  0  0  0  0  0  0  0
   -2.3233   -1.1160    4.5956 C   0  0  0  0  0  0  0  0  0  0  0  0
   -2.2672   -0.1863    5.6691 C   0  0  0  0  0  0  0  0  0  0  0  0
   -1.2980    0.7993    5.6091 C   0  0  0  0  0  0  0  0  0  0  0  0
   -0.4253    0.9174    4.5279 C   0  0  0  0  0  0  0  0  0  0  0  0
    0.4025    1.9790    4.4863 F   0  0  0  0  0  0  0  0  0  0  0  0
   -1.2376    1.7173    6.5862 F   0  0  0  0  0  0  0  0  0  0  0  0
   -3.2165   -0.2802    6.7572 C   0  0  0  0  0  0  0  0  0  0  0  0
   -4.5471   -0.3606    6.5326 C   0  0  0  0  0  0  0  0  0  0  0  0
   -5.1851    0.0224    5.2385 C   0  0  0  0  0  0  0  0  0  0  0  0
   -4.6444    0.2568    4.1798 O   0  0  0  0  0  0  0  0  0  0  0  0
   -6.6221    0.1612    5.5373 C   0  0  0  0  0  0  0  0  0  0  0  0
   -7.6178    0.5732    4.6537 C   0  0  0  0  0  0  0  0  0  0  0  0
   -8.8713    0.6357    5.2115 C   0  0  0  0  0  0  0  0  0  0  0  0
   -9.1203    0.3177    6.5545 C   0  0  0  0  0  0  0  0  0  0  0  0
   -8.1496   -0.0922    7.4365 C   0  0  0  0  0  0  0  0  0  0  0  0
   -6.8657   -0.1672    6.8873 C   0  0  0  0  0  0  0  0  0  0  0  0
   -5.6084   -0.5718    7.5023 C   0  0  0  0  0  0  0  0  0  0  0  0
   -5.4580   -1.1681    8.7239 C   0  0  0  0  0  0  0  0  0  0  0  0
   -4.2409   -1.7060    9.1922 C   0  0  0  0  0  0  0  0  0  0  0  0
   -3.3041   -2.2166    9.6151 N   0  0  0  0  0  0  0  0  0  0  0  0
   -6.5099   -1.3981    9.6354 C   0  0  0  0  0  0  0  0  0  0  0  0
   -7.3227   -1.6099   10.4176 N   0  0  0  0  0  0  0  0  0  0  0  0
  -10.5910    0.6285    6.4375 C   0  0  0  0  0  0  0  0  0  0  0  0
  -11.0903    1.9746    7.0189 C   0  0  0  0  0  0  0  0  0  0  0  0
   -9.9169    2.9221    6.9777 C   0  0  0  0  0  0  0  0  0  0  0  0
   -9.6816    3.2204    5.7069 C   0  0  0  0  0  0  0  0  0  0  0  0
  -10.6920    2.4800    4.8656 C   0  0  0  0  0  0  0  0  0  0  0  0
  -11.8982    2.4924    5.8181 C   0  0  0  0  0  0  0  0  0  0  0  0
  -10.3142    0.9797    4.9415 C   0  0  0  0  0  0  0  0  0  0  0  0
    7.0521    1.8173   -5.8631 H   0  0  0  0  0  0  0  0  0  0  0  0
    2.8226   -0.6942   -9.6776 H   0  0  0  0  0  0  0  0  0  0  0  0
    6.5381    2.4444  -11.0995 H   0  0  0  0  0  0  0  0  0  0  0  0
    4.6857    1.4435  -13.8329 H   0  0  0  0  0  0  0  0  0  0  0  0
    3.9004    3.8041  -13.7217 H   0  0  0  0  0  0  0  0  0  0  0  0
    3.3228    4.2746  -11.2138 H   0  0  0  0  0  0  0  0  0  0  0  0
    1.3803    2.6227  -10.4800 H   0  0  0  0  0  0  0  0  0  0  0  0
    0.7375    1.1492  -12.5480 H   0  0  0  0  0  0  0  0  0  0  0  0
    1.2969    3.3551  -13.9018 H   0  0  0  0  0  0  0  0  0  0  0  0
    2.1500    1.9970  -14.6773 H   0  0  0  0  0  0  0  0  0  0  0  0
    2.7768   -0.1552  -13.1399 H   0  0  0  0  0  0  0  0  0  0  0  0
    5.2812    2.1424   -1.6503 H   0  0  0  0  0  0  0  0  0  0  0  0
    4.8277   -1.2143   -5.2456 H   0  0  0  0  0  0  0  0  0  0  0  0
    1.0185   -1.3640   -4.6795 H   0  0  0  0  0  0  0  0  0  0  0  0
    1.6175   -0.2689   -6.8028 H   0  0  0  0  0  0  0  0  0  0  0  0
    4.5666    3.2783   -6.2875 H   0  0  0  0  0  0  0  0  0  0  0  0
    4.3072    3.8951   -7.9373 H   0  0  0  0  0  0  0  0  0  0  0  0
    3.2395    4.4346   -6.6254 H   0  0  0  0  0  0  0  0  0  0  0  0
    2.7640    3.2488   -4.6576 H   0  0  0  0  0  0  0  0  0  0  0  0
    2.1530    2.1712   -2.5629 H   0  0  0  0  0  0  0  0  0  0  0  0
    1.4590   -2.6878   -1.0685 H   0  0  0  0  0  0  0  0  0  0  0  0
   -0.4564   -4.1654   -0.5730 H   0  0  0  0  0  0  0  0  0  0  0  0
   -4.4704   -1.9860   -0.7440 H   0  0  0  0  0  0  0  0  0  0  0  0
   -5.4609   -3.4649   -0.7258 H   0  0  0  0  0  0  0  0  0  0  0  0
   -4.9291   -2.7913   -2.2800 H   0  0  0  0  0  0  0  0  0  0  0  0
   -3.0359   -1.5097   -2.7139 H   0  0  0  0  0  0  0  0  0  0  0  0
   -1.1406   -0.0371   -3.1794 H   0  0  0  0  0  0  0  0  0  0  0  0
    1.6903   -2.0341    3.7646 H   0  0  0  0  0  0  0  0  0  0  0  0
    0.6571   -3.0812    5.7044 H   0  0  0  0  0  0  0  0  0  0  0  0
   -1.6108   -3.5358    8.5609 H   0  0  0  0  0  0  0  0  0  0  0  0
   -0.3119   -4.1968    7.5356 H   0  0  0  0  0  0  0  0  0  0  0  0
   -1.4333   -2.9510    6.8917 H   0  0  0  0  0  0  0  0  0  0  0  0
    1.6259    0.3438    8.0735 H   0  0  0  0  0  0  0  0  0  0  0  0
    2.6640    1.4065    6.1064 H   0  0  0  0  0  0  0  0  0  0  0  0
    4.8474   -0.0429    4.9623 H   0  0  0  0  0  0  0  0  0  0  0  0
    6.8687    1.3677    4.9788 H   0  0  0  0  0  0  0  0  0  0  0  0
    7.1126    4.6659    1.5620 H   0  0  0  0  0  0  0  0  0  0  0  0
    8.2738    5.6229    2.5077 H   0  0  0  0  0  0  0  0  0  0  0  0
    6.5391    5.7629    2.8619 H   0  0  0  0  0  0  0  0  0  0  0  0
    4.9350    4.1573    2.3755 H   0  0  0  0  0  0  0  0  0  0  0  0
    2.9279    2.7767    2.3876 H   0  0  0  0  0  0  0  0  0  0  0  0
   -2.4713   -3.4828    1.6693 H   0  0  0  0  0  0  0  0  0  0  0  0
   -5.0842   -5.2817    4.8653 H   0  0  0  0  0  0  0  0  0  0  0  0
   -4.3126   -3.9130    5.7252 H   0  0  0  0  0  0  0  0  0  0  0  0
   -6.7617   -3.5408    5.5956 H   0  0  0  0  0  0  0  0  0  0  0  0
   -5.9130   -2.3473    4.6018 H   0  0  0  0  0  0  0  0  0  0  0  0
   -6.7153   -3.7218    3.8348 H   0  0  0  0  0  0  0  0  0  0  0  0
   -2.8182   -0.2548    7.7645 H   0  0  0  0  0  0  0  0  0  0  0  0
   -7.3828    0.8132    3.6284 H   0  0  0  0  0  0  0  0  0  0  0  0
   -8.3523   -0.3258    8.4686 H   0  0  0  0  0  0  0  0  0  0  0  0
  -11.2707   -0.1936    6.6520 H   0  0  0  0  0  0  0  0  0  0  0  0
  -11.6062    1.8905    7.9714 H   0  0  0  0  0  0  0  0  0  0  0  0
   -9.3604    3.2242    7.8454 H   0  0  0  0  0  0  0  0  0  0  0  0
   -8.8888    3.8210    5.3009 H   0  0  0  0  0  0  0  0  0  0  0  0
  -10.8458    2.8564    3.8577 H   0  0  0  0  0  0  0  0  0  0  0  0
  -12.2968    3.4927    5.9791 H   0  0  0  0  0  0  0  0  0  0  0  0
  -12.6999    1.8216    5.5123 H   0  0  0  0  0  0  0  0  0  0  0  0
  -10.8128    0.3863    4.1776 H   0  0  0  0  0  0  0  0  0  0  0  0
  1  2  2  0  0  0  0
  2  3  1  0  0  0  0
  3  4  2  0  0  0  0
  3  5  1  0  0  0  0
  5  6  2  0  0  0  0
  6  7  1  0  0  0  0
  7  8  2  0  0  0  0
  8  9  1  0  0  0  0
  9 10  2  0  0  0  0
 10 11  1  0  0  0  0
 11 12  2  0  0  0  0
 12 13  1  0  0  0  0
 13 14  3  0  0  0  0
 12 15  1  0  0  0  0
 15 16  3  0  0  0  0
  8 17  1  0  0  0  0
 17 18  1  0  0  0  0
 18 19  1  0  0  0  0
 19 20  2  0  0  0  0
 20 21  1  0  0  0  0
 21 22  1  0  0  0  0
 21 23  1  0  0  0  0
  1 24  1  0  0  0  0
 24 25  2  0  0  0  0
 25 26  1  0  0  0  0
 25 27  1  0  0  0  0
 27 28  2  0  0  0  0
 28 29  1  0  0  0  0
 29 30  1  0  0  0  0
 29 31  2  0  0  0  0
 28 32  1  0  0  0  0
 32 33  2  0  0  0  0
 33 34  1  0  0  0  0
 34 35  1  0  0  0  0
 35 36  2  0  0  0  0
 36 37  1  0  0  0  0
 37 38  2  0  0  0  0
 38 39  1  0  0  0  0
 39 40  1  0  0  0  0
 38 41  1  0  0  0  0
 41 42  2  0  0  0  0
 34 43  1  0  0  0  0
 43 44  2  0  0  0  0
 44 45  1  0  0  0  0
 45 46  2  0  0  0  0
 46 47  1  0  0  0  0
 47 48  1  0  0  0  0
 46 49  1  0  0  0  0
 49 50  2  0  0  0  0
 33 51  1  0  0  0  0
 51 52  1  0  0  0  0
 52 53  1  0  0  0  0
 53 54  2  0  0  0  0
 54 55  1  0  0  0  0
 55 56  1  0  0  0  0
 56 57  2  0  0  0  0
 57 58  1  0  0  0  0
 58 59  2  0  0  0  0
 59 60  1  0  0  0  0
 60 61  1  0  0  0  0
 59 62  1  0  0  0  0
 62 63  2  0  0  0  0
 55 64  1  0  0  0  0
 64 65  2  0  0  0  0
 65 66  1  0  0  0  0
 66 67  2  0  0  0  0
 67 68  1  0  0  0  0
 68 69  1  0  0  0  0
 67 70  1  0  0  0  0
 70 71  2  0  0  0  0
 54 72  1  0  0  0  0
 72 73  1  0  0  0  0
 53 74  1  0  0  0  0
 74 75  1  0  0  0  0
 75 76  2  0  0  0  0
 76 77  1  0  0  0  0
 77 78  2  0  0  0  0
 78 79  1  0  0  0  0
 79 80  1  0  0  0  0
 80 81  1  0  0  0  0
 78 82  1  0  0  0  0
 82 83  2  0  0  0  0
 83 84  1  0  0  0  0
 84 85  2  0  0  0  0
 85 86  1  0  0  0  0
 86 87  1  0  0  0  0
 85 88  1  0  0  0  0
 84 89  1  0  0  0  0
 89 90  2  0  0  0  0
 90 91  1  0  0  0  0
 91 92  2  0  0  0  0
 91 93  1  0  0  0  0
 93 94  2  0  0  0  0
 94 95  1  0  0  0  0
 95 96  2  0  0  0  0
 96 97  1  0  0  0  0
 97 98  2  0  0  0  0
 98 99  1  0  0  0  0
 99100  2  0  0  0  0
100101  1  0  0  0  0
101102  3  0  0  0  0
100103  1  0  0  0  0
103104  3  0  0  0  0
 96105  1  0  0  0  0
105106  1  0  0  0  0
106107  1  0  0  0  0
107108  2  0  0  0  0
108109  1  0  0  0  0
109110  1  0  0  0  0
109111  1  0  0  0  0
 11  2  1  0  0  0  0
 23 17  1  0  0  0  0
 31 24  1  0  0  0  0
 73 32  1  0  0  0  0
 86 74  2  0  0  0  0
 99 90  1  0  0  0  0
111105  1  0  0  0  0
 10  5  1  0  0  0  0
 22 18  1  0  0  0  0
 42 35  1  0  0  0  0
 50 43  1  0  0  0  0
 72 51  2  0  0  0  0
 83 75  1  0  0  0  0
 98 93  1  0  0  0  0
110106  1  0  0  0  0
 23  7  1  0  0  0  0
 63 56  1  0  0  0  0
 71 64  1  0  0  0  0
111 95  1  0  0  0  0
  1112  1  0  0  0  0
  6113  1  0  0  0  0
  9114  1  0  0  0  0
 17115  1  0  0  0  0
 18116  1  0  0  0  0
 19117  1  0  0  0  0
 20118  1  0  0  0  0
 21119  1  0  0  0  0
 22120  1  0  0  0  0
 22121  1  0  0  0  0
 23122  1  0  0  0  0
 27123  1  0  0  0  0
 31124  1  0  0  0  0
 36125  1  0  0  0  0
 37126  1  0  0  0  0
 40127  1  0  0  0  0
 40128  1  0  0  0  0
 40129  1  0  0  0  0
 41130  1  0  0  0  0
 42131  1  0  0  0  0
 44132  1  0  0  0  0
 45133  1  0  0  0  0
 48134  1  0  0  0  0
 48135  1  0  0  0  0
 48136  1  0  0  0  0
 49137  1  0  0  0  0
 50138  1  0  0  0  0
 57139  1  0  0  0  0
 58140  1  0  0  0  0
 61141  1  0  0  0  0
 61142  1  0  0  0  0
 61143  1  0  0  0  0
 62144  1  0  0  0  0
 63145  1  0  0  0  0
 65146  1  0  0  0  0
 66147  1  0  0  0  0
 69148  1  0  0  0  0
 69149  1  0  0  0  0
 69150  1  0  0  0  0
 70151  1  0  0  0  0
 71152  1  0  0  0  0
 77153  1  0  0  0  0
 80154  1  0  0  0  0
 80155  1  0  0  0  0
 81156  1  0  0  0  0
 81157  1  0  0  0  0
 81158  1  0  0  0  0
 89159  1  0  0  0  0
 94160  1  0  0  0  0
 97161  1  0  0  0  0
105162  1  0  0  0  0
106163  1  0  0  0  0
107164  1  0  0  0  0
108165  1  0  0  0  0
109166  1  0  0  0  0
110167  1  0  0  0  0
110168  1  0  0  0  0
111169  1  0  0  0  0
M  END
