
  xtb     02142221153D
 energy: -372.319657694876 gnorm: 0.000482970105 xtb: 6.4.1 (unknown)
226248  0     0  0            999 V2000
   -0.8298    7.4801   -2.9341 C   0  0  0  0  0  0  0  0  0  0  0  0
   -1.7740    8.0984   -3.7245 C   0  0  0  0  0  0  0  0  0  0  0  0
   -3.1570    7.6671   -3.9250 C   0  0  0  0  0  0  0  0  0  0  0  0
   -3.7110    6.6810   -3.4615 O   0  0  0  0  0  0  0  0  0  0  0  0
   -3.7993    8.6966   -4.7596 C   0  0  0  0  0  0  0  0  0  0  0  0
   -5.1037    8.6894   -5.2482 C   0  0  0  0  0  0  0  0  0  0  0  0
   -5.4193    9.7886   -6.0106 C   0  0  0  0  0  0  0  0  0  0  0  0
   -4.5045   10.8166   -6.2700 C   0  0  0  0  0  0  0  0  0  0  0  0
   -3.2111   10.8298   -5.8019 C   0  0  0  0  0  0  0  0  0  0  0  0
   -2.8700    9.7227   -5.0207 C   0  0  0  0  0  0  0  0  0  0  0  0
   -1.5982    9.3672   -4.3898 C   0  0  0  0  0  0  0  0  0  0  0  0
   -0.4511   10.1221   -4.4504 C   0  0  0  0  0  0  0  0  0  0  0  0
    0.8181    9.7383   -3.9796 C   0  0  0  0  0  0  0  0  0  0  0  0
    1.9016    9.5069   -3.6697 N   0  0  0  0  0  0  0  0  0  0  0  0
   -0.3672   11.4084   -5.0196 C   0  0  0  0  0  0  0  0  0  0  0  0
   -0.2139   12.4679   -5.4370 N   0  0  0  0  0  0  0  0  0  0  0  0
   -5.4941   11.5977   -7.0983 C   0  0  0  0  0  0  0  0  0  0  0  0
   -6.1527   12.8169   -6.4189 C   0  0  0  0  0  0  0  0  0  0  0  0
   -7.3823   13.0773   -7.2586 C   0  0  0  0  0  0  0  0  0  0  0  0
   -8.2493   12.1021   -7.0176 C   0  0  0  0  0  0  0  0  0  0  0  0
   -7.6206   11.1666   -6.0104 C   0  0  0  0  0  0  0  0  0  0  0  0
   -6.8051   12.1732   -5.1885 C   0  0  0  0  0  0  0  0  0  0  0  0
   -6.5140   10.4492   -6.8118 C   0  0  0  0  0  0  0  0  0  0  0  0
   -0.8717    6.2518   -2.2766 C   0  0  0  0  0  0  0  0  0  0  0  0
    0.1658    5.7680   -1.4406 C   0  0  0  0  0  0  0  0  0  0  0  0
    1.2464    6.4852   -1.0036 N   0  0  0  0  0  0  0  0  0  0  0  0
    2.4391    5.7838   -0.7363 C   0  0  0  0  0  0  0  0  0  0  0  0
    3.1439    5.9963    0.4468 C   0  0  0  0  0  0  0  0  0  0  0  0
    4.2559    5.2352    0.7301 C   0  0  0  0  0  0  0  0  0  0  0  0
    4.6825    4.2486   -0.1575 C   0  0  0  0  0  0  0  0  0  0  0  0
    6.0626    3.2673    0.3280 S   0  0  0  0  0  0  0  0  0  0  0  0
    5.8981    1.7909   -0.7181 C   0  0  0  0  0  0  0  0  0  0  0  0
    4.0196    4.0806   -1.3666 C   0  0  0  0  0  0  0  0  0  0  0  0
    2.9076    4.8454   -1.6518 C   0  0  0  0  0  0  0  0  0  0  0  0
    1.1884    7.8590   -0.7185 C   0  0  0  0  0  0  0  0  0  0  0  0
    2.2934    8.6657   -0.9716 C   0  0  0  0  0  0  0  0  0  0  0  0
    2.2369   10.0258   -0.7375 C   0  0  0  0  0  0  0  0  0  0  0  0
    1.0665   10.6012   -0.2644 C   0  0  0  0  0  0  0  0  0  0  0  0
    0.8630   12.3356   -0.0147 S   0  0  0  0  0  0  0  0  0  0  0  0
    2.2130   13.0556   -0.9917 C   0  0  0  0  0  0  0  0  0  0  0  0
   -0.0242    9.7870    0.0418 C   0  0  0  0  0  0  0  0  0  0  0  0
    0.0374    8.4295   -0.1711 C   0  0  0  0  0  0  0  0  0  0  0  0
   -0.0498    4.4156   -1.1123 C   0  0  0  0  0  0  0  0  0  0  0  0
    0.8398    3.2459   -0.2059 S   0  0  0  0  0  0  0  0  0  0  0  0
   -0.3656    2.0171   -0.5539 C   0  0  0  0  0  0  0  0  0  0  0  0
   -1.4145    2.4999   -1.3244 C   0  0  0  0  0  0  0  0  0  0  0  0
   -2.4921    1.7947   -1.8276 N   0  0  0  0  0  0  0  0  0  0  0  0
   -2.4554    0.4225   -2.0777 C   0  0  0  0  0  0  0  0  0  0  0  0
   -1.2980   -0.2098   -2.5338 C   0  0  0  0  0  0  0  0  0  0  0  0
   -1.2588   -1.5813   -2.6680 C   0  0  0  0  0  0  0  0  0  0  0  0
   -2.3843   -2.3488   -2.3824 C   0  0  0  0  0  0  0  0  0  0  0  0
   -2.2401   -4.1042   -2.5336 S   0  0  0  0  0  0  0  0  0  0  0  0
   -3.5995   -4.7107   -1.4852 C   0  0  0  0  0  0  0  0  0  0  0  0
   -3.5655   -1.7156   -2.0208 C   0  0  0  0  0  0  0  0  0  0  0  0
   -3.5997   -0.3462   -1.8690 C   0  0  0  0  0  0  0  0  0  0  0  0
   -3.6792    2.5018   -2.0914 C   0  0  0  0  0  0  0  0  0  0  0  0
   -4.3806    2.2786   -3.2756 C   0  0  0  0  0  0  0  0  0  0  0  0
   -5.4887    3.0377   -3.5800 C   0  0  0  0  0  0  0  0  0  0  0  0
   -5.9152    4.0371   -2.7115 C   0  0  0  0  0  0  0  0  0  0  0  0
   -7.2961    5.0268   -3.1966 S   0  0  0  0  0  0  0  0  0  0  0  0
   -6.8842    6.6202   -2.4217 C   0  0  0  0  0  0  0  0  0  0  0  0
   -5.2591    4.2219   -1.5033 C   0  0  0  0  0  0  0  0  0  0  0  0
   -4.1497    3.4596   -1.1975 C   0  0  0  0  0  0  0  0  0  0  0  0
   -1.2176    3.8760   -1.6320 C   0  0  0  0  0  0  0  0  0  0  0  0
   -2.1349    5.0430   -2.5185 S   0  0  0  0  0  0  0  0  0  0  0  0
   -0.0608    0.6695   -0.1097 C   0  0  0  0  0  0  0  0  0  0  0  0
   -1.0202   -0.1896    0.4929 C   0  0  0  0  0  0  0  0  0  0  0  0
   -2.2754    0.2409    0.6873 N   0  0  0  0  0  0  0  0  0  0  0  0
   -3.1612   -0.5534    1.2480 C   0  0  0  0  0  0  0  0  0  0  0  0
   -4.5500   -0.1059    1.2124 C   0  0  0  0  0  0  0  0  0  0  0  0
   -4.8450    1.2476    1.2634 C   0  0  0  0  0  0  0  0  0  0  0  0
   -6.1541    1.6870    1.1704 C   0  0  0  0  0  0  0  0  0  0  0  0
   -7.1979    0.7841    1.0352 C   0  0  0  0  0  0  0  0  0  0  0  0
   -8.5153    1.0904    0.9730 O   0  0  0  0  0  0  0  0  0  0  0  0
   -8.9216    2.4404    0.8645 C   0  0  0  0  0  0  0  0  0  0  0  0
   -8.6884    3.0102   -0.5304 C   0  0  0  0  0  0  0  0  0  0  0  0
   -6.9047   -0.6036    0.9839 C   0  0  0  0  0  0  0  0  0  0  0  0
   -5.5933   -1.0250    1.0518 C   0  0  0  0  0  0  0  0  0  0  0  0
   -7.9912   -1.4145    0.8829 O   0  0  0  0  0  0  0  0  0  0  0  0
   -7.8240   -2.8163    0.9109 C   0  0  0  0  0  0  0  0  0  0  0  0
   -7.4403   -3.3923   -0.4497 C   0  0  0  0  0  0  0  0  0  0  0  0
   -2.7475   -1.8163    1.7883 C   0  0  0  0  0  0  0  0  0  0  0  0
   -3.5583   -2.6507    2.6739 C   0  0  0  0  0  0  0  0  0  0  0  0
   -4.4817   -2.1262    3.5674 C   0  0  0  0  0  0  0  0  0  0  0  0
   -5.2109   -2.9692    4.3894 C   0  0  0  0  0  0  0  0  0  0  0  0
   -5.0312   -4.3442    4.3464 C   0  0  0  0  0  0  0  0  0  0  0  0
   -5.7163   -5.2613    5.0722 O   0  0  0  0  0  0  0  0  0  0  0  0
   -6.6250   -4.8407    6.0689 C   0  0  0  0  0  0  0  0  0  0  0  0
   -5.9243   -4.3690    7.3400 C   0  0  0  0  0  0  0  0  0  0  0  0
   -4.0563   -4.8833    3.4688 C   0  0  0  0  0  0  0  0  0  0  0  0
   -3.9338   -6.2363    3.5032 O   0  0  0  0  0  0  0  0  0  0  0  0
   -2.8492   -6.8563    2.8410 C   0  0  0  0  0  0  0  0  0  0  0  0
   -1.5140   -6.6264    3.5425 C   0  0  0  0  0  0  0  0  0  0  0  0
   -3.3405   -4.0329    2.6518 C   0  0  0  0  0  0  0  0  0  0  0  0
   -1.5515   -2.2800    1.5099 N   0  0  0  0  0  0  0  0  0  0  0  0
   -0.6807   -1.5300    0.8214 C   0  0  0  0  0  0  0  0  0  0  0  0
    0.5964   -2.0727    0.5173 C   0  0  0  0  0  0  0  0  0  0  0  0
    1.5203   -1.1937   -0.0034 C   0  0  0  0  0  0  0  0  0  0  0  0
    1.2039    0.1377   -0.2960 C   0  0  0  0  0  0  0  0  0  0  0  0
    2.1798    0.8717   -0.8725 F   0  0  0  0  0  0  0  0  0  0  0  0
    2.7669   -1.6045   -0.3146 F   0  0  0  0  0  0  0  0  0  0  0  0
    0.8797   -3.4921    0.7388 C   0  0  0  0  0  0  0  0  0  0  0  0
    2.0929   -3.9037    1.2751 C   0  0  0  0  0  0  0  0  0  0  0  0
    2.3083   -5.2634    1.4419 C   0  0  0  0  0  0  0  0  0  0  0  0
    3.4126   -5.9179    1.9225 N   0  0  0  0  0  0  0  0  0  0  0  0
    4.6383   -5.3028    2.3599 C   0  0  0  0  0  0  0  0  0  0  0  0
    4.6031   -4.9798    3.8529 C   0  0  0  0  0  0  0  0  0  0  0  0
    3.1629   -7.2666    1.9027 C   0  0  0  0  0  0  0  0  0  0  0  0
    1.8597   -7.4967    1.3879 C   0  0  0  0  0  0  0  0  0  0  0  0
    1.3148   -6.2125    1.0881 C   0  0  0  0  0  0  0  0  0  0  0  0
    0.1091   -5.7825    0.5424 C   0  0  0  0  0  0  0  0  0  0  0  0
   -0.0966   -4.4346    0.3751 C   0  0  0  0  0  0  0  0  0  0  0  0
    1.3753   -8.7994    1.2877 C   0  0  0  0  0  0  0  0  0  0  0  0
    2.1886   -9.8370    1.6699 C   0  0  0  0  0  0  0  0  0  0  0  0
    3.5059   -9.6160    2.1329 C   0  0  0  0  0  0  0  0  0  0  0  0
    3.9817   -8.3128    2.2852 C   0  0  0  0  0  0  0  0  0  0  0  0
    4.2962  -10.7726    2.4522 C   0  0  0  0  0  0  0  0  0  0  0  0
    5.6411  -10.9477    2.3623 C   0  0  0  0  0  0  0  0  0  0  0  0
    6.6259  -10.0784    1.6635 C   0  0  0  0  0  0  0  0  0  0  0  0
    6.5111   -8.9228    1.3148 O   0  0  0  0  0  0  0  0  0  0  0  0
    7.8051  -10.9332    1.4251 C   0  0  0  0  0  0  0  0  0  0  0  0
    8.9438  -10.5904    0.6974 C   0  0  0  0  0  0  0  0  0  0  0  0
    9.8821  -11.5909    0.6229 C   0  0  0  0  0  0  0  0  0  0  0  0
    9.7014  -12.8458    1.2217 C   0  0  0  0  0  0  0  0  0  0  0  0
    8.5854  -13.1973    1.9419 C   0  0  0  0  0  0  0  0  0  0  0  0
    7.6200  -12.1889    2.0359 C   0  0  0  0  0  0  0  0  0  0  0  0
    6.3236  -12.1902    2.7004 C   0  0  0  0  0  0  0  0  0  0  0  0
    5.8639  -13.1486    3.5626 C   0  0  0  0  0  0  0  0  0  0  0  0
    6.5699  -14.3238    3.8954 C   0  0  0  0  0  0  0  0  0  0  0  0
    7.0915  -15.2983    4.2057 N   0  0  0  0  0  0  0  0  0  0  0  0
    4.6496  -13.0729    4.2791 C   0  0  0  0  0  0  0  0  0  0  0  0
    3.6939  -13.0758    4.9156 N   0  0  0  0  0  0  0  0  0  0  0  0
   11.0346  -13.3581    0.7366 C   0  0  0  0  0  0  0  0  0  0  0  0
   12.1730  -13.4113    1.7772 C   0  0  0  0  0  0  0  0  0  0  0  0
   13.4276  -13.4796    0.9366 C   0  0  0  0  0  0  0  0  0  0  0  0
   13.6002  -12.2913    0.3719 C   0  0  0  0  0  0  0  0  0  0  0  0
   12.4652  -11.3995    0.8214 C   0  0  0  0  0  0  0  0  0  0  0  0
   12.2423  -11.9490    2.2363 C   0  0  0  0  0  0  0  0  0  0  0  0
   11.2373  -11.9586    0.0718 C   0  0  0  0  0  0  0  0  0  0  0  0
    0.1009    8.0178   -2.8070 H   0  0  0  0  0  0  0  0  0  0  0  0
   -5.7719    7.8685   -5.0403 H   0  0  0  0  0  0  0  0  0  0  0  0
   -2.5161   11.6225   -6.0228 H   0  0  0  0  0  0  0  0  0  0  0  0
   -5.2029   11.7912   -8.1290 H   0  0  0  0  0  0  0  0  0  0  0  0
   -5.4868   13.6588   -6.2504 H   0  0  0  0  0  0  0  0  0  0  0  0
   -7.4692   13.8857   -7.9605 H   0  0  0  0  0  0  0  0  0  0  0  0
   -9.2051   11.9332   -7.4782 H   0  0  0  0  0  0  0  0  0  0  0  0
   -8.2940   10.5060   -5.4705 H   0  0  0  0  0  0  0  0  0  0  0  0
   -6.0971   11.7145   -4.5006 H   0  0  0  0  0  0  0  0  0  0  0  0
   -7.4395   12.8723   -4.6460 H   0  0  0  0  0  0  0  0  0  0  0  0
   -6.9004    9.8747   -7.6518 H   0  0  0  0  0  0  0  0  0  0  0  0
    2.7973    6.7392    1.1495 H   0  0  0  0  0  0  0  0  0  0  0  0
    4.7928    5.3769    1.6553 H   0  0  0  0  0  0  0  0  0  0  0  0
    6.5504    1.0428   -0.2785 H   0  0  0  0  0  0  0  0  0  0  0  0
    6.2224    2.0073   -1.7319 H   0  0  0  0  0  0  0  0  0  0  0  0
    4.8685    1.4477   -0.6977 H   0  0  0  0  0  0  0  0  0  0  0  0
    4.3550    3.3550   -2.0888 H   0  0  0  0  0  0  0  0  0  0  0  0
    2.3877    4.7103   -2.5888 H   0  0  0  0  0  0  0  0  0  0  0  0
    3.1935    8.2294   -1.3750 H   0  0  0  0  0  0  0  0  0  0  0  0
    3.1049   10.6251   -0.9547 H   0  0  0  0  0  0  0  0  0  0  0  0
    3.1645   12.9051   -0.4899 H   0  0  0  0  0  0  0  0  0  0  0  0
    2.2149   12.6151   -1.9844 H   0  0  0  0  0  0  0  0  0  0  0  0
    1.9961   14.1173   -1.0562 H   0  0  0  0  0  0  0  0  0  0  0  0
   -0.9181   10.2369    0.4457 H   0  0  0  0  0  0  0  0  0  0  0  0
   -0.8119    7.8051    0.0626 H   0  0  0  0  0  0  0  0  0  0  0  0
   -0.4254    0.3770   -2.7767 H   0  0  0  0  0  0  0  0  0  0  0  0
   -0.3551   -2.0730   -2.9945 H   0  0  0  0  0  0  0  0  0  0  0  0
   -3.5989   -4.1758   -0.5392 H   0  0  0  0  0  0  0  0  0  0  0  0
   -4.5520   -4.6019   -1.9960 H   0  0  0  0  0  0  0  0  0  0  0  0
   -3.3959   -5.7640   -1.3192 H   0  0  0  0  0  0  0  0  0  0  0  0
   -4.4658   -2.2825   -1.8459 H   0  0  0  0  0  0  0  0  0  0  0  0
   -4.5137    0.1338   -1.5549 H   0  0  0  0  0  0  0  0  0  0  0  0
   -4.0308    1.5274   -3.9682 H   0  0  0  0  0  0  0  0  0  0  0  0
   -6.0165    2.8862   -4.5089 H   0  0  0  0  0  0  0  0  0  0  0  0
   -5.8216    6.7989   -2.5595 H   0  0  0  0  0  0  0  0  0  0  0  0
   -7.1524    6.6145   -1.3689 H   0  0  0  0  0  0  0  0  0  0  0  0
   -7.4700    7.3730   -2.9403 H   0  0  0  0  0  0  0  0  0  0  0  0
   -5.5953    4.9691   -0.8020 H   0  0  0  0  0  0  0  0  0  0  0  0
   -3.6292    3.6186   -0.2658 H   0  0  0  0  0  0  0  0  0  0  0  0
   -4.0386    1.9509    1.3882 H   0  0  0  0  0  0  0  0  0  0  0  0
   -6.3489    2.7461    1.2145 H   0  0  0  0  0  0  0  0  0  0  0  0
   -8.4290    3.0560    1.6280 H   0  0  0  0  0  0  0  0  0  0  0  0
   -9.9926    2.4149    1.0834 H   0  0  0  0  0  0  0  0  0  0  0  0
   -9.2218    2.4159   -1.2674 H   0  0  0  0  0  0  0  0  0  0  0  0
   -9.0517    4.0327   -0.5790 H   0  0  0  0  0  0  0  0  0  0  0  0
   -7.6315    2.9965   -0.7845 H   0  0  0  0  0  0  0  0  0  0  0  0
   -5.3509   -2.0716    0.9746 H   0  0  0  0  0  0  0  0  0  0  0  0
   -8.8046   -3.2012    1.2056 H   0  0  0  0  0  0  0  0  0  0  0  0
   -7.0937   -3.1055    1.6782 H   0  0  0  0  0  0  0  0  0  0  0  0
   -6.4925   -2.9826   -0.7888 H   0  0  0  0  0  0  0  0  0  0  0  0
   -7.3552   -4.4735   -0.3792 H   0  0  0  0  0  0  0  0  0  0  0  0
   -8.2021   -3.1417   -1.1834 H   0  0  0  0  0  0  0  0  0  0  0  0
   -4.6266   -1.0600    3.6417 H   0  0  0  0  0  0  0  0  0  0  0  0
   -5.9238   -2.5308    5.0691 H   0  0  0  0  0  0  0  0  0  0  0  0
   -7.2181   -5.7338    6.2840 H   0  0  0  0  0  0  0  0  0  0  0  0
   -7.2980   -4.0655    5.6814 H   0  0  0  0  0  0  0  0  0  0  0  0
   -5.3061   -3.4964    7.1438 H   0  0  0  0  0  0  0  0  0  0  0  0
   -6.6643   -4.1161    8.0943 H   0  0  0  0  0  0  0  0  0  0  0  0
   -5.2865   -5.1620    7.7218 H   0  0  0  0  0  0  0  0  0  0  0  0
   -3.1024   -7.9199    2.8632 H   0  0  0  0  0  0  0  0  0  0  0  0
   -2.7978   -6.5336    1.7934 H   0  0  0  0  0  0  0  0  0  0  0  0
   -1.2263   -5.5788    3.5011 H   0  0  0  0  0  0  0  0  0  0  0  0
   -1.5942   -6.9251    4.5847 H   0  0  0  0  0  0  0  0  0  0  0  0
   -0.7398   -7.2194    3.0640 H   0  0  0  0  0  0  0  0  0  0  0  0
   -2.5850   -4.4046    1.9795 H   0  0  0  0  0  0  0  0  0  0  0  0
    2.8373   -3.1800    1.5669 H   0  0  0  0  0  0  0  0  0  0  0  0
    5.4619   -5.9866    2.1393 H   0  0  0  0  0  0  0  0  0  0  0  0
    4.7909   -4.3883    1.7809 H   0  0  0  0  0  0  0  0  0  0  0  0
    4.4589   -5.8882    4.4332 H   0  0  0  0  0  0  0  0  0  0  0  0
    3.7854   -4.2972    4.0733 H   0  0  0  0  0  0  0  0  0  0  0  0
    5.5374   -4.5159    4.1569 H   0  0  0  0  0  0  0  0  0  0  0  0
   -0.6407   -6.4998    0.2445 H   0  0  0  0  0  0  0  0  0  0  0  0
   -1.0071   -4.0782   -0.0742 H   0  0  0  0  0  0  0  0  0  0  0  0
    0.3784   -8.9851    0.9171 H   0  0  0  0  0  0  0  0  0  0  0  0
    1.8336  -10.8541    1.5923 H   0  0  0  0  0  0  0  0  0  0  0  0
    4.9537   -8.1363    2.7103 H   0  0  0  0  0  0  0  0  0  0  0  0
    3.7116  -11.6433    2.7297 H   0  0  0  0  0  0  0  0  0  0  0  0
    9.0383   -9.6162    0.2439 H   0  0  0  0  0  0  0  0  0  0  0  0
    8.4531  -14.1697    2.3861 H   0  0  0  0  0  0  0  0  0  0  0  0
   11.0002  -14.2385    0.0977 H   0  0  0  0  0  0  0  0  0  0  0  0
   12.0540  -14.1725    2.5432 H   0  0  0  0  0  0  0  0  0  0  0  0
   14.0099  -14.3717    0.7995 H   0  0  0  0  0  0  0  0  0  0  0  0
   14.3555  -11.9926   -0.3311 H   0  0  0  0  0  0  0  0  0  0  0  0
   12.6140  -10.3281    0.7169 H   0  0  0  0  0  0  0  0  0  0  0  0
   11.3325  -11.5901    2.7140 H   0  0  0  0  0  0  0  0  0  0  0  0
   13.0938  -11.7629    2.8887 H   0  0  0  0  0  0  0  0  0  0  0  0
   11.3391  -11.9055   -1.0106 H   0  0  0  0  0  0  0  0  0  0  0  0
  1  2  2  0  0  0  0
  2  3  1  0  0  0  0
  3  4  2  0  0  0  0
  3  5  1  0  0  0  0
  5  6  2  0  0  0  0
  6  7  1  0  0  0  0
  7  8  2  0  0  0  0
  8  9  1  0  0  0  0
  9 10  2  0  0  0  0
 10 11  1  0  0  0  0
 11 12  2  0  0  0  0
 12 13  1  0  0  0  0
 13 14  3  0  0  0  0
 12 15  1  0  0  0  0
 15 16  3  0  0  0  0
  8 17  1  0  0  0  0
 17 18  1  0  0  0  0
 18 19  1  0  0  0  0
 19 20  2  0  0  0  0
 20 21  1  0  0  0  0
 21 22  1  0  0  0  0
 21 23  1  0  0  0  0
  1 24  1  0  0  0  0
 24 25  2  0  0  0  0
 25 26  1  0  0  0  0
 26 27  1  0  0  0  0
 27 28  2  0  0  0  0
 28 29  1  0  0  0  0
 29 30  2  0  0  0  0
 30 31  1  0  0  0  0
 31 32  1  0  0  0  0
 30 33  1  0  0  0  0
 33 34  2  0  0  0  0
 26 35  1  0  0  0  0
 35 36  2  0  0  0  0
 36 37  1  0  0  0  0
 37 38  2  0  0  0  0
 38 39  1  0  0  0  0
 39 40  1  0  0  0  0
 38 41  1  0  0  0  0
 41 42  2  0  0  0  0
 25 43  1  0  0  0  0
 43 44  1  0  0  0  0
 44 45  1  0  0  0  0
 45 46  2  0  0  0  0
 46 47  1  0  0  0  0
 47 48  1  0  0  0  0
 48 49  2  0  0  0  0
 49 50  1  0  0  0  0
 50 51  2  0  0  0  0
 51 52  1  0  0  0  0
 52 53  1  0  0  0  0
 51 54  1  0  0  0  0
 54 55  2  0  0  0  0
 47 56  1  0  0  0  0
 56 57  2  0  0  0  0
 57 58  1  0  0  0  0
 58 59  2  0  0  0  0
 59 60  1  0  0  0  0
 60 61  1  0  0  0  0
 59 62  1  0  0  0  0
 62 63  2  0  0  0  0
 46 64  1  0  0  0  0
 64 65  1  0  0  0  0
 45 66  1  0  0  0  0
 66 67  1  0  0  0  0
 67 68  2  0  0  0  0
 68 69  1  0  0  0  0
 69 70  1  0  0  0  0
 70 71  2  0  0  0  0
 71 72  1  0  0  0  0
 72 73  2  0  0  0  0
 73 74  1  0  0  0  0
 74 75  1  0  0  0  0
 75 76  1  0  0  0  0
 73 77  1  0  0  0  0
 77 78  2  0  0  0  0
 77 79  1  0  0  0  0
 79 80  1  0  0  0  0
 80 81  1  0  0  0  0
 69 82  2  0  0  0  0
 82 83  1  0  0  0  0
 83 84  2  0  0  0  0
 84 85  1  0  0  0  0
 85 86  2  0  0  0  0
 86 87  1  0  0  0  0
 87 88  1  0  0  0  0
 88 89  1  0  0  0  0
 86 90  1  0  0  0  0
 90 91  1  0  0  0  0
 91 92  1  0  0  0  0
 92 93  1  0  0  0  0
 90 94  2  0  0  0  0
 82 95  1  0  0  0  0
 95 96  2  0  0  0  0
 96 97  1  0  0  0  0
 97 98  2  0  0  0  0
 98 99  1  0  0  0  0
 99100  1  0  0  0  0
 98101  1  0  0  0  0
 97102  1  0  0  0  0
102103  2  0  0  0  0
103104  1  0  0  0  0
104105  1  0  0  0  0
105106  1  0  0  0  0
106107  1  0  0  0  0
105108  1  0  0  0  0
108109  2  0  0  0  0
109110  1  0  0  0  0
110111  1  0  0  0  0
111112  2  0  0  0  0
109113  1  0  0  0  0
113114  2  0  0  0  0
114115  1  0  0  0  0
115116  2  0  0  0  0
115117  1  0  0  0  0
117118  2  0  0  0  0
118119  1  0  0  0  0
119120  2  0  0  0  0
119121  1  0  0  0  0
121122  2  0  0  0  0
122123  1  0  0  0  0
123124  2  0  0  0  0
124125  1  0  0  0  0
125126  2  0  0  0  0
126127  1  0  0  0  0
127128  2  0  0  0  0
128129  1  0  0  0  0
129130  3  0  0  0  0
128131  1  0  0  0  0
131132  3  0  0  0  0
124133  1  0  0  0  0
133134  1  0  0  0  0
134135  1  0  0  0  0
135136  2  0  0  0  0
136137  1  0  0  0  0
137138  1  0  0  0  0
137139  1  0  0  0  0
 11  2  1  0  0  0  0
 23 17  1  0  0  0  0
 65 24  1  0  0  0  0
 99 66  2  0  0  0  0
112102  1  0  0  0  0
127118  1  0  0  0  0
139133  1  0  0  0  0
 10  5  1  0  0  0  0
 22 18  1  0  0  0  0
 34 27  1  0  0  0  0
 42 35  1  0  0  0  0
 64 43  2  0  0  0  0
 96 67  1  0  0  0  0
110104  2  0  0  0  0
126121  1  0  0  0  0
138134  1  0  0  0  0
 23  7  1  0  0  0  0
 55 48  1  0  0  0  0
 63 56  1  0  0  0  0
 78 70  1  0  0  0  0
 94 83  1  0  0  0  0
116108  1  0  0  0  0
139123  1  0  0  0  0
  1140  1  0  0  0  0
  6141  1  0  0  0  0
  9142  1  0  0  0  0
 17143  1  0  0  0  0
 18144  1  0  0  0  0
 19145  1  0  0  0  0
 20146  1  0  0  0  0
 21147  1  0  0  0  0
 22148  1  0  0  0  0
 22149  1  0  0  0  0
 23150  1  0  0  0  0
 28151  1  0  0  0  0
 29152  1  0  0  0  0
 32153  1  0  0  0  0
 32154  1  0  0  0  0
 32155  1  0  0  0  0
 33156  1  0  0  0  0
 34157  1  0  0  0  0
 36158  1  0  0  0  0
 37159  1  0  0  0  0
 40160  1  0  0  0  0
 40161  1  0  0  0  0
 40162  1  0  0  0  0
 41163  1  0  0  0  0
 42164  1  0  0  0  0
 49165  1  0  0  0  0
 50166  1  0  0  0  0
 53167  1  0  0  0  0
 53168  1  0  0  0  0
 53169  1  0  0  0  0
 54170  1  0  0  0  0
 55171  1  0  0  0  0
 57172  1  0  0  0  0
 58173  1  0  0  0  0
 61174  1  0  0  0  0
 61175  1  0  0  0  0
 61176  1  0  0  0  0
 62177  1  0  0  0  0
 63178  1  0  0  0  0
 71179  1  0  0  0  0
 72180  1  0  0  0  0
 75181  1  0  0  0  0
 75182  1  0  0  0  0
 76183  1  0  0  0  0
 76184  1  0  0  0  0
 76185  1  0  0  0  0
 78186  1  0  0  0  0
 80187  1  0  0  0  0
 80188  1  0  0  0  0
 81189  1  0  0  0  0
 81190  1  0  0  0  0
 81191  1  0  0  0  0
 84192  1  0  0  0  0
 85193  1  0  0  0  0
 88194  1  0  0  0  0
 88195  1  0  0  0  0
 89196  1  0  0  0  0
 89197  1  0  0  0  0
 89198  1  0  0  0  0
 92199  1  0  0  0  0
 92200  1  0  0  0  0
 93201  1  0  0  0  0
 93202  1  0  0  0  0
 93203  1  0  0  0  0
 94204  1  0  0  0  0
103205  1  0  0  0  0
106206  1  0  0  0  0
106207  1  0  0  0  0
107208  1  0  0  0  0
107209  1  0  0  0  0
107210  1  0  0  0  0
111211  1  0  0  0  0
112212  1  0  0  0  0
113213  1  0  0  0  0
114214  1  0  0  0  0
116215  1  0  0  0  0
117216  1  0  0  0  0
122217  1  0  0  0  0
125218  1  0  0  0  0
133219  1  0  0  0  0
134220  1  0  0  0  0
135221  1  0  0  0  0
136222  1  0  0  0  0
137223  1  0  0  0  0
138224  1  0  0  0  0
138225  1  0  0  0  0
139226  1  0  0  0  0
M  END
