
  xtb     02172220583D
 energy: -344.257462682844 gnorm: 0.000627469196 xtb: 6.4.1 (unknown)
195214  0     0  0            999 V2000
    1.4820   -2.7159   -6.1060 C   0  0  0  0  0  0  0  0  0  0  0  0
    2.5267   -2.6062   -5.2322 C   0  0  0  0  0  0  0  0  0  0  0  0
    2.4490   -1.7519   -4.0208 C   0  0  0  0  0  0  0  0  0  0  0  0
    1.5106   -1.0645   -3.6630 O   0  0  0  0  0  0  0  0  0  0  0  0
    3.7908   -1.7757   -3.4261 C   0  0  0  0  0  0  0  0  0  0  0  0
    4.1954   -1.1094   -2.2721 C   0  0  0  0  0  0  0  0  0  0  0  0
    5.5145   -1.3123   -1.9489 C   0  0  0  0  0  0  0  0  0  0  0  0
    6.3650   -2.1294   -2.7062 C   0  0  0  0  0  0  0  0  0  0  0  0
    5.9821   -2.7742   -3.8601 C   0  0  0  0  0  0  0  0  0  0  0  0
    4.6460   -2.5686   -4.2201 C   0  0  0  0  0  0  0  0  0  0  0  0
    3.8900   -3.0636   -5.3698 C   0  0  0  0  0  0  0  0  0  0  0  0
    4.3711   -3.8518   -6.3856 C   0  0  0  0  0  0  0  0  0  0  0  0
    3.5933   -4.3207   -7.4612 C   0  0  0  0  0  0  0  0  0  0  0  0
    3.0172   -4.7495   -8.3587 N   0  0  0  0  0  0  0  0  0  0  0  0
    5.7039   -4.2992   -6.4851 C   0  0  0  0  0  0  0  0  0  0  0  0
    6.7738   -4.6930   -6.6211 N   0  0  0  0  0  0  0  0  0  0  0  0
    7.5317   -1.9089   -1.7733 C   0  0  0  0  0  0  0  0  0  0  0  0
    7.8420   -3.0447   -0.7733 C   0  0  0  0  0  0  0  0  0  0  0  0
    8.6811   -2.3679    0.2870 C   0  0  0  0  0  0  0  0  0  0  0  0
    7.8828   -1.5722    0.9875 C   0  0  0  0  0  0  0  0  0  0  0  0
    6.4909   -1.6990    0.4141 C   0  0  0  0  0  0  0  0  0  0  0  0
    6.5136   -3.1713   -0.0156 C   0  0  0  0  0  0  0  0  0  0  0  0
    6.5870   -0.9800   -0.9454 C   0  0  0  0  0  0  0  0  0  0  0  0
    0.1706   -2.3948   -5.6465 C   0  0  0  0  0  0  0  0  0  0  0  0
   -0.6907   -1.3860   -6.0743 C   0  0  0  0  0  0  0  0  0  0  0  0
   -0.4736   -0.5978   -7.1839 N   0  0  0  0  0  0  0  0  0  0  0  0
   -0.4706    0.8018   -7.0179 C   0  0  0  0  0  0  0  0  0  0  0  0
    0.0750    1.3717   -5.8711 C   0  0  0  0  0  0  0  0  0  0  0  0
    0.1563    2.7444   -5.7495 C   0  0  0  0  0  0  0  0  0  0  0  0
   -0.3103    3.5631   -6.7697 C   0  0  0  0  0  0  0  0  0  0  0  0
   -0.2281    5.3291   -6.7065 S   0  0  0  0  0  0  0  0  0  0  0  0
    1.1901    5.6309   -5.6082 C   0  0  0  0  0  0  0  0  0  0  0  0
   -0.8927    2.9936   -7.8991 C   0  0  0  0  0  0  0  0  0  0  0  0
   -0.9708    1.6236   -8.0250 C   0  0  0  0  0  0  0  0  0  0  0  0
    0.1409   -1.1618   -8.3080 C   0  0  0  0  0  0  0  0  0  0  0  0
    1.1131   -0.4677   -9.0306 C   0  0  0  0  0  0  0  0  0  0  0  0
    1.7442   -1.0670  -10.0970 C   0  0  0  0  0  0  0  0  0  0  0  0
    1.4337   -2.3753  -10.4650 C   0  0  0  0  0  0  0  0  0  0  0  0
    2.3235   -3.0631  -11.8176 S   0  0  0  0  0  0  0  0  0  0  0  0
    2.1313   -4.8504  -11.5642 C   0  0  0  0  0  0  0  0  0  0  0  0
    0.4423   -3.0585   -9.7698 C   0  0  0  0  0  0  0  0  0  0  0  0
   -0.1983   -2.4547   -8.7075 C   0  0  0  0  0  0  0  0  0  0  0  0
   -1.7086   -1.1546   -5.1149 C   0  0  0  0  0  0  0  0  0  0  0  0
   -2.9266    0.0570   -4.8599 S   0  0  0  0  0  0  0  0  0  0  0  0
   -3.3139   -0.6150   -3.2989 C   0  0  0  0  0  0  0  0  0  0  0  0
   -2.5613   -1.7454   -3.0045 C   0  0  0  0  0  0  0  0  0  0  0  0
   -2.4906   -2.3751   -1.7509 N   0  0  0  0  0  0  0  0  0  0  0  0
   -3.3723   -3.4118   -1.4328 C   0  0  0  0  0  0  0  0  0  0  0  0
   -4.0480   -4.1031   -2.4377 C   0  0  0  0  0  0  0  0  0  0  0  0
   -4.9525   -5.0892   -2.1143 C   0  0  0  0  0  0  0  0  0  0  0  0
   -5.2028   -5.4109   -0.7828 C   0  0  0  0  0  0  0  0  0  0  0  0
   -6.3709   -6.7024   -0.4912 S   0  0  0  0  0  0  0  0  0  0  0  0
   -6.6108   -6.6760    1.3079 C   0  0  0  0  0  0  0  0  0  0  0  0
   -4.5351   -4.7229    0.2217 C   0  0  0  0  0  0  0  0  0  0  0  0
   -3.6347   -3.7290   -0.1019 C   0  0  0  0  0  0  0  0  0  0  0  0
   -1.2891   -2.1776   -1.0539 C   0  0  0  0  0  0  0  0  0  0  0  0
   -0.6959   -0.9126   -1.0387 C   0  0  0  0  0  0  0  0  0  0  0  0
    0.4836   -0.6997   -0.3619 C   0  0  0  0  0  0  0  0  0  0  0  0
    1.1101   -1.7451    0.3107 C   0  0  0  0  0  0  0  0  0  0  0  0
    2.6268   -1.3659    1.1338 S   0  0  0  0  0  0  0  0  0  0  0  0
    3.1184   -2.9413    1.8904 C   0  0  0  0  0  0  0  0  0  0  0  0
    0.5343   -3.0075    0.2898 C   0  0  0  0  0  0  0  0  0  0  0  0
   -0.6500   -3.2200   -0.3877 C   0  0  0  0  0  0  0  0  0  0  0  0
   -1.6500   -2.0258   -4.0370 C   0  0  0  0  0  0  0  0  0  0  0  0
   -0.3637   -3.1576   -4.1614 S   0  0  0  0  0  0  0  0  0  0  0  0
   -3.8814    0.1570   -2.2205 C   0  0  0  0  0  0  0  0  0  0  0  0
   -4.5410   -0.4306   -1.1504 C   0  0  0  0  0  0  0  0  0  0  0  0
   -5.2845   -1.5314   -1.3441 F   0  0  0  0  0  0  0  0  0  0  0  0
   -4.4106    0.0541    0.1569 C   0  0  0  0  0  0  0  0  0  0  0  0
   -4.9696   -0.6604    1.1490 F   0  0  0  0  0  0  0  0  0  0  0  0
   -3.5801    1.1238    0.4476 C   0  0  0  0  0  0  0  0  0  0  0  0
   -3.1361    1.8966   -0.6626 C   0  0  0  0  0  0  0  0  0  0  0  0
   -2.4262    3.0112   -0.4460 N   0  0  0  0  0  0  0  0  0  0  0  0
   -2.0380    3.7467   -1.4581 C   0  0  0  0  0  0  0  0  0  0  0  0
   -1.1418    4.9011   -1.1306 C   0  0  0  0  0  0  0  0  0  0  0  0
    0.3182    4.4577   -1.2610 C   0  0  0  0  0  0  0  0  0  0  0  0
   -2.4198    3.3981   -2.7839 C   0  0  0  0  0  0  0  0  0  0  0  0
   -3.0096    2.2500   -3.0170 N   0  0  0  0  0  0  0  0  0  0  0  0
   -3.3565    1.4651   -1.9931 C   0  0  0  0  0  0  0  0  0  0  0  0
   -2.2622    4.3120   -3.9557 C   0  0  0  0  0  0  0  0  0  0  0  0
   -3.4206    5.3117   -4.0027 C   0  0  0  0  0  0  0  0  0  0  0  0
   -2.9946    1.3462    1.7445 C   0  0  0  0  0  0  0  0  0  0  0  0
   -3.4641    1.0774    2.9946 C   0  0  0  0  0  0  0  0  0  0  0  0
   -2.4941    1.2476    4.0146 C   0  0  0  0  0  0  0  0  0  0  0  0
   -2.6544    1.0313    5.4014 C   0  0  0  0  0  0  0  0  0  0  0  0
   -3.9385    0.7650    6.0080 C   0  0  0  0  0  0  0  0  0  0  0  0
   -4.1981   -0.0315    7.0906 C   0  0  0  0  0  0  0  0  0  0  0  0
   -5.5226   -0.0256    7.5630 C   0  0  0  0  0  0  0  0  0  0  0  0
   -6.3781    0.7975    6.8870 C   0  0  0  0  0  0  0  0  0  0  0  0
   -8.0878    0.9057    7.2265 S   0  0  0  0  0  0  0  0  0  0  0  0
   -8.5144    2.5012    6.4447 C   0  0  0  0  0  0  0  0  0  0  0  0
   -7.9684    3.6823    7.2207 C   0  0  0  0  0  0  0  0  0  0  0  0
   -5.5079    1.6607    5.4582 Se  0  0  0  0  0  2  0  0  0  0  0  0
   -1.5008    1.1293    6.1780 C   0  0  0  0  0  0  0  0  0  0  0  0
   -0.2207    1.4108    5.6265 C   0  0  0  0  0  0  0  0  0  0  0  0
   -0.0548    1.6170    4.2295 C   0  0  0  0  0  0  0  0  0  0  0  0
    1.2398    1.7568    3.6157 C   0  0  0  0  0  0  0  0  0  0  0  0
    1.5678    2.4441    2.4742 C   0  0  0  0  0  0  0  0  0  0  0  0
    2.8930    2.3145    2.0288 C   0  0  0  0  0  0  0  0  0  0  0  0
    3.6861    1.4982    2.7897 C   0  0  0  0  0  0  0  0  0  0  0  0
    5.3676    1.1854    2.4407 S   0  0  0  0  0  0  0  0  0  0  0  0
    6.0044    0.6074    4.0583 C   0  0  0  0  0  0  0  0  0  0  0  0
    5.7987   -0.8771    4.2832 C   0  0  0  0  0  0  0  0  0  0  0  0
    2.7255    0.7629    4.2205 Se  0  0  0  0  0  2  0  0  0  0  0  0
   -1.2244    1.5858    3.4762 C   0  0  0  0  0  0  0  0  0  0  0  0
   -1.3207    1.8437    1.7578 S   0  0  0  0  0  0  0  0  0  0  0  0
    0.7487    1.5234    6.6266 C   0  0  0  0  0  0  0  0  0  0  0  0
    0.2730    1.3212    7.9144 C   0  0  0  0  0  0  0  0  0  0  0  0
   -1.4440    0.9857    7.9134 S   0  0  0  0  0  0  0  0  0  0  0  0
    1.1356    1.3725    9.0206 C   0  0  0  0  0  0  0  0  0  0  0  0
    0.8899    1.2124   10.3608 C   0  0  0  0  0  0  0  0  0  0  0  0
   -0.4305    1.0095   10.9757 C   0  0  0  0  0  0  0  0  0  0  0  0
   -1.4977    0.8648   10.4210 O   0  0  0  0  0  0  0  0  0  0  0  0
   -0.1887    1.0237   12.4392 C   0  0  0  0  0  0  0  0  0  0  0  0
    1.1863    1.1874   12.6877 C   0  0  0  0  0  0  0  0  0  0  0  0
    1.6626    1.2426   13.9872 C   0  0  0  0  0  0  0  0  0  0  0  0
    0.7476    1.1307   15.0240 C   0  0  0  0  0  0  0  0  0  0  0  0
    1.1855    1.1852   16.2844 F   0  0  0  0  0  0  0  0  0  0  0  0
   -0.6162    0.9642   14.7939 C   0  0  0  0  0  0  0  0  0  0  0  0
   -1.4642    0.8591   15.8210 F   0  0  0  0  0  0  0  0  0  0  0  0
   -1.0908    0.9099   13.4814 C   0  0  0  0  0  0  0  0  0  0  0  0
   -2.3929    0.7524   13.2642 F   0  0  0  0  0  0  0  0  0  0  0  0
    1.8868    1.2716   11.4062 C   0  0  0  0  0  0  0  0  0  0  0  0
    3.2506    1.3478   11.2566 C   0  0  0  0  0  0  0  0  0  0  0  0
    4.1638    1.3967   12.3301 C   0  0  0  0  0  0  0  0  0  0  0  0
    4.9603    1.4425   13.1558 N   0  0  0  0  0  0  0  0  0  0  0  0
    3.9463    1.3589   10.0301 C   0  0  0  0  0  0  0  0  0  0  0  0
    4.5952    1.3560    9.0814 N   0  0  0  0  0  0  0  0  0  0  0  0
    1.6377   -3.0016   -7.1370 H   0  0  0  0  0  0  0  0  0  0  0  0
    3.5051   -0.5066   -1.7036 H   0  0  0  0  0  0  0  0  0  0  0  0
    6.6523   -3.3829   -4.4444 H   0  0  0  0  0  0  0  0  0  0  0  0
    8.4273   -1.4833   -2.2215 H   0  0  0  0  0  0  0  0  0  0  0  0
    8.2521   -3.9461   -1.2206 H   0  0  0  0  0  0  0  0  0  0  0  0
    9.7446   -2.4894    0.3770 H   0  0  0  0  0  0  0  0  0  0  0  0
    8.1494   -0.8882    1.7718 H   0  0  0  0  0  0  0  0  0  0  0  0
    5.6648   -1.3597    1.0314 H   0  0  0  0  0  0  0  0  0  0  0  0
    6.5893   -3.8510    0.8324 H   0  0  0  0  0  0  0  0  0  0  0  0
    5.6729   -3.4624   -0.6426 H   0  0  0  0  0  0  0  0  0  0  0  0
    6.8377    0.0741   -0.8490 H   0  0  0  0  0  0  0  0  0  0  0  0
    0.4600    0.7394   -5.0841 H   0  0  0  0  0  0  0  0  0  0  0  0
    0.5993    3.1632   -4.8602 H   0  0  0  0  0  0  0  0  0  0  0  0
    1.4646    6.6702   -5.7589 H   0  0  0  0  0  0  0  0  0  0  0  0
    2.0122    4.9831   -5.8957 H   0  0  0  0  0  0  0  0  0  0  0  0
    0.9175    5.4747   -4.5683 H   0  0  0  0  0  0  0  0  0  0  0  0
   -1.2705    3.6372   -8.6781 H   0  0  0  0  0  0  0  0  0  0  0  0
   -1.3996    1.1795   -8.9102 H   0  0  0  0  0  0  0  0  0  0  0  0
    1.3889    0.5335   -8.7362 H   0  0  0  0  0  0  0  0  0  0  0  0
    2.5061   -0.5355  -10.6459 H   0  0  0  0  0  0  0  0  0  0  0  0
    2.8571   -5.3201  -12.2206 H   0  0  0  0  0  0  0  0  0  0  0  0
    1.1295   -5.1663  -11.8406 H   0  0  0  0  0  0  0  0  0  0  0  0
    2.3569   -5.0822  -10.5276 H   0  0  0  0  0  0  0  0  0  0  0  0
    0.1637   -4.0615  -10.0471 H   0  0  0  0  0  0  0  0  0  0  0  0
   -0.9675   -2.9916   -8.1721 H   0  0  0  0  0  0  0  0  0  0  0  0
   -3.8641   -3.8591   -3.4732 H   0  0  0  0  0  0  0  0  0  0  0  0
   -5.4764   -5.6240   -2.8914 H   0  0  0  0  0  0  0  0  0  0  0  0
   -7.3938   -7.4005    1.5092 H   0  0  0  0  0  0  0  0  0  0  0  0
   -5.6965   -6.9739    1.8133 H   0  0  0  0  0  0  0  0  0  0  0  0
   -6.9319   -5.6870    1.6208 H   0  0  0  0  0  0  0  0  0  0  0  0
   -4.7157   -4.9382    1.2623 H   0  0  0  0  0  0  0  0  0  0  0  0
   -3.1418   -3.1789    0.6863 H   0  0  0  0  0  0  0  0  0  0  0  0
   -1.1591   -0.0920   -1.5642 H   0  0  0  0  0  0  0  0  0  0  0  0
    0.9299    0.2831   -0.3461 H   0  0  0  0  0  0  0  0  0  0  0  0
    3.2912   -3.6848    1.1178 H   0  0  0  0  0  0  0  0  0  0  0  0
    2.3579   -3.2687    2.5936 H   0  0  0  0  0  0  0  0  0  0  0  0
    4.0455   -2.7428    2.4187 H   0  0  0  0  0  0  0  0  0  0  0  0
    1.0012   -3.8441    0.7843 H   0  0  0  0  0  0  0  0  0  0  0  0
   -1.0744   -4.2123   -0.4151 H   0  0  0  0  0  0  0  0  0  0  0  0
   -1.3375    5.7480   -1.7877 H   0  0  0  0  0  0  0  0  0  0  0  0
   -1.3336    5.1993   -0.0996 H   0  0  0  0  0  0  0  0  0  0  0  0
    0.5172    3.6333   -0.5802 H   0  0  0  0  0  0  0  0  0  0  0  0
    0.5319    4.1191   -2.2732 H   0  0  0  0  0  0  0  0  0  0  0  0
    0.9861    5.2810   -1.0195 H   0  0  0  0  0  0  0  0  0  0  0  0
   -2.2788    3.7065   -4.8616 H   0  0  0  0  0  0  0  0  0  0  0  0
   -1.3193    4.8536   -3.9016 H   0  0  0  0  0  0  0  0  0  0  0  0
   -3.4523    5.9182   -3.0996 H   0  0  0  0  0  0  0  0  0  0  0  0
   -3.3020    5.9677   -4.8610 H   0  0  0  0  0  0  0  0  0  0  0  0
   -4.3656    4.7827   -4.0961 H   0  0  0  0  0  0  0  0  0  0  0  0
   -4.4674    0.7300    3.1718 H   0  0  0  0  0  0  0  0  0  0  0  0
   -3.4440   -0.6510    7.5444 H   0  0  0  0  0  0  0  0  0  0  0  0
   -5.8425   -0.6133    8.4055 H   0  0  0  0  0  0  0  0  0  0  0  0
   -8.1289    2.4734    5.4204 H   0  0  0  0  0  0  0  0  0  0  0  0
   -9.6034    2.5130    6.4165 H   0  0  0  0  0  0  0  0  0  0  0  0
   -6.8799    3.6470    7.2600 H   0  0  0  0  0  0  0  0  0  0  0  0
   -8.2657    4.6109    6.7379 H   0  0  0  0  0  0  0  0  0  0  0  0
   -8.3511    3.6768    8.2385 H   0  0  0  0  0  0  0  0  0  0  0  0
    0.8711    3.1043    1.9864 H   0  0  0  0  0  0  0  0  0  0  0  0
    3.2720    2.8291    1.1627 H   0  0  0  0  0  0  0  0  0  0  0  0
    5.5063    1.2007    4.8285 H   0  0  0  0  0  0  0  0  0  0  0  0
    7.0646    0.8583    4.0431 H   0  0  0  0  0  0  0  0  0  0  0  0
    6.1950   -1.1543    5.2577 H   0  0  0  0  0  0  0  0  0  0  0  0
    4.7358   -1.1239    4.2636 H   0  0  0  0  0  0  0  0  0  0  0  0
    6.3098   -1.4578    3.5186 H   0  0  0  0  0  0  0  0  0  0  0  0
    1.7779    1.7913    6.4521 H   0  0  0  0  0  0  0  0  0  0  0  0
    2.1622    1.5758    8.7406 H   0  0  0  0  0  0  0  0  0  0  0  0
    2.7048    1.3711   14.2273 H   0  0  0  0  0  0  0  0  0  0  0  0
  1  2  2  0  0  0  0
  2  3  1  0  0  0  0
  3  4  2  0  0  0  0
  3  5  1  0  0  0  0
  5  6  2  0  0  0  0
  6  7  1  0  0  0  0
  7  8  2  0  0  0  0
  8  9  1  0  0  0  0
  9 10  2  0  0  0  0
 10 11  1  0  0  0  0
 11 12  2  0  0  0  0
 12 13  1  0  0  0  0
 13 14  3  0  0  0  0
 12 15  1  0  0  0  0
 15 16  3  0  0  0  0
  8 17  1  0  0  0  0
 17 18  1  0  0  0  0
 18 19  1  0  0  0  0
 19 20  2  0  0  0  0
 20 21  1  0  0  0  0
 21 22  1  0  0  0  0
 21 23  1  0  0  0  0
  1 24  1  0  0  0  0
 24 25  2  0  0  0  0
 25 26  1  0  0  0  0
 26 27  1  0  0  0  0
 27 28  2  0  0  0  0
 28 29  1  0  0  0  0
 29 30  2  0  0  0  0
 30 31  1  0  0  0  0
 31 32  1  0  0  0  0
 30 33  1  0  0  0  0
 33 34  2  0  0  0  0
 26 35  1  0  0  0  0
 35 36  2  0  0  0  0
 36 37  1  0  0  0  0
 37 38  2  0  0  0  0
 38 39  1  0  0  0  0
 39 40  1  0  0  0  0
 38 41  1  0  0  0  0
 41 42  2  0  0  0  0
 25 43  1  0  0  0  0
 43 44  1  0  0  0  0
 44 45  1  0  0  0  0
 45 46  2  0  0  0  0
 46 47  1  0  0  0  0
 47 48  1  0  0  0  0
 48 49  2  0  0  0  0
 49 50  1  0  0  0  0
 50 51  2  0  0  0  0
 51 52  1  0  0  0  0
 52 53  1  0  0  0  0
 51 54  1  0  0  0  0
 54 55  2  0  0  0  0
 47 56  1  0  0  0  0
 56 57  2  0  0  0  0
 57 58  1  0  0  0  0
 58 59  2  0  0  0  0
 59 60  1  0  0  0  0
 60 61  1  0  0  0  0
 59 62  1  0  0  0  0
 62 63  2  0  0  0  0
 46 64  1  0  0  0  0
 64 65  1  0  0  0  0
 45 66  1  0  0  0  0
 66 67  2  0  0  0  0
 67 68  1  0  0  0  0
 67 69  1  0  0  0  0
 69 70  1  0  0  0  0
 69 71  2  0  0  0  0
 71 72  1  0  0  0  0
 72 73  2  0  0  0  0
 73 74  1  0  0  0  0
 74 75  1  0  0  0  0
 75 76  1  0  0  0  0
 74 77  2  0  0  0  0
 77 78  1  0  0  0  0
 78 79  2  0  0  0  0
 77 80  1  0  0  0  0
 80 81  1  0  0  0  0
 71 82  1  0  0  0  0
 82 83  2  0  0  0  0
 83 84  1  0  0  0  0
 84 85  2  0  0  0  0
 85 86  1  0  0  0  0
 86 87  2  0  0  0  0
 87 88  1  0  0  0  0
 88 89  2  0  0  0  0
 89 90  1  0  0  0  0
 90 91  1  0  0  0  0
 91 92  1  0  0  0  0
 89 93  1  0  0  0  0
 85 94  1  0  0  0  0
 94 95  2  0  0  0  0
 95 96  1  0  0  0  0
 96 97  1  0  0  0  0
 97 98  2  0  0  0  0
 98 99  1  0  0  0  0
 99100  2  0  0  0  0
100101  1  0  0  0  0
101102  1  0  0  0  0
102103  1  0  0  0  0
100104  1  0  0  0  0
 96105  2  0  0  0  0
105106  1  0  0  0  0
 95107  1  0  0  0  0
107108  2  0  0  0  0
108109  1  0  0  0  0
108110  1  0  0  0  0
110111  2  0  0  0  0
111112  1  0  0  0  0
112113  2  0  0  0  0
112114  1  0  0  0  0
114115  2  0  0  0  0
115116  1  0  0  0  0
116117  2  0  0  0  0
117118  1  0  0  0  0
117119  1  0  0  0  0
119120  1  0  0  0  0
119121  2  0  0  0  0
121122  1  0  0  0  0
115123  1  0  0  0  0
123124  2  0  0  0  0
124125  1  0  0  0  0
125126  3  0  0  0  0
124127  1  0  0  0  0
127128  3  0  0  0  0
 11  2  1  0  0  0  0
 23 17  1  0  0  0  0
 65 24  1  0  0  0  0
 79 66  1  0  0  0  0
106 82  1  0  0  0  0
123111  1  0  0  0  0
 10  5  1  0  0  0  0
 22 18  1  0  0  0  0
 34 27  1  0  0  0  0
 42 35  1  0  0  0  0
 64 43  2  0  0  0  0
 79 72  1  0  0  0  0
105 84  1  0  0  0  0
121114  1  0  0  0  0
 23  7  1  0  0  0  0
 55 48  1  0  0  0  0
 63 56  1  0  0  0  0
 93 86  1  0  0  0  0
109 94  1  0  0  0  0
104 97  1  0  0  0  0
  1129  1  0  0  0  0
  6130  1  0  0  0  0
  9131  1  0  0  0  0
 17132  1  0  0  0  0
 18133  1  0  0  0  0
 19134  1  0  0  0  0
 20135  1  0  0  0  0
 21136  1  0  0  0  0
 22137  1  0  0  0  0
 22138  1  0  0  0  0
 23139  1  0  0  0  0
 28140  1  0  0  0  0
 29141  1  0  0  0  0
 32142  1  0  0  0  0
 32143  1  0  0  0  0
 32144  1  0  0  0  0
 33145  1  0  0  0  0
 34146  1  0  0  0  0
 36147  1  0  0  0  0
 37148  1  0  0  0  0
 40149  1  0  0  0  0
 40150  1  0  0  0  0
 40151  1  0  0  0  0
 41152  1  0  0  0  0
 42153  1  0  0  0  0
 49154  1  0  0  0  0
 50155  1  0  0  0  0
 53156  1  0  0  0  0
 53157  1  0  0  0  0
 53158  1  0  0  0  0
 54159  1  0  0  0  0
 55160  1  0  0  0  0
 57161  1  0  0  0  0
 58162  1  0  0  0  0
 61163  1  0  0  0  0
 61164  1  0  0  0  0
 61165  1  0  0  0  0
 62166  1  0  0  0  0
 63167  1  0  0  0  0
 75168  1  0  0  0  0
 75169  1  0  0  0  0
 76170  1  0  0  0  0
 76171  1  0  0  0  0
 76172  1  0  0  0  0
 80173  1  0  0  0  0
 80174  1  0  0  0  0
 81175  1  0  0  0  0
 81176  1  0  0  0  0
 81177  1  0  0  0  0
 83178  1  0  0  0  0
 87179  1  0  0  0  0
 88180  1  0  0  0  0
 91181  1  0  0  0  0
 91182  1  0  0  0  0
 92183  1  0  0  0  0
 92184  1  0  0  0  0
 92185  1  0  0  0  0
 98186  1  0  0  0  0
 99187  1  0  0  0  0
102188  1  0  0  0  0
102189  1  0  0  0  0
103190  1  0  0  0  0
103191  1  0  0  0  0
103192  1  0  0  0  0
107193  1  0  0  0  0
110194  1  0  0  0  0
116195  1  0  0  0  0
M  END
