160

C          6.89020        0.92670        3.24240
C          7.63180        1.87620        2.59220
C          7.09770        2.86040        1.62570
O          5.95050        2.99770        1.24600
C          8.21760        3.77550        1.32690
C          8.19700        4.86400        0.45810
C          9.38170        5.55830        0.40120
C         10.50430        5.20200        1.15940
C         10.53800        4.13220        2.02210
C          9.34270        3.41020        2.09210
C          9.00190        2.22960        2.88280
C          9.86290        1.53670        3.69840
C         11.19890        1.90780        3.95080
N         12.29080        2.15410        4.20890
C          9.55120        0.34870        4.38810
N          9.39980       -0.62900        4.97370
C         11.33070        6.34370        0.62090
C         11.51240        7.56180        1.55110
C         11.92650        8.67370        0.61450
C         10.86480        9.01010       -0.10670
C          9.71500        8.13160        0.33080
C         10.05750        7.96960        1.81740
C         10.07960        6.73940       -0.22720
C          5.63970        0.41620        2.82490
C          5.22740        0.28810        1.48070
C          3.93080       -0.23600        1.12690
N          3.74830       -0.26300       -0.19420
S          5.07660        0.28360       -0.91740
N          5.94940        0.56780        0.39500
C          2.99460       -0.72320        2.06920
C          3.38740       -0.54840        3.41560
N          2.62690       -0.75860        4.49050
S          3.46080       -0.37400        5.81040
N          4.83080        0.07680        5.09510
C          4.69090       -0.03050        3.77400
C          1.75870       -1.24570        1.62450
C          0.82570       -2.09130        2.25510
N          1.09540       -2.91010        3.32200
C          0.06740       -3.26070        4.20620
C         -0.01740       -4.55580        4.70850
C         -1.03720       -4.90980        5.56940
C         -1.99130       -3.97020        5.94140
S         -3.34180       -4.30060        7.02270
C         -3.15390       -6.05600        7.44480
C         -1.89950       -2.66800        5.44960
C         -0.88220       -2.31450        4.59390
C          2.40790       -3.34130        3.55300
C          3.25870       -3.61760        2.47980
C          4.60320       -3.80970        2.69090
C          5.13140       -3.74130        3.98110
S          6.88180       -3.79030        4.14390
C          7.16270       -2.88250        5.69170
C          4.26360       -3.62150        5.06140
C          2.91270       -3.43050        4.84900
C         -0.39040       -2.10770        1.53050
S         -1.93250       -2.87300        1.74400
C         -2.52660       -2.14620        0.25870
C         -1.54660       -1.42170       -0.40830
N         -1.65780       -0.83890       -1.65960
C         -2.43240       -1.40070       -2.68150
C         -2.60370       -2.77850       -2.79150
C         -3.46610       -3.31010       -3.72860
C         -4.15990       -2.46980       -4.58830
S         -5.34270       -3.03350       -5.77400
C         -5.43950       -4.82260       -5.48120
C         -3.93370       -1.09650       -4.53610
C         -3.08010       -0.56730       -3.59420
C         -0.76590        0.21560       -1.94180
C         -0.65590        1.28090       -1.05160
C          0.37060        2.19540       -1.17860
C          1.30550        2.04580       -2.19470
S          2.77680        3.02210       -2.27020
C          3.09370        3.33070       -0.50540
C          1.11440        1.06580       -3.16520
C          0.08390        0.15940       -3.04550
C         -0.34800       -1.38970        0.34470
S          1.21370       -0.71230        0.04590
C         -3.86850       -2.38240       -0.20930
C         -4.56860       -1.36140       -0.86580
C         -5.71700       -1.62970       -1.56670
C         -6.21550       -2.93790       -1.64140
C         -5.61540       -3.91390       -0.82220
C         -4.46600       -3.64420       -0.12080
C         -7.24340       -3.39240       -2.53150
C         -7.78550       -2.87710       -3.67030
C         -7.62020       -1.54010       -4.30340
O         -6.95070       -0.59500       -3.94210
C         -8.51050       -1.53560       -5.47810
C         -8.69910       -0.47640       -6.36340
C         -9.62120       -0.72960       -7.34910
C        -10.31070       -1.94670       -7.44490
C        -10.12740       -3.00130       -6.58440
C         -9.18500       -2.76620       -5.57610
C         -8.69710       -3.64220       -4.51910
C         -8.97250       -4.98300       -4.43330
C         -9.84790       -5.67650       -5.29670
N        -10.54200       -6.31710       -5.94960
C         -8.39070       -5.90840       -3.54070
N         -7.94290       -6.74980       -2.89730
C        -11.09490       -1.49930       -8.65330
C        -12.55950       -1.07890       -8.40750
C        -12.90950       -0.25730       -9.62720
C        -12.25480        0.89350       -9.54000
C        -11.45170        0.86940       -8.25960
C        -12.39250        0.04250       -7.37370
C        -10.32400       -0.14430       -8.54860
H          7.24380        0.54440        4.19210
H          7.31120        5.10540       -0.10850
H         11.40860        3.87230        2.60080
H         12.24560        6.06490        0.10160
H         12.14940        7.38500        2.41340
H         12.92980        9.04960        0.53610
H         10.80400        9.72320       -0.90800
H          8.71450        8.47500        0.08140
H          9.98670        8.91030        2.36130
H          9.46970        7.20880        2.32760
H         10.16030        6.72310       -1.31260
H          0.71730       -5.29060        4.41390
H         -1.07990       -5.92260        5.93540
H         -3.97920       -6.28390        8.11200
H         -3.22730       -6.66400        6.54800
H         -2.21090       -6.21750        7.95860
H         -2.63480       -1.94000        5.75510
H         -0.79950       -1.30090        4.23280
H          2.86530       -3.63960        1.47460
H          5.26930       -3.98210        1.85990
H          7.02910       -3.53870        6.54700
H          8.18800       -2.52800        5.64440
H          6.48790       -2.03280        5.73370
H          4.64060       -3.64550        6.07160
H          2.25070       -3.28450        5.68930
H         -2.06830       -3.44140       -2.12850
H         -3.58760       -4.38010       -3.77240
H         -6.20030       -5.19170       -6.16280
H         -4.48710       -5.28980       -5.71290
H         -5.73420       -5.01810       -4.45320
H         -4.45930       -0.44960       -5.22000
H         -2.92770        0.50000       -3.54020
H         -1.35190        1.36100       -0.22900
H          0.45520        3.00010       -0.46560
H          2.79520        2.45380        0.06090
H          4.16150        3.49150       -0.39160
H          2.55170        4.21110       -0.17170
H          1.81430        0.99210       -3.98290
H         -0.03430       -0.63430       -3.76800
H         -4.18590       -0.35300       -0.83460
H         -6.21320       -0.83440       -2.09380
H         -6.03040       -4.91180       -0.79830
H         -3.97920       -4.42000        0.45240
H         -7.58130       -4.39180       -2.28030
H         -8.14780        0.44360       -6.24890
H        -10.66690       -3.92900       -6.67350
H        -10.97030       -2.10280       -9.55030
H        -13.23160       -1.89540       -8.15780
H        -13.53270       -0.60870      -10.42850
H        -12.22160        1.69540      -10.25410
H        -11.11480        1.82830       -7.87510
H        -13.32920        0.55980       -7.17290
H        -11.94700       -0.28160       -6.43490
H         -9.68290        0.15540       -9.37550
