199

C         -0.52130       -3.69200       -9.55310
C         -0.35680       -4.94190      -10.06350
C          0.25830       -6.08840       -9.35220
O          0.69230       -6.11510       -8.21830
C          0.37890       -7.16490      -10.35200
C          0.88570       -8.44690      -10.14350
C          0.89450       -9.23700      -11.26690
C          0.43670       -8.78610      -12.51240
C         -0.06880       -7.52750      -12.73260
C         -0.08880       -6.70630      -11.60010
C         -0.56470       -5.33530      -11.44640
C         -1.17350       -4.58500      -12.41710
C         -1.72840       -3.30060      -12.22810
N         -2.22880       -2.26910      -12.16340
C         -1.35990       -5.00340      -13.75160
N         -1.53680       -5.27270      -14.85360
C          0.74710      -10.09710      -13.19070
C          2.02380      -10.14020      -14.05700
C          2.32330      -11.61620      -14.18580
C          2.75400      -12.04510      -13.00630
C          2.75330      -10.86580      -12.06050
C          3.10270       -9.73990      -13.04230
C          1.25490      -10.60070      -11.80140
C         -0.48800       -3.30360       -8.17820
C         -0.94590       -4.06730       -7.10690
F         -1.54240       -5.24460       -7.32850
C         -0.93510       -3.60770       -5.78720
F         -1.48420       -4.40740       -4.85150
C         -0.47980       -2.34580       -5.41440
C         -0.08300       -1.50970       -6.48890
C         -0.07930       -1.98390       -7.84310
N          0.35770       -1.05780       -8.69090
S          0.71510        0.27800       -7.86730
N          0.34960       -0.25620       -6.39440
C         -0.45170       -1.88460       -4.06270
C         -0.17430       -2.62740       -2.91560
N          0.35630       -3.89530       -2.91460
C          0.07010       -4.75800       -1.85100
C         -1.21060       -4.78390       -1.29590
C         -1.48670       -5.60950       -0.23080
C         -0.49600       -6.43410        0.30090
S         -0.96850       -7.44030        1.66940
C          0.55690       -8.31420        2.12270
C          0.77380       -6.42550       -0.26210
C          1.05340       -5.59210       -1.32670
C          1.25870       -4.28140       -3.92100
C          2.19650       -3.37370       -4.41560
C          3.06120       -3.75000       -5.41650
C          3.02130       -5.04240       -5.94030
S          4.18920       -5.40680       -7.20550
C          3.70260       -7.06000       -7.76920
C          2.10480       -5.95430       -5.43440
C          1.22780       -5.57220       -4.43840
C         -0.36280       -1.83910       -1.75430
S         -0.21030       -2.13730       -0.05580
C         -0.58590       -0.46260        0.27830
C         -0.88690        0.26260       -0.86100
N         -1.36210        1.56880       -0.85900
C         -2.24840        1.96370        0.15010
C         -2.15100        3.21390        0.75440
C         -2.92370        3.53910        1.85100
C         -3.82920        2.61890        2.35880
S         -4.78610        2.88580        3.82040
C         -3.94210        4.27610        4.62370
C         -4.00910        1.40770        1.69410
C         -3.22980        1.08220        0.60750
C         -0.76850        2.50730       -1.71400
C          0.58870        2.43150       -2.01260
C          1.18850        3.38040       -2.81690
C          0.43780        4.42890       -3.32870
S          1.11450        5.73130       -4.31050
C          2.90240        5.58200       -4.03320
C         -0.92930        4.48900       -3.06160
C         -1.52880        3.53820       -2.26680
C         -0.72540       -0.52750       -2.02350
S         -0.81640       -0.20330       -3.71810
C         -0.55410        0.10690        1.59750
C          0.09220        1.26020        1.92040
C         -0.18930        1.72290        3.22870
C          0.32800        2.85710        3.87550
C          1.40830        3.67240        3.29510
C          2.57080        3.86210        4.04030
C          3.62790        4.58110        3.51360
C          3.53890        5.12160        2.24490
C          2.38070        4.94170        1.49760
S          2.36620        5.61900       -0.14300
C          0.64790        6.19890       -0.36240
C          0.22710        7.18010        0.71210
C          1.31960        4.21700        2.01880
C         -0.15730        3.10880        5.14740
C         -1.07900        2.26420        5.81620
C         -1.53360        1.08790        5.19660
C         -2.41560        0.14800        5.89860
C         -3.59270       -0.30180        5.30490
C         -4.41120       -1.18280        5.98500
C         -4.07380       -1.63380        7.24900
C         -2.89050       -1.20590        7.83680
S         -2.36360       -1.68540        9.45640
C         -3.18400       -3.29340        9.73850
C         -2.69490       -4.36060        8.77890
C         -2.06710       -0.31300        7.16160
C         -1.09160        0.86180        3.90320
S         -1.50510       -0.52120        2.92420
C         -1.42590        2.76770        7.09270
C         -0.76350        3.91400        7.43190
S          0.25680        4.49350        6.12120
C         -0.86600        4.61340        8.66800
C          0.05960        5.41180        9.25080
C         -0.33540        6.37310       10.31940
O         -1.37110        6.37420       10.94380
C          0.77380        7.34250       10.39400
C          0.82660        8.50460       11.16240
C          1.98890        9.22220       11.01430
C          3.02310        8.82610       10.15400
C          2.98840        7.68300        9.39230
C          1.81990        6.93030        9.54000
C          1.45990        5.64540        8.95140
C          2.33820        4.72110        8.45310
C          3.70320        4.97110        8.20870
N          4.81380        5.12060        7.95880
C          1.99170        3.37480        8.20490
N          1.77650        2.25760        8.05120
C          3.88030       10.01550       10.50700
C          5.05520        9.75060       11.47230
C          5.40040       11.12170       12.00690
C          4.42460       11.49290       12.82580
C          3.40310       10.37890       12.85830
C          4.32930        9.16730       12.69160
C          2.73090       10.45360       11.47050
H         -0.66200       -2.86060      -10.23250
H          1.21940       -8.76390       -9.16760
H         -0.42070       -7.19720      -13.69530
H         -0.09790      -10.60390      -13.65240
H          1.96680       -9.56960      -14.97970
H          2.14400      -12.18920      -15.07650
H          3.00600      -13.04780      -12.71470
H          3.36190      -10.95710      -11.16460
H          4.10770       -9.84450      -13.44770
H          2.97760       -8.73890      -12.63330
H          0.74710      -11.44330      -11.33570
H         -1.98680       -4.16490       -1.71910
H         -2.47520       -5.63210        0.20090
H          0.29910       -8.92160        2.98470
H          0.87810       -8.95340        1.30550
H          1.32730       -7.59830        2.39370
H          1.55940       -7.05510        0.12310
H          2.04630       -5.57950       -1.75130
H          2.24440       -2.37350       -4.01110
H          3.78780       -3.05030       -5.80050
H          3.93180       -7.79760       -7.00500
H          2.64330       -7.04160       -8.00650
H          4.28820       -7.25650       -8.66210
H          2.04700       -6.95850       -5.81710
H          0.50000       -6.27590       -4.06350
H         -1.45060        3.93830        0.36890
H         -2.79760        4.50750        2.30820
H         -4.35200        4.32910        5.62750
H         -2.87590        4.07520        4.66900
H         -4.14790        5.20230        4.09430
H         -4.75680        0.71600        2.05090
H         -3.35900        0.12770        0.12000
H          1.18400        1.63120       -1.59720
H          2.24350        3.29970       -3.02000
H          3.10200        5.54940       -2.96570
H          3.34120        6.47510       -4.46700
H          3.28950        4.70160       -4.53790
H         -1.51120        5.29500       -3.48170
H         -2.58640        3.59090       -2.05600
H          0.75570        1.76340        1.24080
H          2.65520        3.41850        5.02120
H          4.52520        4.71980        4.09710
H          4.35790        5.68220        1.82160
H         -0.00690        5.32970       -0.41130
H          0.65790        6.67240       -1.34390
H         -0.78200        7.53420        0.50950
H          0.24180        6.71230        1.69550
H          0.90020        8.03430        0.72760
H          0.41630        4.07480        1.44770
H         -3.87740        0.06430        4.33170
H         -5.33170       -1.51860        5.53120
H         -4.73950       -2.30700        7.76550
H         -4.26290       -3.15120        9.68520
H         -2.91750       -3.53960       10.76630
H         -2.92310       -4.09190        7.74930
H         -1.61810       -4.48260        8.87080
H         -3.17490       -5.31070        9.00550
H         -1.14080        0.00080        7.61950
H         -2.11300        2.27530        7.75710
H         -1.81870        4.53520        9.18240
H          0.00690        8.78010       11.80720
H          3.78300        7.38940        8.72590
H          4.14660       10.67170        9.68070
H          5.86960        9.16990       11.04820
H          6.26290       11.68480       11.70220
H          4.30890       12.42800       13.34180
H          2.71380       10.37130       13.69830
H          4.99490        9.03840       13.54340
H          3.80800        8.23270       12.49310
H          2.23210       11.40400       11.29020
