177

C         -3.86400       -3.88620       -4.94430
C         -5.05290       -3.53880       -5.49610
C         -5.56140       -4.26280       -6.69680
O         -5.16290       -5.31950       -7.12870
C         -6.60630       -3.38650       -7.26230
C         -7.28760       -3.55400       -8.46570
C         -8.19260       -2.55700       -8.74120
C         -8.40110       -1.46270       -7.89010
C         -7.73990       -1.28490       -6.69850
C         -6.82330       -2.29430       -6.39490
C         -5.97700       -2.46050       -5.21960
C         -6.16790       -1.87070       -3.99650
C         -7.10110       -0.85190       -3.73960
N         -7.82910       -0.00350       -3.47310
C         -5.48020       -2.28370       -2.83870
N         -4.96470       -2.62240       -1.87000
C         -9.44350       -0.85590       -8.79530
C        -10.92890       -1.00920       -8.38480
C        -11.01360       -2.25940       -7.54440
C        -10.82110       -3.29900       -8.34520
C        -10.60240       -2.77060       -9.74140
C        -11.51160       -1.53180       -9.70750
C         -9.21660       -2.07830       -9.73960
C         -3.01970       -3.14230       -4.05980
C         -2.91740       -1.75480       -4.03800
F         -3.61530       -1.01520       -4.92250
C         -2.05770       -1.06760       -3.18860
F         -1.95320        0.26460       -3.36680
C         -1.25810       -1.71870       -2.25260
C         -1.28410       -3.14520       -2.30520
N         -0.45760       -3.81820       -1.49830
C         -0.45450       -5.13000       -1.50780
C          0.54230       -5.79520       -0.61130
C          1.84290       -6.04790       -1.37620
C         -1.32710       -5.83310       -2.38220
N         -2.12890       -5.18670       -3.19520
C         -2.13580       -3.84530       -3.18860
C         -1.43280       -7.32720       -2.40880
C         -2.45180       -7.79570       -1.36620
C         -0.36130       -1.07110       -1.36040
C         -0.38340        0.24760       -0.89080
N         -1.46950        1.08780       -0.90420
C         -1.23980        2.47220       -0.85170
C         -1.91710        3.27030        0.06530
C         -1.65210        4.62230        0.15090
C         -0.70150        5.19890       -0.68220
S         -0.23980        6.90060       -0.62640
C         -1.39320        7.63040        0.57240
C         -0.03950        4.40680       -1.61880
C         -0.30560        3.05910       -1.70570
C         -2.78030        0.61760       -0.71260
C         -3.04860       -0.48860        0.09380
C         -4.34880       -0.86320        0.34270
C         -5.41300       -0.14780       -0.20580
S         -7.03140       -0.68090        0.23310
C         -8.10480        0.67110       -0.33290
C         -5.14920        0.92460       -1.04870
C         -3.84430        1.30170       -1.29560
C          0.84380        0.57660       -0.26810
S          1.43540        2.00790        0.51960
C          2.94360        1.18950        0.85230
C          2.90620       -0.17410        0.53830
N          3.81870       -1.09040        1.01400
C          4.16090       -2.21000        0.25450
C          4.48100       -3.41550        0.87400
C          4.84910       -4.51520        0.12540
C          4.89820       -4.42940       -1.26000
S          5.34680       -5.76770       -2.31950
C          6.00890       -7.01910       -1.18240
C          4.56300       -3.22870       -1.88380
C          4.20200       -2.13040       -1.13840
C          4.40720       -0.85570        2.27070
C          3.64670       -0.29570        3.29740
C          4.24220        0.11690        4.46990
C          5.61020       -0.05260        4.65140
S          6.46240        0.54860        6.07630
C          5.44070        1.96950        6.57620
C          6.34970       -0.72360        3.68300
C          5.75910       -1.10850        2.49740
C          1.72170       -0.49300       -0.16330
S          1.05020       -1.96140       -0.80900
C          4.01680        1.92020        1.43010
C          5.36690        1.64810        1.22060
F          5.71910        0.77090        0.26020
C          6.38410        2.30570        1.90970
F          7.63690        2.08890        1.50140
C          6.11440        3.22780        2.92140
C          4.74520        3.63620        3.04160
N          4.41190        4.58610        3.92540
C          3.17630        5.02890        3.98350
C          2.90940        6.03100        5.06300
C          2.84320        5.32950        6.42240
C          2.19510        4.53670        3.07900
N          2.49100        3.53580        2.28230
C          3.73210        3.04460        2.25840
C          0.80430        5.07720        2.94950
C         -0.14590        4.41920        3.95120
C          7.03850        3.88150        3.78910
C          8.26760        3.51760        4.24370
C          8.99750        2.23990        4.02800
O          8.56520        1.19670        3.59830
C         10.35830        2.47600        4.55440
C         11.46120        1.64550        4.50140
C         12.65140        2.08720        5.05620
C         12.71130        3.34100        5.65490
Cl        14.20310        3.87590        6.33180
C         11.60580        4.18160        5.72640
C         10.41720        3.73760        5.16970
C          9.10020        4.36590        5.08370
C          8.72760        5.51160        5.73500
C          7.43860        6.08890        5.75230
N          6.43160        6.63160        5.85990
C          9.59460        6.27000        6.55200
N         10.23850        6.93440        7.23160
H         -3.46690       -4.85140       -5.23980
H         -7.09460       -4.40590       -9.09870
H         -7.89610       -0.43520       -6.05400
H         -9.21940        0.13590       -9.18310
H        -11.37450       -0.11390       -7.95950
H        -11.14250       -2.25610       -6.47790
H        -10.75730       -4.33840       -8.08150
H        -10.75170       -3.47910      -10.55190
H        -12.56760       -1.78640       -9.63110
H        -11.35590       -0.85600      -10.54750
H         -8.84880       -1.88500      -10.74550
H          0.14730       -6.73310       -0.22170
H          0.75040       -5.12080        0.22000
H          2.24910       -5.10500       -1.73260
H          1.67880       -6.69890       -2.23180
H          2.57280       -6.51420       -0.72000
H         -1.77940       -7.62320       -3.39920
H         -0.46430       -7.78880       -2.21830
H         -2.14750       -7.50350       -0.36330
H         -3.42240       -7.35200       -1.57230
H         -2.54830       -8.87790       -1.39890
H         -2.64420        2.82410        0.72730
H         -2.18500        5.21060        0.88020
H         -1.16510        8.69170        0.58560
H         -1.22800        7.20660        1.55860
H         -2.41620        7.47780        0.24180
H          0.68550        4.86440       -2.27390
H          0.20170        2.44860       -2.43660
H         -2.23720       -1.03850        0.54590
H         -4.55990       -1.70870        0.97760
H         -7.74590        1.61320        0.07040
H         -8.14400        0.68750       -1.41900
H         -9.08870        0.44640        0.06690
H         -5.94990        1.46640       -1.52570
H         -3.64110        2.13570       -1.95070
H          4.43950       -3.49060        1.95040
H          5.08970       -5.43400        0.63550
H          6.42080       -7.79970       -1.81430
H          6.79520       -6.58240       -0.57420
H          5.21430       -7.42950       -0.56580
H          4.60630       -3.16730       -2.96030
H          3.98000       -1.19450       -1.62650
H          2.58420       -0.15550        3.16250
H          3.63430        0.56810        5.23830
H          4.54310        1.63520        7.08850
H          6.05330        2.54890        7.26020
H          5.19680        2.56610        5.70200
H          7.40300       -0.88330        3.84070
H          6.35550       -1.56210        1.72080
H          3.74370        6.73310        5.08690
H          1.98370        6.57300        4.87600
H          2.64040        6.05530        7.20510
H          3.79530        4.84960        6.63240
H          2.06040        4.57290        6.43630
H          0.80920        6.15940        3.09020
H          0.46390        4.84840        1.93810
H         -1.15850        4.78750        3.80480
H          0.15390        4.63390        4.97390
H         -0.14690        3.34200        3.80460
H          6.62650        4.80760        4.17300
H         11.38780        0.67870        4.02850
H         13.53520        1.46970        5.02680
H         11.69580        5.14580        6.19860
