250

C         -5.06840        7.37290        2.61730
C         -6.42600        7.40940        2.78060
C         -7.16430        8.64990        2.44760
O         -6.69660        9.75820        2.29580
C         -8.57260        8.23180        2.28270
C         -9.64070        9.01480        1.85340
C        -10.83220        8.33570        1.75790
C        -10.95570        6.97480        2.06550
C         -9.91350        6.19200        2.50330
C         -8.69450        6.86430        2.60870
C         -7.39440        6.38620        3.07790
C         -7.19070        5.29590        3.89220
C         -6.00540        5.12320        4.63440
N         -5.08180        5.01450        5.30920
C         -8.16070        4.31100        4.13560
N         -8.92060        3.46910        4.32070
C        -12.42420        6.94830        1.72280
C        -12.83900        6.33080        0.36430
C        -11.65900        6.49510       -0.56090
C        -11.54590        7.78500       -0.84800
C        -12.64700        8.51640       -0.12110
C        -13.75280        7.44940       -0.16100
C        -12.28840        8.46640        1.38480
C         -4.23080        6.26900        2.40230
C         -2.83090        6.31590        2.25910
N         -2.06600        7.41220        2.56420
C         -2.41170        8.22590        3.66350
C         -2.28990        9.61260        3.58860
C         -2.65030       10.39620        4.66200
C         -3.14480        9.81520        5.82870
S         -3.58310       10.91740        7.13280
C         -4.37940        9.84300        8.36020
C         -3.25580        8.43290        5.90810
C         -2.88660        7.64620        4.83610
C         -0.93600        7.71820        1.79560
C         -0.93270        7.47940        0.42050
C          0.13650        7.87720       -0.34990
C          1.21870        8.53250        0.23130
S          2.48120        9.10620       -0.85830
C          3.44630       10.24780        0.17120
C          1.24690        8.72050        1.60670
C          0.18030        8.31140        2.38000
C         -2.31790        5.07150        1.83380
S         -0.74000        4.44090        1.46630
C         -1.41250        2.83150        1.24010
C         -2.79200        2.81920        1.38070
N         -3.60250        1.70290        1.20470
C         -4.52760        1.43400        2.22530
C         -5.83300        1.04210        1.95190
C         -6.73270        0.83150        2.97920
C         -6.34190        1.01710        4.29840
S         -7.38620        0.75120        5.69540
C         -8.99350        0.33150        4.97100
C         -5.03490        1.41320        4.57510
C         -4.13760        1.61580        3.55270
C         -3.54550        0.99610        0.00540
C         -3.84770       -0.36470       -0.03470
C         -3.74130       -1.06540       -1.21460
C         -3.34190       -0.42720       -2.38720
S         -3.19260       -1.43000       -3.83530
C         -3.12400       -0.22230       -5.19040
C         -3.05920        0.93130       -2.35750
C         -3.15800        1.63330       -1.17160
C         -3.29060        4.09040        1.71220
S         -4.87520        4.66730        2.04340
C         -0.63770        1.64340        1.06050
C          0.44620        1.37090        0.25110
N          1.07440        2.24580       -0.63620
C          1.74750        3.37090       -0.16280
C          2.11520        3.47650        1.17990
C          2.84020        4.56320        1.62020
C          3.21890        5.55790        0.72950
S          4.23520        6.87580        1.33470
C          5.37500        7.11720       -0.06620
C          2.81020        5.48950       -0.59580
C          2.07790        4.40740       -1.03590
C          1.37730        1.67270       -1.88640
C          2.64050        1.75270       -2.46470
C          2.91230        1.08930       -3.64570
C          1.93150        0.32110       -4.25900
S          2.18460       -0.57180       -5.76160
C          3.96480       -0.92650       -5.72470
C          0.66350        0.24900       -3.68960
C          0.38750        0.92090       -2.52130
C          0.83830        0.01520        0.36230
S          2.08890       -0.90990       -0.37330
C          1.64170       -2.32290        0.57920
C          0.59700       -2.05570        1.46010
N          0.06390       -2.89060        2.42510
C          0.82180       -3.66140        3.30310
C          0.18220       -4.61200        4.10540
C          0.90020       -5.37500        4.99590
C          2.28300       -5.24650        5.08330
S          3.12410       -6.32060        6.20750
C          4.79470       -6.40210        5.50130
C          2.92480       -4.29760        4.30180
C          2.20140       -3.50790        3.42990
C         -1.32320       -2.73510        2.68560
C         -2.24610       -3.07730        1.70260
C         -3.59590       -2.99400        1.97010
C         -4.04420       -2.53930        3.20890
S         -5.78790       -2.48100        3.45530
C         -5.94800       -2.44640        5.26270
C         -3.12220       -2.15380        4.17430
C         -1.77060       -2.26390        3.91560
C          0.12210       -0.72870        1.28060
S         -1.12310        0.22820        2.00550
C          2.35760       -3.51400        0.26950
C          2.14000       -4.82420        0.60050
C          3.03570       -5.72440       -0.02970
C          3.06580       -7.13120        0.05580
C          2.22920       -7.88090        0.97060
C          1.59160       -9.06880        0.75590
C          0.95970       -9.55950        1.91790
Cl         0.08040      -11.03860        1.93760
C          1.11850       -8.77700        3.02510
C          0.56860       -8.99130        4.39170
C         -0.90480       -8.58170        4.45850
S          2.04850       -7.37550        2.62790
C          3.97490       -7.78950       -0.76680
C          4.89120       -7.11140       -1.60840
C          4.91350       -5.70050       -1.64380
C          5.87950       -4.99600       -2.45930
C          7.20620       -5.28460       -2.62740
C          7.86140       -4.40650       -3.51150
C          7.04200       -3.45140       -4.03080
C          7.39050       -2.34270       -4.96260
C          7.49650       -1.00980       -4.21800
S          5.43090       -3.61150       -3.41250
C          3.95390       -5.05490       -0.87990
S          3.72050       -3.33500       -0.82230
C          5.65060       -8.00190       -2.39010
C          5.36400       -9.32360       -2.16550
S          4.15540       -9.51350       -0.90900
C          5.92520      -10.46860       -2.78510
C          6.56490      -10.54770       -3.98160
C          7.42670      -11.72750       -4.27400
O          7.45260      -12.77180       -3.66360
C          8.26960      -11.32320       -5.41520
C          9.31210      -12.04590       -5.99130
C          9.92990      -11.40280       -7.03680
C          9.55440      -10.12320       -7.46900
C          8.52750       -9.39900       -6.91310
C          7.87170      -10.04520       -5.86210
C          6.70790       -9.62170       -5.08710
C          5.79500       -8.68270       -5.49150
C          4.53300       -8.49800       -4.88870
N          3.47450       -8.33490       -4.47640
C          5.96790       -7.83060       -6.60030
N          6.06670       -7.08400       -7.46730
C         10.59920      -10.09610       -8.55570
C         10.12490      -10.33770      -10.01000
C          8.86770      -11.16690       -9.91730
C          9.21390      -12.38220       -9.51430
C         10.71110      -12.39670       -9.32740
C         11.13150      -11.41820      -10.43570
C         11.01050      -11.52570       -8.08160
H         -4.60320        8.34770        2.51260
H         -9.50490       10.06060        1.62600
H        -10.01740        5.14460        2.73420
H        -13.09720        6.66380        2.52940
H        -13.25980        5.33100        0.43270
H        -11.01200        5.68960       -0.85560
H        -10.78590        8.27210       -1.43050
H        -12.89370        9.50680       -0.49460
H        -14.11710        7.25760       -1.16920
H        -14.59180        7.66940        0.49780
H        -12.87090        9.17240        1.97360
H         -1.92810       10.07130        2.68050
H         -2.56790       11.47040        4.60430
H         -4.74480       10.50760        9.13700
H         -5.21100        9.31580        7.90220
H         -3.65520        9.15070        8.77980
H         -3.62340        7.94830        6.79720
H         -2.98460        6.57380        4.91120
H         -1.78900        7.01670       -0.04680
H          0.12940        7.71330       -1.41650
H          3.98600        9.69500        0.93500
H          2.78240       10.98590        0.61100
H          4.14710       10.73260       -0.50150
H          2.09490        9.17700        2.08920
H          0.20570        8.46480        3.44820
H         -6.14800        0.90740        0.92790
H         -7.73830        0.53220        2.73510
H         -8.90530       -0.56620        4.36560
H         -9.65330        0.14910        5.81360
H         -9.35210        1.17910        4.39550
H         -4.73520        1.56240        5.60130
H         -3.12390        1.91480        3.77490
H         -4.15460       -0.86170        0.87130
H         -3.96220       -2.12120       -1.24260
H         -3.97440        0.44950       -5.12240
H         -3.18380       -0.80650       -6.10350
H         -2.18610        0.32590       -5.16960
H         -2.76150        1.45780       -3.25060
H         -2.93200        2.68980       -1.16240
H          1.86080        2.68660        1.87060
H          3.14200        4.63390        2.65380
H          6.21390        7.68810        0.31900
H          5.71230        6.14660       -0.41560
H          4.88520        7.66870       -0.86340
H          3.05820        6.27870       -1.28780
H          1.76390        4.35380       -2.06750
H          3.42020        2.31850       -1.97690
H          3.90030        1.16330       -4.07180
H          4.22640       -1.31600       -4.74550
H          4.53880       -0.03660       -5.96690
H          4.12610       -1.68650       -6.48290
H         -0.09070       -0.35970       -4.16320
H         -0.59160        0.84680       -2.07180
H         -0.88520       -4.75040        4.02550
H          0.39730       -6.08950        5.62790
H          4.71800       -6.56160        4.42990
H          5.27750       -7.25150        5.97400
H          5.34740       -5.49460        5.72730
H          3.99110       -4.15270        4.37040
H          2.71700       -2.75330        2.85740
H         -1.89790       -3.42830        0.74250
H         -4.32010       -3.29720        1.22940
H         -5.33740       -3.23470        5.69210
H         -6.99650       -2.63510        5.47070
H         -5.67300       -1.47030        5.65010
H         -3.44670       -1.76500        5.12550
H         -1.05140       -1.98560        4.67170
H          1.33440       -5.14520        1.23350
H          1.53910       -9.56320       -0.19610
H          1.15000       -8.41190        5.11060
H          0.65850      -10.05020        4.64590
H         -1.02180       -7.53890        4.17290
H         -1.28470       -8.71500        5.46820
H         -1.49580       -9.19300        3.78110
H          7.70830       -6.07310       -2.09480
H          8.90620       -4.48370       -3.75630
H          8.34470       -2.57190       -5.44120
H          6.62780       -2.26220       -5.74000
H          6.56070       -0.78420       -3.71150
H          8.28640       -1.05610       -3.47190
H          7.72220       -0.20580       -4.91410
H          6.39510       -7.67630       -3.09330
H          5.89290      -11.39080       -2.21370
H          9.57670      -13.02500       -5.62380
H          8.25060       -8.41320       -7.24920
H         11.34100       -9.30290       -8.48600
H         10.06380       -9.44030      -10.61980
H          7.88130      -10.77960      -10.09310
H          8.57390      -13.21420       -9.28620
H         11.18410      -13.37520       -9.31740
H         12.16990      -11.09790      -10.36130
H         10.93640      -11.80480      -11.43470
H         12.02300      -11.66950       -7.70930
