
  xtb     02152215303D
 energy: -326.058165189827 gnorm: 0.000593326813 xtb: 6.4.1 (unknown)
190211  0     0  0            999 V2000
    5.8073    2.2721   -4.2400 C   0  0  0  0  0  0  0  0  0  0  0  0
    6.5541    1.8994   -5.3385 C   0  0  0  0  0  0  0  0  0  0  0  0
    6.1795    0.8966   -6.3343 C   0  0  0  0  0  0  0  0  0  0  0  0
    5.1658    0.2149   -6.3645 O   0  0  0  0  0  0  0  0  0  0  0  0
    7.2567    0.8768   -7.3369 C   0  0  0  0  0  0  0  0  0  0  0  0
    7.3360    0.0625   -8.4636 C   0  0  0  0  0  0  0  0  0  0  0  0
    8.4643    0.2706   -9.2210 C   0  0  0  0  0  0  0  0  0  0  0  0
    9.4360    1.2203   -8.8812 C   0  0  0  0  0  0  0  0  0  0  0  0
    9.3664    2.0304   -7.7712 C   0  0  0  0  0  0  0  0  0  0  0  0
    8.2295    1.8332   -6.9842 C   0  0  0  0  0  0  0  0  0  0  0  0
    7.8177    2.4748   -5.7332 C   0  0  0  0  0  0  0  0  0  0  0  0
    8.5457    3.4244   -5.0555 C   0  0  0  0  0  0  0  0  0  0  0  0
    8.2156    3.9706   -3.8009 C   0  0  0  0  0  0  0  0  0  0  0  0
    8.0413    4.4412   -2.7659 N   0  0  0  0  0  0  0  0  0  0  0  0
    9.7627    3.9708   -5.5094 C   0  0  0  0  0  0  0  0  0  0  0  0
   10.7525    4.4666   -5.8162 N   0  0  0  0  0  0  0  0  0  0  0  0
   10.2894    0.8937  -10.0807 C   0  0  0  0  0  0  0  0  0  0  0  0
   11.5489    0.0210   -9.8586 C   0  0  0  0  0  0  0  0  0  0  0  0
   11.2770   -0.8336   -8.6453 C   0  0  0  0  0  0  0  0  0  0  0  0
   10.3594   -1.7308   -8.9800 C   0  0  0  0  0  0  0  0  0  0  0  0
    9.9885   -1.4950  -10.4224 C   0  0  0  0  0  0  0  0  0  0  0  0
   11.3421   -1.0178  -10.9731 C   0  0  0  0  0  0  0  0  0  0  0  0
    9.2035   -0.1608  -10.4637 C   0  0  0  0  0  0  0  0  0  0  0  0
    4.6562    1.6968   -3.7083 C   0  0  0  0  0  0  0  0  0  0  0  0
    4.0523    2.1330   -2.4967 C   0  0  0  0  0  0  0  0  0  0  0  0
    4.2635    3.3590   -1.9332 N   0  0  0  0  0  0  0  0  0  0  0  0
    4.4920    4.4966   -2.7358 C   0  0  0  0  0  0  0  0  0  0  0  0
    5.3781    5.4855   -2.3084 C   0  0  0  0  0  0  0  0  0  0  0  0
    5.5971    6.5985   -3.0882 C   0  0  0  0  0  0  0  0  0  0  0  0
    4.9417    6.7501   -4.3089 C   0  0  0  0  0  0  0  0  0  0  0  0
    5.3175    8.2092   -5.2236 S   0  0  0  0  0  0  0  0  0  0  0  0
    4.2983    8.0690   -6.7203 C   0  0  0  0  0  0  0  0  0  0  0  0
    4.0454    5.7741   -4.7277 C   0  0  0  0  0  0  0  0  0  0  0  0
    3.8193    4.6611   -3.9430 C   0  0  0  0  0  0  0  0  0  0  0  0
    4.1315    3.5644   -0.5481 C   0  0  0  0  0  0  0  0  0  0  0  0
    4.7257    2.6996    0.3653 C   0  0  0  0  0  0  0  0  0  0  0  0
    4.6975    2.9853    1.7172 C   0  0  0  0  0  0  0  0  0  0  0  0
    4.0757    4.1413    2.1718 C   0  0  0  0  0  0  0  0  0  0  0  0
    4.0763    4.6534    3.8596 S   0  0  0  0  0  0  0  0  0  0  0  0
    5.5680    3.8595    4.5241 C   0  0  0  0  0  0  0  0  0  0  0  0
    3.4203    4.9714    1.2643 C   0  0  0  0  0  0  0  0  0  0  0  0
    3.4486    4.6879   -0.0810 C   0  0  0  0  0  0  0  0  0  0  0  0
    3.1576    1.1639   -2.0075 C   0  0  0  0  0  0  0  0  0  0  0  0
    2.1662    1.0116   -0.5921 S   0  0  0  0  0  0  0  0  0  0  0  0
    1.4604   -0.4774   -1.2239 C   0  0  0  0  0  0  0  0  0  0  0  0
    1.9508   -0.8112   -2.4821 C   0  0  0  0  0  0  0  0  0  0  0  0
    1.5779   -1.8730   -3.2928 N   0  0  0  0  0  0  0  0  0  0  0  0
    2.5899   -2.3735   -4.1421 C   0  0  0  0  0  0  0  0  0  0  0  0
    3.8240   -2.7176   -3.5982 C   0  0  0  0  0  0  0  0  0  0  0  0
    4.8863   -3.0383   -4.4194 C   0  0  0  0  0  0  0  0  0  0  0  0
    4.7246   -3.0170   -5.7979 C   0  0  0  0  0  0  0  0  0  0  0  0
    6.0723   -3.2760   -6.9090 S   0  0  0  0  0  0  0  0  0  0  0  0
    7.4656   -2.5993   -5.9567 C   0  0  0  0  0  0  0  0  0  0  0  0
    3.4689   -2.7662   -6.3411 C   0  0  0  0  0  0  0  0  0  0  0  0
    2.4089   -2.4458   -5.5223 C   0  0  0  0  0  0  0  0  0  0  0  0
    0.2469   -2.2016   -3.5473 C   0  0  0  0  0  0  0  0  0  0  0  0
   -0.7863   -1.2838   -3.3630 C   0  0  0  0  0  0  0  0  0  0  0  0
   -2.1019   -1.6550   -3.5642 C   0  0  0  0  0  0  0  0  0  0  0  0
   -2.4082   -2.9474   -3.9645 C   0  0  0  0  0  0  0  0  0  0  0  0
   -4.0660   -3.5169   -4.2026 S   0  0  0  0  0  0  0  0  0  0  0  0
   -5.0072   -2.4898   -3.0380 C   0  0  0  0  0  0  0  0  0  0  0  0
   -1.3771   -3.8526   -4.2027 C   0  0  0  0  0  0  0  0  0  0  0  0
   -0.0670   -3.4896   -3.9899 C   0  0  0  0  0  0  0  0  0  0  0  0
    2.9543    0.1063   -2.8844 C   0  0  0  0  0  0  0  0  0  0  0  0
    3.9129    0.2195   -4.3163 S   0  0  0  0  0  0  0  0  0  0  0  0
    0.4794   -1.0741   -0.3824 C   0  0  0  0  0  0  0  0  0  0  0  0
   -0.4204   -2.1012   -0.5271 C   0  0  0  0  0  0  0  0  0  0  0  0
   -1.2474   -2.0852    0.6264 C   0  0  0  0  0  0  0  0  0  0  0  0
   -2.4176   -2.7837    0.9849 C   0  0  0  0  0  0  0  0  0  0  0  0
   -3.0190   -3.8220    0.1897 C   0  0  0  0  0  0  0  0  0  0  0  0
   -4.3171   -4.2601    0.2274 C   0  0  0  0  0  0  0  0  0  0  0  0
   -4.5637   -5.2981   -0.6912 C   0  0  0  0  0  0  0  0  0  0  0  0
   -6.1193   -6.0120   -0.8775 Cl  0  0  0  0  0  0  0  0  0  0  0  0
   -3.4766   -5.6851   -1.4239 C   0  0  0  0  0  0  0  0  0  0  0  0
   -3.4052   -6.7256   -2.4857 C   0  0  0  0  0  0  0  0  0  0  0  0
   -2.0556   -7.4339   -2.5209 C   0  0  0  0  0  0  0  0  0  0  0  0
   -2.1044   -4.7309   -0.9850 S   0  0  0  0  0  0  0  0  0  0  0  0
   -2.9807   -2.3516    2.1887 C   0  0  0  0  0  0  0  0  0  0  0  0
   -2.4102   -1.3735    3.0434 C   0  0  0  0  0  0  0  0  0  0  0  0
   -1.2160   -0.7093    2.7021 C   0  0  0  0  0  0  0  0  0  0  0  0
   -0.4903    0.1926    3.5583 C   0  0  0  0  0  0  0  0  0  0  0  0
   -1.2302    1.1441    4.8142 S   0  0  0  0  0  0  0  0  0  0  0  0
    0.2933    1.7801    5.3308 C   0  0  0  0  0  0  0  0  0  0  0  0
    0.4014    2.7841    6.4243 C   0  0  0  0  0  0  0  0  0  0  0  0
    0.5062    4.2020    5.8549 C   0  0  0  0  0  0  0  0  0  0  0  0
    1.2932    1.2658    4.5561 C   0  0  0  0  0  0  0  0  0  0  0  0
    0.8654    0.3840    3.5483 C   0  0  0  0  0  0  0  0  0  0  0  0
    2.9500    1.6068    4.8217 Cl  0  0  0  0  0  0  0  0  0  0  0  0
   -0.7199   -1.0601    1.4500 C   0  0  0  0  0  0  0  0  0  0  0  0
    0.3204   -0.4629    0.8296 O   0  0  0  0  0  0  0  0  0  0  0  0
   -3.2778   -1.3035    4.1618 C   0  0  0  0  0  0  0  0  0  0  0  0
   -4.2961   -2.1913    3.9260 C   0  0  0  0  0  0  0  0  0  0  0  0
   -4.1173   -2.8260    2.7369 O   0  0  0  0  0  0  0  0  0  0  0  0
   -5.4645   -2.4927    4.7168 C   0  0  0  0  0  0  0  0  0  0  0  0
   -6.5425   -3.2327    4.2095 C   0  0  0  0  0  0  0  0  0  0  0  0
   -6.5144   -3.6792    2.9402 F   0  0  0  0  0  0  0  0  0  0  0  0
   -7.6564   -3.5161    4.9618 C   0  0  0  0  0  0  0  0  0  0  0  0
   -7.7671   -3.0367    6.2743 C   0  0  0  0  0  0  0  0  0  0  0  0
   -6.6892   -2.3161    6.8042 C   0  0  0  0  0  0  0  0  0  0  0  0
   -5.5732   -2.0563    6.0434 C   0  0  0  0  0  0  0  0  0  0  0  0
   -8.9605   -3.3731    7.0063 C   0  0  0  0  0  0  0  0  0  0  0  0
   -9.5806   -2.7187    8.0197 C   0  0  0  0  0  0  0  0  0  0  0  0
   -9.3451   -1.3222    8.4879 C   0  0  0  0  0  0  0  0  0  0  0  0
   -8.4116   -0.5914    8.2411 O   0  0  0  0  0  0  0  0  0  0  0  0
  -10.5315   -0.9686    9.2883 C   0  0  0  0  0  0  0  0  0  0  0  0
  -10.8010    0.2708    9.8664 C   0  0  0  0  0  0  0  0  0  0  0  0
  -11.9926    0.3237   10.5476 C   0  0  0  0  0  0  0  0  0  0  0  0
  -12.8647   -0.7714   10.6350 C   0  0  0  0  0  0  0  0  0  0  0  0
  -12.6119   -1.9984   10.0715 C   0  0  0  0  0  0  0  0  0  0  0  0
  -11.3943   -2.0786    9.3876 C   0  0  0  0  0  0  0  0  0  0  0  0
  -10.7879   -3.2003    8.6843 C   0  0  0  0  0  0  0  0  0  0  0  0
  -11.2226   -4.4971    8.7206 C   0  0  0  0  0  0  0  0  0  0  0  0
  -10.5626   -5.5936    8.1230 C   0  0  0  0  0  0  0  0  0  0  0  0
  -10.0823   -6.5404    7.6858 N   0  0  0  0  0  0  0  0  0  0  0  0
  -12.3757   -4.9310    9.4096 C   0  0  0  0  0  0  0  0  0  0  0  0
  -13.2981   -5.3514    9.9481 N   0  0  0  0  0  0  0  0  0  0  0  0
  -13.8724   -0.0049   11.4538 C   0  0  0  0  0  0  0  0  0  0  0  0
  -13.9317   -0.2916   12.9744 C   0  0  0  0  0  0  0  0  0  0  0  0
  -12.5602   -0.7795   13.3708 C   0  0  0  0  0  0  0  0  0  0  0  0
  -11.7275    0.2503   13.2965 C   0  0  0  0  0  0  0  0  0  0  0  0
  -12.5208    1.4534   12.8495 C   0  0  0  0  0  0  0  0  0  0  0  0
  -13.8735    1.1471   13.5123 C   0  0  0  0  0  0  0  0  0  0  0  0
  -12.8963    1.2106   11.3661 C   0  0  0  0  0  0  0  0  0  0  0  0
    6.1911    3.1062   -3.6674 H   0  0  0  0  0  0  0  0  0  0  0  0
    6.5637   -0.6583   -8.6831 H   0  0  0  0  0  0  0  0  0  0  0  0
   10.1231    2.7580   -7.5302 H   0  0  0  0  0  0  0  0  0  0  0  0
   10.4721    1.7132  -10.7732 H   0  0  0  0  0  0  0  0  0  0  0  0
   12.4850    0.5728   -9.8548 H   0  0  0  0  0  0  0  0  0  0  0  0
   11.7269   -0.6677   -7.6838 H   0  0  0  0  0  0  0  0  0  0  0  0
    9.8943   -2.4740   -8.3587 H   0  0  0  0  0  0  0  0  0  0  0  0
    9.5020   -2.3217  -10.9330 H   0  0  0  0  0  0  0  0  0  0  0  0
   12.0994   -1.8004  -10.9659 H   0  0  0  0  0  0  0  0  0  0  0  0
   11.2759   -0.5791  -11.9678 H   0  0  0  0  0  0  0  0  0  0  0  0
    8.6712   -0.0233  -11.4030 H   0  0  0  0  0  0  0  0  0  0  0  0
    5.9015    5.3697   -1.3732 H   0  0  0  0  0  0  0  0  0  0  0  0
    6.2919    7.3577   -2.7662 H   0  0  0  0  0  0  0  0  0  0  0  0
    4.5181    8.9570   -7.3047 H   0  0  0  0  0  0  0  0  0  0  0  0
    3.2453    8.0552   -6.4546 H   0  0  0  0  0  0  0  0  0  0  0  0
    4.5780    7.1815   -7.2804 H   0  0  0  0  0  0  0  0  0  0  0  0
    3.5086    5.8700   -5.6575 H   0  0  0  0  0  0  0  0  0  0  0  0
    3.1147    3.9118   -4.2727 H   0  0  0  0  0  0  0  0  0  0  0  0
    5.2399    1.8183    0.0113 H   0  0  0  0  0  0  0  0  0  0  0  0
    5.1761    2.3095    2.4076 H   0  0  0  0  0  0  0  0  0  0  0  0
    5.7663    4.3498    5.4721 H   0  0  0  0  0  0  0  0  0  0  0  0
    5.3958    2.8005    4.6899 H   0  0  0  0  0  0  0  0  0  0  0  0
    6.3940    4.0223    3.8387 H   0  0  0  0  0  0  0  0  0  0  0  0
    2.9094    5.8491    1.6287 H   0  0  0  0  0  0  0  0  0  0  0  0
    2.9615    5.3461   -0.7845 H   0  0  0  0  0  0  0  0  0  0  0  0
    3.9555   -2.6977   -2.5259 H   0  0  0  0  0  0  0  0  0  0  0  0
    5.8390   -3.2857   -3.9781 H   0  0  0  0  0  0  0  0  0  0  0  0
    7.1295   -1.7090   -5.4345 H   0  0  0  0  0  0  0  0  0  0  0  0
    7.8516   -3.3403   -5.2620 H   0  0  0  0  0  0  0  0  0  0  0  0
    8.2328   -2.3346   -6.6777 H   0  0  0  0  0  0  0  0  0  0  0  0
    3.3458   -2.7790   -7.4124 H   0  0  0  0  0  0  0  0  0  0  0  0
    1.4482   -2.2003   -5.9492 H   0  0  0  0  0  0  0  0  0  0  0  0
   -0.5587   -0.2735   -3.0598 H   0  0  0  0  0  0  0  0  0  0  0  0
   -2.8817   -0.9260   -3.4102 H   0  0  0  0  0  0  0  0  0  0  0  0
   -5.2063   -1.5122   -3.4680 H   0  0  0  0  0  0  0  0  0  0  0  0
   -4.4542   -2.4051   -2.1074 H   0  0  0  0  0  0  0  0  0  0  0  0
   -5.9423   -3.0137   -2.8669 H   0  0  0  0  0  0  0  0  0  0  0  0
   -1.6177   -4.8482   -4.5405 H   0  0  0  0  0  0  0  0  0  0  0  0
    0.7259   -4.2049   -4.1478 H   0  0  0  0  0  0  0  0  0  0  0  0
   -0.4910   -2.7803   -1.3455 H   0  0  0  0  0  0  0  0  0  0  0  0
   -5.0724   -3.8574    0.8741 H   0  0  0  0  0  0  0  0  0  0  0  0
   -4.2071   -7.4470   -2.3124 H   0  0  0  0  0  0  0  0  0  0  0  0
   -3.5953   -6.2512   -3.4548 H   0  0  0  0  0  0  0  0  0  0  0  0
   -1.2569   -6.7197   -2.7102 H   0  0  0  0  0  0  0  0  0  0  0  0
   -2.0460   -8.1843   -3.3072 H   0  0  0  0  0  0  0  0  0  0  0  0
   -1.8584   -7.9247   -1.5705 H   0  0  0  0  0  0  0  0  0  0  0  0
   -0.4732    2.7111    7.0729 H   0  0  0  0  0  0  0  0  0  0  0  0
    1.2939    2.5684    7.0174 H   0  0  0  0  0  0  0  0  0  0  0  0
    0.5825    4.9235    6.6638 H   0  0  0  0  0  0  0  0  0  0  0  0
   -0.3737    4.4363    5.2600 H   0  0  0  0  0  0  0  0  0  0  0  0
    1.3871    4.2949    5.2240 H   0  0  0  0  0  0  0  0  0  0  0  0
    1.5359   -0.1026    2.8660 H   0  0  0  0  0  0  0  0  0  0  0  0
   -3.1730   -0.6623    5.0110 H   0  0  0  0  0  0  0  0  0  0  0  0
   -8.4531   -4.0922    4.5158 H   0  0  0  0  0  0  0  0  0  0  0  0
   -6.7241   -1.9741    7.8238 H   0  0  0  0  0  0  0  0  0  0  0  0
   -4.7525   -1.5085    6.4770 H   0  0  0  0  0  0  0  0  0  0  0  0
   -9.4487   -4.2697    6.6397 H   0  0  0  0  0  0  0  0  0  0  0  0
  -10.1077    1.0909    9.7642 H   0  0  0  0  0  0  0  0  0  0  0  0
  -13.2951   -2.8285   10.1397 H   0  0  0  0  0  0  0  0  0  0  0  0
  -14.8609    0.1026   11.0118 H   0  0  0  0  0  0  0  0  0  0  0  0
  -14.7696   -0.9098   13.2847 H   0  0  0  0  0  0  0  0  0  0  0  0
  -12.3332   -1.8037   13.6022 H   0  0  0  0  0  0  0  0  0  0  0  0
  -10.6648    0.2585   13.4534 H   0  0  0  0  0  0  0  0  0  0  0  0
  -12.0740    2.4239   13.0483 H   0  0  0  0  0  0  0  0  0  0  0  0
  -13.8284    1.1883   14.5994 H   0  0  0  0  0  0  0  0  0  0  0  0
  -14.6856    1.7780   13.1534 H   0  0  0  0  0  0  0  0  0  0  0  0
  -13.2493    2.1155   10.8752 H   0  0  0  0  0  0  0  0  0  0  0  0
  1  2  2  0  0  0  0
  2  3  1  0  0  0  0
  3  4  2  0  0  0  0
  3  5  1  0  0  0  0
  5  6  2  0  0  0  0
  6  7  1  0  0  0  0
  7  8  2  0  0  0  0
  8  9  1  0  0  0  0
  9 10  2  0  0  0  0
 10 11  1  0  0  0  0
 11 12  2  0  0  0  0
 12 13  1  0  0  0  0
 13 14  3  0  0  0  0
 12 15  1  0  0  0  0
 15 16  3  0  0  0  0
  8 17  1  0  0  0  0
 17 18  1  0  0  0  0
 18 19  1  0  0  0  0
 19 20  2  0  0  0  0
 20 21  1  0  0  0  0
 21 22  1  0  0  0  0
 21 23  1  0  0  0  0
  1 24  1  0  0  0  0
 24 25  2  0  0  0  0
 25 26  1  0  0  0  0
 26 27  1  0  0  0  0
 27 28  2  0  0  0  0
 28 29  1  0  0  0  0
 29 30  2  0  0  0  0
 30 31  1  0  0  0  0
 31 32  1  0  0  0  0
 30 33  1  0  0  0  0
 33 34  2  0  0  0  0
 26 35  1  0  0  0  0
 35 36  2  0  0  0  0
 36 37  1  0  0  0  0
 37 38  2  0  0  0  0
 38 39  1  0  0  0  0
 39 40  1  0  0  0  0
 38 41  1  0  0  0  0
 41 42  2  0  0  0  0
 25 43  1  0  0  0  0
 43 44  1  0  0  0  0
 44 45  1  0  0  0  0
 45 46  2  0  0  0  0
 46 47  1  0  0  0  0
 47 48  1  0  0  0  0
 48 49  2  0  0  0  0
 49 50  1  0  0  0  0
 50 51  2  0  0  0  0
 51 52  1  0  0  0  0
 52 53  1  0  0  0  0
 51 54  1  0  0  0  0
 54 55  2  0  0  0  0
 47 56  1  0  0  0  0
 56 57  2  0  0  0  0
 57 58  1  0  0  0  0
 58 59  2  0  0  0  0
 59 60  1  0  0  0  0
 60 61  1  0  0  0  0
 59 62  1  0  0  0  0
 62 63  2  0  0  0  0
 46 64  1  0  0  0  0
 64 65  1  0  0  0  0
 45 66  1  0  0  0  0
 66 67  2  0  0  0  0
 67 68  1  0  0  0  0
 68 69  2  0  0  0  0
 69 70  1  0  0  0  0
 70 71  2  0  0  0  0
 71 72  1  0  0  0  0
 72 73  1  0  0  0  0
 72 74  2  0  0  0  0
 74 75  1  0  0  0  0
 75 76  1  0  0  0  0
 74 77  1  0  0  0  0
 69 78  1  0  0  0  0
 78 79  2  0  0  0  0
 79 80  1  0  0  0  0
 80 81  1  0  0  0  0
 81 82  1  0  0  0  0
 82 83  1  0  0  0  0
 83 84  1  0  0  0  0
 84 85  1  0  0  0  0
 83 86  2  0  0  0  0
 86 87  1  0  0  0  0
 86 88  1  0  0  0  0
 80 89  2  0  0  0  0
 89 90  1  0  0  0  0
 79 91  1  0  0  0  0
 91 92  2  0  0  0  0
 92 93  1  0  0  0  0
 92 94  1  0  0  0  0
 94 95  2  0  0  0  0
 95 96  1  0  0  0  0
 95 97  1  0  0  0  0
 97 98  2  0  0  0  0
 98 99  1  0  0  0  0
 99100  2  0  0  0  0
 98101  1  0  0  0  0
101102  2  0  0  0  0
102103  1  0  0  0  0
103104  2  0  0  0  0
103105  1  0  0  0  0
105106  2  0  0  0  0
106107  1  0  0  0  0
107108  2  0  0  0  0
108109  1  0  0  0  0
109110  2  0  0  0  0
110111  1  0  0  0  0
111112  2  0  0  0  0
112113  1  0  0  0  0
113114  3  0  0  0  0
112115  1  0  0  0  0
115116  3  0  0  0  0
108117  1  0  0  0  0
117118  1  0  0  0  0
118119  1  0  0  0  0
119120  2  0  0  0  0
120121  1  0  0  0  0
121122  1  0  0  0  0
121123  1  0  0  0  0
 11  2  1  0  0  0  0
 23 17  1  0  0  0  0
 65 24  1  0  0  0  0
 90 66  1  0  0  0  0
100 94  1  0  0  0  0
111102  1  0  0  0  0
123117  1  0  0  0  0
 10  5  1  0  0  0  0
 22 18  1  0  0  0  0
 34 27  1  0  0  0  0
 42 35  1  0  0  0  0
 64 43  2  0  0  0  0
 89 68  1  0  0  0  0
110105  1  0  0  0  0
122118  1  0  0  0  0
 23  7  1  0  0  0  0
 55 48  1  0  0  0  0
 63 56  1  0  0  0  0
 77 70  1  0  0  0  0
 93 78  1  0  0  0  0
123107  1  0  0  0  0
 87 81  2  0  0  0  0
  1124  1  0  0  0  0
  6125  1  0  0  0  0
  9126  1  0  0  0  0
 17127  1  0  0  0  0
 18128  1  0  0  0  0
 19129  1  0  0  0  0
 20130  1  0  0  0  0
 21131  1  0  0  0  0
 22132  1  0  0  0  0
 22133  1  0  0  0  0
 23134  1  0  0  0  0
 28135  1  0  0  0  0
 29136  1  0  0  0  0
 32137  1  0  0  0  0
 32138  1  0  0  0  0
 32139  1  0  0  0  0
 33140  1  0  0  0  0
 34141  1  0  0  0  0
 36142  1  0  0  0  0
 37143  1  0  0  0  0
 40144  1  0  0  0  0
 40145  1  0  0  0  0
 40146  1  0  0  0  0
 41147  1  0  0  0  0
 42148  1  0  0  0  0
 49149  1  0  0  0  0
 50150  1  0  0  0  0
 53151  1  0  0  0  0
 53152  1  0  0  0  0
 53153  1  0  0  0  0
 54154  1  0  0  0  0
 55155  1  0  0  0  0
 57156  1  0  0  0  0
 58157  1  0  0  0  0
 61158  1  0  0  0  0
 61159  1  0  0  0  0
 61160  1  0  0  0  0
 62161  1  0  0  0  0
 63162  1  0  0  0  0
 67163  1  0  0  0  0
 71164  1  0  0  0  0
 75165  1  0  0  0  0
 75166  1  0  0  0  0
 76167  1  0  0  0  0
 76168  1  0  0  0  0
 76169  1  0  0  0  0
 84170  1  0  0  0  0
 84171  1  0  0  0  0
 85172  1  0  0  0  0
 85173  1  0  0  0  0
 85174  1  0  0  0  0
 87175  1  0  0  0  0
 91176  1  0  0  0  0
 97177  1  0  0  0  0
 99178  1  0  0  0  0
100179  1  0  0  0  0
101180  1  0  0  0  0
106181  1  0  0  0  0
109182  1  0  0  0  0
117183  1  0  0  0  0
118184  1  0  0  0  0
119185  1  0  0  0  0
120186  1  0  0  0  0
121187  1  0  0  0  0
122188  1  0  0  0  0
122189  1  0  0  0  0
123190  1  0  0  0  0
M  END
