267

C          5.46630        1.45410        5.72390
C          4.17380        1.30240        6.16660
C          3.16780        0.52790        5.41310
O          3.34810       -0.34270        4.58120
C          1.86550        1.09600        5.79760
C          0.63280        0.80130        5.22190
C         -0.41070        1.53420        5.73300
C         -0.24490        2.47340        6.75870
C          0.96770        2.76930        7.33890
C          2.04700        2.05210        6.81550
C          3.47650        2.14440        7.10460
C          4.06430        2.87100        8.10980
C          3.36430        3.68620        9.01900
N          2.84780        4.37800        9.77660
C          5.44590        2.85040        8.37010
N          6.56030        2.85690        8.65350
C         -1.70860        2.84200        6.76230
C         -2.57890        2.24770        7.89020
C         -3.98970        2.38970        7.36520
C         -4.14520        1.51360        6.38100
C         -2.84330        0.76250        6.22630
C         -2.37200        0.74130        7.68600
C         -1.88860        1.80360        5.60880
C          6.02430        0.63910        4.71900
C          5.85540       -0.73440        4.45700
N          5.73840       -1.68130        5.42150
C          5.88460       -3.05480        5.17090
C          5.20080       -3.99150        5.94720
C          5.33940       -5.33940        5.70080
C          6.15850       -5.79230        4.67000
S          6.24040       -7.53550        4.40120
C          6.73000       -7.64830        2.65620
C          6.89270       -4.87040        3.93770
C          6.76740       -3.51960        4.19660
C          5.60290       -1.25540        6.77740
C          6.71780       -0.76790        7.44410
C          6.61340       -0.29150        8.73670
C          5.37930       -0.29240        9.37570
S          5.10630        0.34340       10.99290
C          6.68560        1.11780       11.43260
C          4.26650       -0.81380        8.71770
C          4.37460       -1.29080        7.42830
C          5.82410       -0.96440        3.05770
S          5.12060       -2.23210        2.10560
C          4.82110       -1.11640        0.77670
C          5.38140        0.12240        1.01080
N          5.08350        1.29940        0.28040
C          6.10580        1.91590       -0.44070
C          5.81610        3.01970       -1.24180
C          6.80320        3.62480       -1.99230
C          8.10300        3.14080       -1.95070
S          9.42760        3.82880       -2.90720
C          8.87460        5.52870       -3.22250
C          8.39620        2.03140       -1.16590
C          7.40970        1.42240       -0.42260
C          4.14750        2.07980        1.01000
C          4.45730        3.34530        1.49980
C          3.59160        4.00250        2.35260
C          2.40110        3.40240        2.73870
S          1.27570        4.13670        3.89140
C          2.38000        5.14150        4.92740
C          2.05810        2.16450        2.20690
C          2.92230        1.50980        1.35690
C          5.96870        0.18480        2.29440
S          6.47450        1.53730        3.24160
C          3.76400       -1.46830       -0.11730
C          3.37400       -0.98410       -1.36010
N          4.11660       -0.23410       -2.25110
C          5.47270       -0.42770       -2.50760
C          6.17050        0.50390       -3.27630
C          7.51190        0.34190       -3.55450
C          8.20070       -0.75150       -3.04990
S          9.92680       -1.03170       -3.28560
C         10.47390        0.38670       -4.27500
C          7.50780       -1.69650       -2.29820
C          6.16370       -1.54630       -2.03920
C          3.36270        0.67300       -3.03430
C          3.34370        0.59070       -4.42120
C          2.52850        1.42400       -5.16170
C          1.71050        2.34670       -4.52380
S          0.58680        3.41260       -5.36460
C          0.69060        2.88410       -7.09780
C          1.75340        2.45470       -3.13460
C          2.57150        1.62800       -2.39710
C          2.02060       -1.34340       -1.62450
S          0.87420       -0.96610       -2.86830
C         -0.42180       -1.71800       -1.94520
C          0.02770       -2.27620       -0.75840
N         -0.70960       -2.94400        0.21870
C         -0.04700       -4.05140        0.78450
C          0.10310       -4.20160        2.15920
C          0.85850       -5.23680        2.67490
C          1.48450       -6.13610        1.82230
S          2.53580       -7.44510        2.36100
C          2.63730       -7.21280        4.15620
C          1.30190       -6.01300        0.44560
C          0.54340       -4.98640       -0.06760
C         -1.73450       -2.30200        0.91870
C         -2.71280       -3.05990        1.56160
C         -3.74160       -2.44870        2.25140
C         -3.81370       -1.06280        2.31280
S         -5.08750       -0.17760        3.15470
C         -5.87370       -1.44420        4.19340
C         -2.84130       -0.30100        1.66870
C         -1.81270       -0.90880        0.98300
C          1.42040       -2.08020       -0.61840
S          2.51630       -2.45100        0.65540
C         -1.73280       -1.55910       -2.47270
C         -2.97930       -1.66910       -1.90870
C         -3.90560       -1.20910       -2.87280
C         -5.29500       -0.97590       -2.84310
C         -6.15130       -1.20600       -1.71130
C         -5.97230       -2.00830       -0.60960
C         -7.03350       -1.92700        0.30200
C         -8.02960       -1.06620       -0.06970
Si        -9.66160       -0.63530        0.77360
C        -11.01220       -1.79810        0.07300
C        -11.03520       -1.82810       -1.45330
C        -10.03470        1.19710        0.37040
C        -11.51170        1.57300        0.44890
C         -9.40070       -0.93260        2.64660
C        -10.59660       -0.52820        3.49910
S         -7.66770       -0.36150       -1.60040
C         -5.78690       -0.42500       -4.02440
C         -5.01730       -0.13510       -5.18580
C         -3.61810       -0.35670       -5.20270
C         -2.76690       -0.10550       -6.33200
C         -2.93700        0.75720       -7.38770
C         -1.91250        0.66490       -8.33850
C         -0.94570       -0.26020       -8.03910
Si         0.45820       -0.89630       -9.12940
C          0.68890        0.31510      -10.59310
C         -0.33370        0.13250      -11.70930
C          2.12100       -1.01860       -8.18890
C          2.04780       -1.82420       -6.89700
C         -0.08050       -2.64040       -9.71030
C          0.97700       -3.37130      -10.53240
S         -1.29390       -1.01210       -6.51900
C         -3.12610       -0.87970       -4.01290
O         -1.81670       -1.10110       -3.75260
C         -5.94040        0.34650       -6.13220
C         -7.18400        0.35100       -5.52130
O         -7.07710       -0.11980       -4.23940
C         -8.49080        0.72420       -5.88760
C         -9.00210        1.22080       -7.05610
C         -8.28600        1.48400       -8.32240
O         -7.10230        1.36950       -8.56670
C         -9.31940        1.93400       -9.27760
C         -9.16730        2.28300      -10.60590
C        -10.28830        2.67250      -11.32110
C        -11.52450        2.70130      -10.68970
Br       -13.04980        3.23400      -11.69040
C        -11.69390        2.35570       -9.35430
C        -10.57120        1.96810       -8.64140
C        -10.40200        1.55390       -7.24730
C        -11.40530        1.52560       -6.31300
C        -12.74690        1.86990       -6.58620
N        -13.85410        2.13300       -6.73670
C        -11.28390        1.17740       -4.95010
N        -11.30130        0.92750       -3.82880
H          6.00370        2.36390        5.97020
H          0.54910        0.06710        4.43530
H          1.08700        3.50900        8.11400
H         -1.93060        3.88760        6.55880
H         -2.38080        2.65060        8.87980
H         -4.68670        3.12940        7.71290
H         -4.99110        1.38000        5.73300
H         -2.88500       -0.18440        5.69460
H         -1.34130        0.41520        7.81450
H         -3.02500        0.14700        8.32360
H         -2.21950        2.16080        4.63590
H          4.55600       -3.66700        6.74720
H          4.80790       -6.05850        6.30540
H          6.52620       -8.67160        2.35730
H          7.78940       -7.43680        2.54360
H          6.12370       -6.96320        2.07220
H          7.58170       -5.19310        3.17380
H          7.38880       -2.82580        3.65210
H          7.67420       -0.75140        6.94290
H          7.49350        0.08830        9.22690
H          6.95530        1.84250       10.66820
H          6.50840        1.62140       12.37780
H          7.45170        0.35790       11.55640
H          3.31430       -0.82500        9.22660
H          3.50130       -1.66490        6.91600
H          4.80460        3.39580       -1.28540
H          6.54410        4.46830       -2.61300
H          9.74840        6.06440       -3.58010
H          8.10000        5.54060       -3.98420
H          8.52040        5.96840       -2.29510
H          9.40630        1.65260       -1.13780
H          7.65310        0.55580        0.17240
H          5.40040        3.80360        1.24260
H          3.86830        4.97370        2.73150
H          3.27060        4.56570        5.16180
H          1.82560        5.35710        5.83540
H          2.63620        6.06960        4.42460
H          1.11970        1.71210        2.48650
H          2.66100        0.53060        0.98930
H          5.66270        1.37750       -3.65320
H          8.00930        1.08570       -4.15460
H         10.28530        1.31390       -3.74100
H         11.54220        0.25060       -4.41170
H          9.97550        0.37870       -5.23990
H          8.03750       -2.55880       -1.92260
H          5.64880       -2.31160       -1.48070
H          3.96000       -0.14130       -4.92040
H          2.52630        1.33170       -6.23430
H         -0.05170        3.47600       -7.62430
H          1.67860        3.09610       -7.49620
H          0.44420        1.82930       -7.18280
H          1.12960        3.18570       -2.64350
H          2.59030        1.70230       -1.32000
H         -0.34870       -3.48590        2.82970
H          0.96960       -5.31290        3.74420
H          3.34990       -7.95340        4.50630
H          1.66620       -7.38740        4.61060
H          3.00820       -6.21540        4.37480
H          1.77240       -6.72710       -0.21260
H          0.41620       -4.88460       -1.13530
H         -2.66670       -4.13780        1.50930
H         -4.48690       -3.06610        2.72640
H         -6.43990       -2.13790        3.57940
H         -6.55020       -0.90920        4.85260
H         -5.11870       -1.95930        4.77980
H         -2.89890        0.77540        1.71930
H         -1.06050       -0.30760        0.49510
H         -3.19450       -1.99080       -0.91600
H         -5.12840       -2.65890       -0.47330
H         -7.07160       -2.49490        1.21460
H        -10.85920       -2.81360        0.44450
H        -11.99070       -1.48180        0.43610
H        -11.83250       -2.47620       -1.81360
H        -11.19270       -0.83440       -1.86280
H        -10.09100       -2.20370       -1.84090
H         -9.46610        1.84360        1.04210
H         -9.67900        1.41340       -0.63820
H        -11.91950        1.36300        1.43470
H        -12.08660        1.01520       -0.28470
H        -11.64650        2.63390        0.24450
H         -8.52470       -0.37500        2.97990
H         -9.18650       -1.98760        2.82350
H        -11.48890       -1.06530        3.18740
H        -10.41860       -0.74740        4.55110
H        -10.78810        0.53710        3.40500
H         -3.75580        1.44790       -7.46450
H         -1.88300        1.26630       -9.22930
H          0.64000        1.34370      -10.23230
H          1.68740        0.18680      -11.01210
H         -1.34670        0.23390      -11.32900
H         -0.18720        0.87400      -12.49300
H         -0.24050       -0.85350      -12.15610
H          2.85380       -1.48240       -8.85130
H          2.50850       -0.02260       -7.97040
H          3.03620       -1.93830       -6.45490
H          1.64710       -2.81620       -7.08700
H          1.40620       -1.33480       -6.16840
H         -0.33430       -3.24700       -8.83910
H         -0.99530       -2.55890      -10.29950
H          1.25200       -2.79270      -11.41100
H          0.60540       -4.33880      -10.86570
H          1.87470       -3.53920       -9.94300
H         -5.75650        0.64110       -7.14320
H         -9.18520        0.57200       -5.06990
H         -8.19260        2.24860      -11.06730
H        -10.21010        2.95160      -12.36040
H        -12.67490        2.39350       -8.91010
