188

C         -0.82640        5.13490       -5.57760
C         -1.37400        4.48940       -6.63830
C         -1.57240        3.01790       -6.74130
O         -1.14220        2.14280       -6.02090
C         -2.48860        2.82380       -7.88120
C         -3.01670        1.61350       -8.32290
C         -3.87730        1.73220       -9.38630
C         -4.19570        2.96620       -9.97000
C         -3.68160        4.16730       -9.54620
C         -2.80090        4.06800       -8.46380
C         -2.08420        5.11190       -7.74300
C         -2.04200        6.43900       -8.08170
C         -2.73740        7.01060       -9.16730
N         -3.28350        7.54600      -10.02400
C         -1.28380        7.42240       -7.41190
N         -0.68860        8.28140       -6.93500
C         -5.14200        2.34200      -10.96480
C         -6.66070        2.47070      -10.68840
C         -6.81160        2.61850       -9.19470
C         -6.50720        1.45370       -8.63850
C         -6.14880        0.49520       -9.74780
C         -7.08190        1.00250      -10.85870
C         -4.78700        0.96780      -10.31440
C         -0.13700        4.48930       -4.49640
C          0.78110        3.43770       -4.71570
O          1.20810        3.24060       -5.98820
C          2.60270        3.05930       -6.22200
C          2.76480        2.47960       -7.61730
C          1.18200        2.66000       -3.62410
O          1.97890        1.54860       -3.78210
C          1.34550        0.45810       -4.45310
C          2.41510       -0.54250       -4.85180
C          0.73930        2.97050       -2.33040
C          0.04390        4.16810       -2.11710
C         -0.39500        4.90340       -3.18590
C          0.96050        2.05000       -1.24330
C          0.10280        1.80510       -0.18080
N         -1.18320        2.31700       -0.04510
C         -1.99290        2.47710       -1.17660
C         -2.85770        3.56460       -1.28240
C         -3.57220        3.78760       -2.44280
C         -3.42680        2.93080       -3.52460
S         -4.25250        3.16660       -5.07230
C         -4.59640        4.95110       -5.08720
C         -2.61380        1.80740       -3.40520
C         -1.91170        1.58110       -2.24360
C         -1.66650        2.59100        1.23910
C         -0.80940        3.08830        2.21900
C         -1.25440        3.29800        3.50940
C         -2.57380        3.02690        3.84120
S         -3.24530        3.26600        5.45850
C         -1.78220        3.25710        6.53650
C         -3.44550        2.56750        2.85610
C         -2.99940        2.34630        1.57260
C          0.67730        0.87640        0.72220
S          0.20440        0.21820        2.25120
C          1.69570       -0.69690        2.34220
C          2.50570       -0.49870        1.25580
N          3.75880       -1.08620        1.06510
C          4.02860       -1.67100       -0.17140
C          5.31780       -1.67040       -0.70700
C          5.56260       -2.25400       -1.92930
C          4.53020       -2.84450       -2.65490
S          4.96260       -3.54660       -4.21980
C          3.48590       -4.49440       -4.68780
C          3.24300       -2.83370       -2.13670
C          2.99780       -2.25650       -0.90620
C          4.70860       -1.01450        2.08570
C          5.58060       -2.07450        2.33990
C          6.47840       -2.00070        3.38050
C          6.53350       -0.87060        4.19380
S          7.70170       -0.91180        5.51960
C          7.61580        0.75700        6.23020
C          5.68760        0.19660        3.93090
C          4.79070        0.12370        2.88320
C          1.91600        0.40250        0.32730
S          2.39140        1.04360       -1.20540
C          1.89400       -1.46920        3.57410
C          1.44620       -2.79150        3.65390
O          1.01610       -3.37790        2.48930
C          1.56200       -4.65600        2.17730
C          3.05910       -4.59690        1.90510
C          1.37820       -3.42270        4.90820
O          0.81420       -4.66960        5.05600
C         -0.55680       -4.78760        4.66800
C         -0.93330       -6.25810        4.68580
C          1.91260       -2.79450        6.03570
C          2.48130       -1.53530        5.89920
C          2.41110       -0.85440        4.70380
C          1.84970       -3.45370        7.40370
C          0.79560       -4.51050        7.50660
C         -0.48290       -4.18340        7.76650
C         -0.91600       -2.81630        7.85020
C         -2.23110       -2.43300        7.66770
C         -2.62090       -1.02490        7.73800
O         -1.84210       -0.08830        7.71750
N         -3.98380       -0.76740        7.82620
C         -4.37530        0.63440        7.91920
C         -4.31550        1.14450        9.35200
C         -4.94340       -1.73350        7.89960
S         -6.49690       -1.36740        8.31830
N         -4.58060       -3.00900        7.57930
C         -3.27020       -3.41270        7.34750
O         -3.06190       -4.53410        6.92080
C         -5.61070       -4.03520        7.46500
C         -5.86680       -4.71280        8.80450
C          0.14210       -1.80800        8.17860
C          1.48810       -2.44380        8.50250
H         -0.99020        6.20030       -5.46640
H         -2.75240        0.68550       -7.84090
H         -3.94140        5.10980       -9.99890
H         -4.89690        2.48840      -12.01490
H         -7.16930        3.21190      -11.29910
H         -7.05890        3.54270       -8.70600
H         -6.44300        1.21450       -7.59330
H         -6.19280       -0.56250       -9.50150
H         -8.13440        0.83730      -10.63340
H         -6.84780        0.59540      -11.84150
H         -4.31280        0.21450      -10.94070
H          3.05340        2.40240       -5.47440
H          3.09170        4.04240       -6.15730
H          2.26460        1.51660       -7.68190
H          2.32160        3.14720       -8.35170
H          3.81980        2.35110       -7.84250
H          0.79090        0.82210       -5.32380
H          0.62710       -0.00750       -3.76330
H          3.11200       -0.10060       -5.55890
H          2.97060       -0.85680       -3.97170
H          1.94630       -1.40640       -5.31530
H         -0.16940        4.48690       -1.10950
H         -1.00040        5.78340       -3.02710
H         -2.95470        4.25240       -0.45520
H         -4.22700        4.64280       -2.49750
H         -3.70040        5.49210       -4.79710
H         -4.86530        5.19250       -6.11140
H         -5.42730        5.18490       -4.42800
H         -2.52500        1.12900       -4.23810
H         -1.27910        0.71050       -2.16000
H          0.21650        3.31300        1.96610
H         -0.56340        3.67690        4.24500
H         -2.16580        3.28340        7.55170
H         -1.17200        4.13690        6.35540
H         -1.22200        2.33980        6.38100
H         -4.47390        2.36950        3.11670
H         -3.67540        1.96430        0.82240
H          6.12340       -1.20420       -0.16060
H          6.55920       -2.25190       -2.34310
H          3.22630       -5.18600       -3.89180
H          3.76300       -5.04540       -5.58110
H          2.66240       -3.82290       -4.91180
H          2.42030       -3.27480       -2.67630
H          1.99470       -2.26560       -0.50540
H          5.54980       -2.95590        1.71830
H          7.14650       -2.82400        3.58220
H          8.37010        0.78090        7.01050
H          7.84940        1.49520        5.46870
H          6.63440        0.93070        6.66210
H          5.71890        1.09380        4.52820
H          4.14490        0.96390        2.67300
H          1.01810       -4.96530        1.28120
H          1.36980       -5.37420        2.97940
H          3.26830       -3.93420        1.06960
H          3.42320       -5.59250        1.66560
H          3.58410       -4.23160        2.78630
H         -0.71960       -4.35550        3.67590
H         -1.17780       -4.24130        5.38890
H         -0.73180       -6.67600        5.66750
H         -0.36780       -6.81580        3.94290
H         -1.99400       -6.35530        4.47760
H          2.93750       -1.05260        6.74790
H          2.76020        0.16350        4.63920
H          2.83300       -3.89370        7.60680
H          1.09110       -5.54500        7.43410
H         -1.22810       -4.95920        7.84220
H         -3.68520        1.19600        7.28840
H         -5.38710        0.72900        7.52400
H         -4.99680        0.58000        9.98400
H         -3.30490        1.05140        9.74280
H         -4.60710        2.19060        9.37370
H         -6.52250       -3.56310        7.09630
H         -5.24870       -4.76290        6.73650
H         -6.62430       -5.48150        8.68280
H         -6.22030       -3.98810        9.53390
H         -4.95430       -5.17510        9.17380
H          0.24570       -1.13730        7.32080
H         -0.19520       -1.18200        9.00760
H          2.24650       -1.67000        8.60880
H          1.42800       -2.97910        9.45330
