271

C          8.33440       -2.48360        0.62510
C          8.59780       -3.18100        1.75840
C          7.56950       -3.61630        2.72960
O          6.47550       -3.12910        2.92020
C          8.13060       -4.82000        3.37090
C          7.46540       -5.69800        4.22560
C          8.21740       -6.78240        4.60980
C          9.53990       -6.97800        4.18520
C         10.20920       -6.12090        3.34500
C          9.45770       -5.01470        2.93430
C          9.80350       -3.95560        1.99450
C         11.02480       -3.74680        1.41660
C         11.30880       -2.70330        0.50910
N         11.60960       -1.87490       -0.22710
C         12.17080       -4.53030        1.66490
N         13.14140       -5.11950        1.83020
C          9.67410       -8.27800        4.93820
C         10.46370       -8.23530        6.26330
C         10.02440       -9.48950        6.98410
C          8.77200       -9.30860        7.38320
C          8.34310       -7.92860        6.93920
C          9.67940       -7.18450        7.06020
C          8.19880       -8.06270        5.40870
C          7.09050       -1.93070        0.20980
C          6.61600       -2.12300       -1.08900
N          7.25910       -2.96920       -1.98510
C          7.56510       -2.52620       -3.27300
C          7.74660       -1.16760       -3.52470
C          8.12950       -0.72930       -4.77570
C          8.33790       -1.64450       -5.79880
S          8.88710       -1.17670       -7.41500
C          9.76950        0.38170       -7.10010
C          8.10650       -2.99780       -5.56710
C          7.72090       -3.43600       -4.31940
C          7.76030       -4.18190       -1.47820
C          9.04190       -4.63730       -1.79400
C          9.54220       -5.76830       -1.18920
C          8.78090       -6.47500       -0.25840
S          9.55450       -7.86260        0.51210
C          8.18170       -8.71350        1.34200
C          7.49450       -6.04510        0.03340
C          6.98880       -4.91640       -0.58060
C          5.37140       -1.49480       -1.27280
S          4.17990       -1.49120       -2.53090
C          3.09600       -0.56510       -1.51340
C          3.63370       -0.28380       -0.27610
N          2.93100        0.41740        0.71300
C          1.79650       -0.18750        1.27550
C          1.82290       -1.54320        1.59130
C          0.75330       -2.14250        2.22740
C         -0.37150       -1.39650        2.54940
S         -1.73460       -2.02190        3.48410
C         -1.52850       -3.82290        3.39220
C         -0.43700       -0.05840        2.16660
C          0.63310        0.53810        1.53760
C          3.40920        1.65340        1.13470
C          3.01600        2.21050        2.35470
C          3.46480        3.45720        2.72770
C          4.33240        4.17670        1.90960
S          4.81280        5.77920        2.48210
C          6.15150        6.25720        1.35270
C          4.75830        3.61320        0.71630
C          4.30280        2.36590        0.33650
C          4.93300       -0.81970       -0.13590
S          5.99250       -1.01750        1.20860
C          1.74460       -0.18410       -1.84370
C          1.28730        1.11620       -1.92800
N          2.08770        2.20600       -2.21680
C          3.13400        2.09470       -3.14720
C          3.14490        1.12510       -4.14540
C          4.16350        1.07650       -5.07690
C          5.18850        2.00890       -5.03710
S          6.49990        2.07150       -6.21600
C          6.00850        0.85830       -7.47370
C          5.19330        2.97500       -4.03300
C          4.18140        3.01750       -3.10060
C          1.59960        3.50320       -1.94050
C          1.28880        3.88050       -0.63740
C          0.82300        5.15130       -0.37540
C          0.65530        6.06610       -1.41070
S          0.05460        7.67040       -0.98690
C          0.58590        8.69430       -2.39160
C          0.94900        5.68940       -2.71500
C          1.42220        4.41950       -2.97340
C         -0.12300        1.15840       -1.78000
S         -1.26690        2.42340       -1.52230
C         -2.55670        1.24050       -1.33550
C         -2.12280       -0.05480       -1.51320
N         -2.94310       -1.17450       -1.60570
C         -3.98020       -1.33510       -0.66530
C         -5.31100       -1.42690       -1.05620
C         -6.31230       -1.53480       -0.10990
C         -5.99220       -1.57550        1.24110
S         -7.19320       -1.67770        2.53420
C         -8.70810       -2.19760        1.68160
C         -4.65760       -1.51550        1.63310
C         -3.66250       -1.39230        0.68840
C         -2.86450       -1.98760       -2.73500
C         -3.45270       -3.25220       -2.73070
C         -3.39250       -4.06710       -3.84220
C         -2.72370       -3.64580       -4.98250
S         -2.59170       -4.62880       -6.44840
C         -4.10550       -5.63090       -6.38090
C         -2.10790       -2.40030       -4.98390
C         -2.19020       -1.57420       -3.88540
C         -0.71760       -0.08880       -1.70950
S          0.44130       -1.36520       -1.76260
C         -3.82710        1.72800       -0.85530
C         -4.75120        2.48240       -1.53820
N         -4.61150        2.76920       -2.90970
C         -4.78630        1.68520       -3.77940
C         -3.90370        1.40720       -4.81930
C         -4.09800        0.30850       -5.63590
C         -5.17470       -0.53940       -5.41990
S         -5.51080       -1.98610       -6.37400
C         -4.45530       -1.80460       -7.83810
C         -6.05670       -0.27000       -4.37690
C         -5.86570        0.82620       -3.56630
C         -4.07780        3.99620       -3.28090
C         -4.18250        4.46200       -4.59350
C         -3.66380        5.69110       -4.94140
C         -3.04010        6.48530       -3.98820
S         -2.37150        8.05710       -4.48310
C         -2.99310        9.12890       -3.14750
C         -2.93920        6.03870       -2.68030
C         -3.46130        4.81230       -2.32960
C         -5.81460        2.89660       -0.70240
S         -7.31580        3.71560       -0.95290
C         -7.72720        3.50870        0.75730
C         -6.74380        2.76390        1.45280
N         -6.79190        2.35140        2.75970
C         -5.55530        2.18740        3.42100
C         -4.60730        3.20540        3.36210
C         -3.35720        3.03820        3.92430
C         -3.03660        1.84410        4.55800
S         -1.46170        1.49620        5.26740
C         -0.40470        2.84420        4.66450
C         -4.00180        0.84190        4.65880
C         -5.24910        1.00960        4.10160
C         -7.96100        1.88800        3.38000
C         -8.97540        1.28150        2.64280
C        -10.12440        0.83450        3.26170
C        -10.27180        0.97110        4.63650
S        -11.69230        0.42830        5.53090
C        -12.95510        0.21380        4.24160
C         -9.24650        1.54820        5.38090
C         -8.10700        2.00970        4.76160
C         -5.66060        2.46570        0.60870
S         -4.20390        1.56830        0.84440
C         -8.83480        4.06630        1.39540
C         -9.91770        4.74650        0.89150
C        -10.20210        4.99190       -0.52440
O         -9.48360        4.71950       -1.47370
C        -11.53870        5.61140       -0.57130
C        -12.02930        5.73790        0.72720
C        -13.29170        6.30090        0.95420
C        -14.03200        6.71990       -0.12130
C        -13.56140        6.60580       -1.44670
C        -14.32780        7.04290       -2.54660
C        -13.84840        6.92390       -3.82160
C        -12.58220        6.36330       -4.05710
C        -11.80930        5.92750       -3.01710
C        -12.27760        6.03690       -1.69120
C        -11.03290        5.22910        1.66970
C        -11.15680        5.22530        3.03840
C        -12.31650        5.61950        3.73540
N        -13.23290        5.89880        4.36950
C        -10.15060        4.85390        3.95180
N         -9.37620        4.60310        4.76420
H          9.10780       -2.44790       -0.13440
H          6.44420       -5.51540        4.52150
H         11.21600       -6.29470        3.00490
H          9.90870       -9.15160        4.33270
H         11.53370       -8.08420        6.15030
H         10.63070      -10.37110        7.07720
H          8.12300      -10.00810        7.87680
H          7.48110       -7.49820        7.44220
H         10.01830       -7.11350        8.09240
H          9.67880       -6.19440        6.60840
H          7.44670       -8.79430        5.11570
H          7.61300       -0.44990       -2.72880
H          8.27550        0.32600       -4.93740
H         10.44380        0.24460       -6.26050
H          9.06780        1.18930       -6.91060
H         10.33490        0.58830       -8.00340
H          8.24340       -3.70180       -6.37340
H          7.55530       -4.48790       -4.14220
H          9.65210       -4.08270       -2.49120
H         10.54140       -6.10900       -1.41460
H          8.59420       -9.65190        1.69910
H          7.38740       -8.90850        0.62800
H          7.82570       -8.12370        2.18220
H          6.87740       -6.57220        0.74350
H          5.99120       -4.58190       -0.33730
H          2.70510       -2.12550        1.37050
H          0.82260       -3.18580        2.48930
H         -1.42140       -4.12550        2.35460
H         -0.67540       -4.13680        3.98670
H         -2.43870       -4.24360        3.80800
H         -1.33460        0.50530        2.37530
H          0.56940        1.57690        1.25170
H          2.36490        1.65650        3.01310
H          3.15310        3.88860        3.66700
H          6.56370        7.17500        1.75980
H          6.91310        5.48360        1.33930
H          5.75630        6.44160        0.35790
H          5.44090        4.13460        0.06450
H          4.63760        1.94600       -0.60020
H          2.34110        0.40820       -4.21680
H          4.13390        0.30930       -5.83310
H          5.03030        1.11870       -7.86670
H          6.75220        0.92540       -8.26180
H          6.01660       -0.14220       -7.05070
H          5.99580        3.69620       -4.00030
H          4.17760        3.78050       -2.33680
H          1.44320        3.18290        0.16980
H          0.59780        5.45090        0.63670
H         -0.01580        8.48090       -3.27120
H          1.64000        8.51830       -2.58290
H          0.43200        9.72350       -2.08160
H          0.79860        6.37010       -3.53730
H          1.65140        4.13070       -3.98870
H         -5.55830       -1.39820       -2.10610
H         -7.33800       -1.57750       -0.44110
H         -8.50840       -3.08690        1.09140
H         -9.09160       -1.39160        1.06320
H         -9.41970       -2.42470        2.46910
H         -4.40640       -1.55540        2.68080
H         -2.62980       -1.32650        0.99070
H         -3.96110       -3.60140       -1.84460
H         -3.86250       -5.03700       -3.80500
H         -4.23650       -6.04300       -7.37650
H         -4.94230       -4.98720       -6.12670
H         -3.99430       -6.43850       -5.66300
H         -1.56850       -2.07790       -5.86230
H         -1.74330       -0.59370       -3.93200
H         -3.05000        2.04880       -4.98210
H         -3.39320        0.11650       -6.42890
H         -3.41380       -1.94940       -7.56890
H         -4.76550       -2.58770       -8.52300
H         -4.62230       -0.83010       -8.28710
H         -6.89980       -0.92740       -4.22270
H         -6.55860        1.03550       -2.76510
H         -4.69080        3.86500       -5.33520
H         -3.74790        6.04890       -5.95640
H         -4.05630        8.95010       -3.02090
H         -2.81950       10.15000       -3.47180
H         -2.45720        8.93660       -2.22280
H         -2.44950        6.63690       -1.92810
H         -3.37510        4.48130       -1.30600
H         -4.85190        4.13220        2.86340
H         -2.64470        3.84460        3.86100
H         -0.46030        2.90080        3.58160
H          0.60370        2.58070        4.96800
H         -0.68970        3.78540        5.12540
H         -3.74730       -0.07830        5.16130
H         -5.98360        0.22150        4.16370
H         -8.86380        1.16680        1.57430
H        -10.89400        0.37070        2.66480
H        -13.01330        1.11350        3.63650
H        -13.89050        0.06390        4.77120
H        -12.73550       -0.65900        3.63340
H         -9.36510        1.65200        6.44750
H         -7.33010        2.48140        5.34160
H         -8.83060        3.91770        2.46760
H        -13.68090        6.40590        1.95330
H        -15.00820        7.15470        0.03910
H        -15.30090        7.47470       -2.36150
H        -14.44160        7.26170       -4.65870
H        -12.22270        6.27960       -5.07200
H        -10.83540        5.49590       -3.18620
