
  xtb     02072210273D
 energy: -302.595098285225 gnorm: 0.000938931381 xtb: 6.4.1 (unknown)
178199  0     0  0            999 V2000
   -3.3014   -3.8774    3.7623 C   0  0  0  0  0  0  0  0  0  0  0  0
   -4.5148   -3.5343    4.3109 C   0  0  0  0  0  0  0  0  0  0  0  0
   -4.9946   -2.1771    4.5828 C   0  0  0  0  0  0  0  0  0  0  0  0
   -4.4867   -1.1236    4.2374 O   0  0  0  0  0  0  0  0  0  0  0  0
   -6.2236   -2.3281    5.3834 C   0  0  0  0  0  0  0  0  0  0  0  0
   -7.0291   -1.3110    5.8893 C   0  0  0  0  0  0  0  0  0  0  0  0
   -8.1135   -1.7604    6.6049 C   0  0  0  0  0  0  0  0  0  0  0  0
   -8.3801   -3.1214    6.8000 C   0  0  0  0  0  0  0  0  0  0  0  0
   -7.5969   -4.1354    6.3005 C   0  0  0  0  0  0  0  0  0  0  0  0
   -6.4859   -3.6996    5.5735 C   0  0  0  0  0  0  0  0  0  0  0  0
   -5.4564   -4.4695    4.8774 C   0  0  0  0  0  0  0  0  0  0  0  0
   -5.4220   -5.8401    4.7791 C   0  0  0  0  0  0  0  0  0  0  0  0
   -4.5476   -6.5786    3.9613 C   0  0  0  0  0  0  0  0  0  0  0  0
   -3.9035   -7.2699    3.3049 N   0  0  0  0  0  0  0  0  0  0  0  0
   -6.2837   -6.7198    5.4629 C   0  0  0  0  0  0  0  0  0  0  0  0
   -6.9149   -7.5140    6.0024 N   0  0  0  0  0  0  0  0  0  0  0  0
   -9.6212   -2.8447    7.6119 C   0  0  0  0  0  0  0  0  0  0  0  0
   -9.4946   -3.0026    9.1419 C   0  0  0  0  0  0  0  0  0  0  0  0
  -10.6699   -2.2221    9.6845 C   0  0  0  0  0  0  0  0  0  0  0  0
  -10.4177   -0.9325    9.5001 C   0  0  0  0  0  0  0  0  0  0  0  0
   -9.0674   -0.8198    8.8298 C   0  0  0  0  0  0  0  0  0  0  0  0
   -8.3575   -2.0239    9.4622 C   0  0  0  0  0  0  0  0  0  0  0  0
   -9.3238   -1.3264    7.3944 C   0  0  0  0  0  0  0  0  0  0  0  0
   -2.2726   -3.0787    3.2623 C   0  0  0  0  0  0  0  0  0  0  0  0
   -1.0121   -3.5903    2.8615 C   0  0  0  0  0  0  0  0  0  0  0  0
   -0.5567   -4.8643    3.0788 N   0  0  0  0  0  0  0  0  0  0  0  0
   -0.9290   -5.6199    4.2047 C   0  0  0  0  0  0  0  0  0  0  0  0
   -1.1446   -6.9894    4.0824 C   0  0  0  0  0  0  0  0  0  0  0  0
   -1.5947   -7.7260    5.1607 C   0  0  0  0  0  0  0  0  0  0  0  0
   -1.8564   -7.0986    6.3704 C   0  0  0  0  0  0  0  0  0  0  0  0
   -2.5518   -7.9295    7.7629 S   0  0  0  0  0  0  0  0  0  0  0  0
   -3.3620   -9.3708    7.0121 C   0  0  0  0  0  0  0  0  0  0  0  0
   -1.5675   -5.7416    6.5164 C   0  0  0  0  0  0  0  0  0  0  0  0
   -1.0960   -5.0110    5.4504 C   0  0  0  0  0  0  0  0  0  0  0  0
    0.3518   -5.4272    2.1632 C   0  0  0  0  0  0  0  0  0  0  0  0
    1.4643   -6.1349    2.6165 C   0  0  0  0  0  0  0  0  0  0  0  0
    2.3523   -6.6749    1.7149 C   0  0  0  0  0  0  0  0  0  0  0  0
    2.1527   -6.5202    0.3430 C   0  0  0  0  0  0  0  0  0  0  0  0
    3.3643   -7.2466   -0.7105 S   0  0  0  0  0  0  0  0  0  0  0  0
    2.8707   -6.7202   -2.3758 C   0  0  0  0  0  0  0  0  0  0  0  0
    1.0366   -5.8301   -0.1108 C   0  0  0  0  0  0  0  0  0  0  0  0
    0.1433   -5.2919    0.7942 C   0  0  0  0  0  0  0  0  0  0  0  0
   -0.2586   -2.6002    2.2057 C   0  0  0  0  0  0  0  0  0  0  0  0
    1.3283   -2.5589    1.4976 S   0  0  0  0  0  0  0  0  0  0  0  0
    1.0962   -0.8853    1.0561 C   0  0  0  0  0  0  0  0  0  0  0  0
   -0.1102   -0.3728    1.4976 C   0  0  0  0  0  0  0  0  0  0  0  0
   -0.4460    0.9674    1.3877 N   0  0  0  0  0  0  0  0  0  0  0  0
    0.6015    1.9012    1.5062 C   0  0  0  0  0  0  0  0  0  0  0  0
    0.7851    2.9064    0.5634 C   0  0  0  0  0  0  0  0  0  0  0  0
    1.8929    3.7308    0.6206 C   0  0  0  0  0  0  0  0  0  0  0  0
    2.8251    3.5680    1.6366 C   0  0  0  0  0  0  0  0  0  0  0  0
    4.3114    4.5045    1.7912 S   0  0  0  0  0  0  0  0  0  0  0  0
    4.3455    5.5175    0.2895 C   0  0  0  0  0  0  0  0  0  0  0  0
    2.6094    2.6047    2.6203 C   0  0  0  0  0  0  0  0  0  0  0  0
    1.5132    1.7778    2.5544 C   0  0  0  0  0  0  0  0  0  0  0  0
   -1.7563    1.3707    1.1498 C   0  0  0  0  0  0  0  0  0  0  0  0
   -2.6464    0.5509    0.4524 C   0  0  0  0  0  0  0  0  0  0  0  0
   -3.9459    0.9536    0.2467 C   0  0  0  0  0  0  0  0  0  0  0  0
   -4.3896    2.1854    0.7219 C   0  0  0  0  0  0  0  0  0  0  0  0
   -6.0743    2.6007    0.3921 S   0  0  0  0  0  0  0  0  0  0  0  0
   -6.3766    4.0430    1.4532 C   0  0  0  0  0  0  0  0  0  0  0  0
   -3.5031    3.0150    1.3953 C   0  0  0  0  0  0  0  0  0  0  0  0
   -2.2022    2.6079    1.6107 C   0  0  0  0  0  0  0  0  0  0  0  0
   -0.8888   -1.3634    2.1433 C   0  0  0  0  0  0  0  0  0  0  0  0
   -2.4258   -1.3507    2.9277 S   0  0  0  0  0  0  0  0  0  0  0  0
    2.0488   -0.1704    0.2240 C   0  0  0  0  0  0  0  0  0  0  0  0
    3.3850    0.0568    0.5783 C   0  0  0  0  0  0  0  0  0  0  0  0
    4.0495   -0.3233    1.7781 C   0  0  0  0  0  0  0  0  0  0  0  0
    5.3097    0.1575    1.8720 C   0  0  0  0  0  0  0  0  0  0  0  0
    6.2725    0.0162    2.9988 C   0  0  0  0  0  0  0  0  0  0  0  0
    6.2461    1.2556    3.8968 C   0  0  0  0  0  0  0  0  0  0  0  0
    5.7622    1.0996    0.4750 S   0  0  0  0  0  0  0  0  0  0  0  0
    4.2137    0.8359   -0.2619 C   0  0  0  0  0  0  0  0  0  0  0  0
    3.7758    1.3920   -1.4625 C   0  0  0  0  0  0  0  0  0  0  0  0
    2.4411    1.1399   -1.8315 C   0  0  0  0  0  0  0  0  0  0  0  0
    1.6175    0.3761   -0.9801 C   0  0  0  0  0  0  0  0  0  0  0  0
    0.0238    0.1777   -1.6484 S   0  0  0  0  0  0  0  0  0  0  0  0
    0.4668    1.0967   -3.0639 C   0  0  0  0  0  0  0  0  0  0  0  0
   -0.5633    1.3754   -4.1012 C   0  0  0  0  0  0  0  0  0  0  0  0
   -1.6221    2.3420   -3.5646 C   0  0  0  0  0  0  0  0  0  0  0  0
    1.7516    1.5150   -3.0210 C   0  0  0  0  0  0  0  0  0  0  0  0
    4.6379    2.1630   -2.3390 C   0  0  0  0  0  0  0  0  0  0  0  0
    5.9040    1.7115   -2.7460 C   0  0  0  0  0  0  0  0  0  0  0  0
    6.6624    2.3694   -3.7943 C   0  0  0  0  0  0  0  0  0  0  0  0
    7.7942    1.7160   -4.0680 N   0  0  0  0  0  0  0  0  0  0  0  0
    7.9014    0.4334   -3.1111 S   0  0  0  0  0  4  0  0  0  0  0  0
    6.5235    0.6053   -2.3187 N   0  0  0  0  0  0  0  0  0  0  0  0
    6.1666    3.4823   -4.4989 C   0  0  0  0  0  0  0  0  0  0  0  0
    4.9808    4.0300   -3.9732 C   0  0  0  0  0  0  0  0  0  0  0  0
    4.4302    5.1925   -4.3247 N   0  0  0  0  0  0  0  0  0  0  0  0
    3.1065    5.4285   -3.4563 S   0  0  0  0  0  0  0  0  0  0  0  0
    3.1606    4.0981   -2.5609 N   0  0  0  0  0  0  0  0  0  0  0  0
    4.2336    3.3782   -2.9167 C   0  0  0  0  0  0  0  0  0  0  0  0
    6.8154    3.9790   -5.6644 C   0  0  0  0  0  0  0  0  0  0  0  0
    6.1583    4.4414   -6.7650 C   0  0  0  0  0  0  0  0  0  0  0  0
    4.7397    4.1407   -7.0858 C   0  0  0  0  0  0  0  0  0  0  0  0
    3.9191    3.5596   -6.4040 O   0  0  0  0  0  0  0  0  0  0  0  0
    4.5517    4.5653   -8.4855 C   0  0  0  0  0  0  0  0  0  0  0  0
    3.3896    4.4365   -9.2443 C   0  0  0  0  0  0  0  0  0  0  0  0
    3.5122    4.8827  -10.5377 C   0  0  0  0  0  0  0  0  0  0  0  0
    4.7074    5.4082  -11.0470 C   0  0  0  0  0  0  0  0  0  0  0  0
    5.8623    5.5360  -10.3127 C   0  0  0  0  0  0  0  0  0  0  0  0
    5.7561    5.0958   -8.9894 C   0  0  0  0  0  0  0  0  0  0  0  0
    6.7558    5.0678   -7.9267 C   0  0  0  0  0  0  0  0  0  0  0  0
    8.0111    5.6144   -7.9838 C   0  0  0  0  0  0  0  0  0  0  0  0
    8.9140    5.6598   -6.9001 C   0  0  0  0  0  0  0  0  0  0  0  0
    9.6944    5.7619   -6.0641 N   0  0  0  0  0  0  0  0  0  0  0  0
    8.5569    6.2421   -9.1220 C   0  0  0  0  0  0  0  0  0  0  0  0
    9.0606    6.7558  -10.0171 N   0  0  0  0  0  0  0  0  0  0  0  0
    4.1143    5.6442  -12.4140 C   0  0  0  0  0  0  0  0  0  0  0  0
    3.7325    7.0990  -12.7593 C   0  0  0  0  0  0  0  0  0  0  0  0
    2.7646    6.9551  -13.9116 C   0  0  0  0  0  0  0  0  0  0  0  0
    1.6321    6.4609  -13.4280 C   0  0  0  0  0  0  0  0  0  0  0  0
    1.8156    6.2623  -11.9407 C   0  0  0  0  0  0  0  0  0  0  0  0
    2.7505    7.4384  -11.6305 C   0  0  0  0  0  0  0  0  0  0  0  0
    2.7808    5.0616  -11.8450 C   0  0  0  0  0  0  0  0  0  0  0  0
   -3.0904   -4.9381    3.7258 H   0  0  0  0  0  0  0  0  0  0  0  0
   -6.7913   -0.2743    5.7088 H   0  0  0  0  0  0  0  0  0  0  0  0
   -7.8181   -5.1786    6.4536 H   0  0  0  0  0  0  0  0  0  0  0  0
  -10.5484   -3.2556    7.2167 H   0  0  0  0  0  0  0  0  0  0  0  0
   -9.3860   -4.0274    9.4862 H   0  0  0  0  0  0  0  0  0  0  0  0
  -11.5591   -2.6751   10.0822 H   0  0  0  0  0  0  0  0  0  0  0  0
  -11.0540   -0.0934    9.7129 H   0  0  0  0  0  0  0  0  0  0  0  0
   -8.5698    0.1444    8.8909 H   0  0  0  0  0  0  0  0  0  0  0  0
   -7.4090   -2.2771    8.9923 H   0  0  0  0  0  0  0  0  0  0  0  0
   -8.2113   -1.8993   10.5339 H   0  0  0  0  0  0  0  0  0  0  0  0
  -10.0536   -0.7253    6.8548 H   0  0  0  0  0  0  0  0  0  0  0  0
   -0.9889   -7.4743    3.1316 H   0  0  0  0  0  0  0  0  0  0  0  0
   -1.7688   -8.7813    5.0325 H   0  0  0  0  0  0  0  0  0  0  0  0
   -3.9349   -9.0529    6.1461 H   0  0  0  0  0  0  0  0  0  0  0  0
   -4.0297   -9.7632    7.7726 H   0  0  0  0  0  0  0  0  0  0  0  0
   -2.6259  -10.1234    6.7444 H   0  0  0  0  0  0  0  0  0  0  0  0
   -1.7271   -5.2707    7.4742 H   0  0  0  0  0  0  0  0  0  0  0  0
   -0.8873   -3.9578    5.5650 H   0  0  0  0  0  0  0  0  0  0  0  0
    1.6280   -6.2491    3.6774 H   0  0  0  0  0  0  0  0  0  0  0  0
    3.2191   -7.2169    2.0599 H   0  0  0  0  0  0  0  0  0  0  0  0
    2.8404   -5.6357   -2.4257 H   0  0  0  0  0  0  0  0  0  0  0  0
    3.6402   -7.0994   -3.0413 H   0  0  0  0  0  0  0  0  0  0  0  0
    1.9116   -7.1576   -2.6374 H   0  0  0  0  0  0  0  0  0  0  0  0
    0.8443   -5.7091   -1.1642 H   0  0  0  0  0  0  0  0  0  0  0  0
   -0.7302   -4.7669    0.4366 H   0  0  0  0  0  0  0  0  0  0  0  0
    0.0703    3.0240   -0.2375 H   0  0  0  0  0  0  0  0  0  0  0  0
    2.0271    4.4697   -0.1516 H   0  0  0  0  0  0  0  0  0  0  0  0
    4.2513    4.8736   -0.5787 H   0  0  0  0  0  0  0  0  0  0  0  0
    3.5496    6.2567    0.3188 H   0  0  0  0  0  0  0  0  0  0  0  0
    5.3114    6.0131    0.2868 H   0  0  0  0  0  0  0  0  0  0  0  0
    3.3223    2.5092    3.4242 H   0  0  0  0  0  0  0  0  0  0  0  0
    1.3602    1.0170    3.3053 H   0  0  0  0  0  0  0  0  0  0  0  0
   -2.3098   -0.3963    0.0610 H   0  0  0  0  0  0  0  0  0  0  0  0
   -4.6344    0.3183   -0.2888 H   0  0  0  0  0  0  0  0  0  0  0  0
   -6.0994    3.8060    2.4757 H   0  0  0  0  0  0  0  0  0  0  0  0
   -5.8283    4.9052    1.0845 H   0  0  0  0  0  0  0  0  0  0  0  0
   -7.4433    4.2342    1.3921 H   0  0  0  0  0  0  0  0  0  0  0  0
   -3.8136    3.9789    1.7657 H   0  0  0  0  0  0  0  0  0  0  0  0
   -1.5228    3.2517    2.1496 H   0  0  0  0  0  0  0  0  0  0  0  0
    3.5873   -0.9300    2.5361 H   0  0  0  0  0  0  0  0  0  0  0  0
    6.0131   -0.8685    3.5841 H   0  0  0  0  0  0  0  0  0  0  0  0
    7.2805   -0.1152    2.6001 H   0  0  0  0  0  0  0  0  0  0  0  0
    7.0027    1.1743    4.6729 H   0  0  0  0  0  0  0  0  0  0  0  0
    5.2731    1.3569    4.3714 H   0  0  0  0  0  0  0  0  0  0  0  0
    6.4389    2.1514    3.3111 H   0  0  0  0  0  0  0  0  0  0  0  0
   -1.0490    0.4428   -4.3995 H   0  0  0  0  0  0  0  0  0  0  0  0
   -0.0744    1.8069   -4.9766 H   0  0  0  0  0  0  0  0  0  0  0  0
   -2.3696    2.5441   -4.3271 H   0  0  0  0  0  0  0  0  0  0  0  0
   -2.1190    1.9153   -2.6951 H   0  0  0  0  0  0  0  0  0  0  0  0
   -1.1596    3.2824   -3.2725 H   0  0  0  0  0  0  0  0  0  0  0  0
    2.2044    2.0653   -3.8251 H   0  0  0  0  0  0  0  0  0  0  0  0
    7.8947    3.8944   -5.6726 H   0  0  0  0  0  0  0  0  0  0  0  0
    2.4934    4.0144   -8.8168 H   0  0  0  0  0  0  0  0  0  0  0  0
    6.7786    5.9283  -10.7213 H   0  0  0  0  0  0  0  0  0  0  0  0
    4.6001    5.1245  -13.2376 H   0  0  0  0  0  0  0  0  0  0  0  0
    4.5759    7.7675  -12.9084 H   0  0  0  0  0  0  0  0  0  0  0  0
    3.0138    7.1674  -14.9346 H   0  0  0  0  0  0  0  0  0  0  0  0
    0.7465    6.1779  -13.9663 H   0  0  0  0  0  0  0  0  0  0  0  0
    0.9117    6.1691  -11.3444 H   0  0  0  0  0  0  0  0  0  0  0  0
    2.2652    8.4010  -11.7829 H   0  0  0  0  0  0  0  0  0  0  0  0
    3.1902    7.4055  -10.6354 H   0  0  0  0  0  0  0  0  0  0  0  0
    2.3766    4.1543  -12.2905 H   0  0  0  0  0  0  0  0  0  0  0  0
  1  2  2  0  0  0  0
  2  3  1  0  0  0  0
  3  4  2  0  0  0  0
  3  5  1  0  0  0  0
  5  6  2  0  0  0  0
  6  7  1  0  0  0  0
  7  8  2  0  0  0  0
  8  9  1  0  0  0  0
  9 10  2  0  0  0  0
 10 11  1  0  0  0  0
 11 12  2  0  0  0  0
 12 13  1  0  0  0  0
 13 14  3  0  0  0  0
 12 15  1  0  0  0  0
 15 16  3  0  0  0  0
  8 17  1  0  0  0  0
 17 18  1  0  0  0  0
 18 19  1  0  0  0  0
 19 20  2  0  0  0  0
 20 21  1  0  0  0  0
 21 22  1  0  0  0  0
 21 23  1  0  0  0  0
  1 24  1  0  0  0  0
 24 25  2  0  0  0  0
 25 26  1  0  0  0  0
 26 27  1  0  0  0  0
 27 28  2  0  0  0  0
 28 29  1  0  0  0  0
 29 30  2  0  0  0  0
 30 31  1  0  0  0  0
 31 32  1  0  0  0  0
 30 33  1  0  0  0  0
 33 34  2  0  0  0  0
 26 35  1  0  0  0  0
 35 36  2  0  0  0  0
 36 37  1  0  0  0  0
 37 38  2  0  0  0  0
 38 39  1  0  0  0  0
 39 40  1  0  0  0  0
 38 41  1  0  0  0  0
 41 42  2  0  0  0  0
 25 43  1  0  0  0  0
 43 44  1  0  0  0  0
 44 45  1  0  0  0  0
 45 46  2  0  0  0  0
 46 47  1  0  0  0  0
 47 48  1  0  0  0  0
 48 49  2  0  0  0  0
 49 50  1  0  0  0  0
 50 51  2  0  0  0  0
 51 52  1  0  0  0  0
 52 53  1  0  0  0  0
 51 54  1  0  0  0  0
 54 55  2  0  0  0  0
 47 56  1  0  0  0  0
 56 57  2  0  0  0  0
 57 58  1  0  0  0  0
 58 59  2  0  0  0  0
 59 60  1  0  0  0  0
 60 61  1  0  0  0  0
 59 62  1  0  0  0  0
 62 63  2  0  0  0  0
 46 64  1  0  0  0  0
 64 65  1  0  0  0  0
 45 66  1  0  0  0  0
 66 67  2  0  0  0  0
 67 68  1  0  0  0  0
 68 69  2  0  0  0  0
 69 70  1  0  0  0  0
 70 71  1  0  0  0  0
 69 72  1  0  0  0  0
 72 73  1  0  0  0  0
 73 74  2  0  0  0  0
 74 75  1  0  0  0  0
 75 76  2  0  0  0  0
 76 77  1  0  0  0  0
 77 78  1  0  0  0  0
 78 79  1  0  0  0  0
 79 80  1  0  0  0  0
 78 81  2  0  0  0  0
 74 82  1  0  0  0  0
 82 83  2  0  0  0  0
 83 84  1  0  0  0  0
 84 85  1  0  0  0  0
 85 86  2  0  0  0  0
 86 87  2  0  0  0  0
 84 88  2  0  0  0  0
 88 89  1  0  0  0  0
 89 90  2  0  0  0  0
 90 91  1  0  0  0  0
 91 92  1  0  0  0  0
 92 93  2  0  0  0  0
 88 94  1  0  0  0  0
 94 95  2  0  0  0  0
 95 96  1  0  0  0  0
 96 97  2  0  0  0  0
 96 98  1  0  0  0  0
 98 99  2  0  0  0  0
 99100  1  0  0  0  0
100101  2  0  0  0  0
101102  1  0  0  0  0
102103  2  0  0  0  0
103104  1  0  0  0  0
104105  2  0  0  0  0
105106  1  0  0  0  0
106107  3  0  0  0  0
105108  1  0  0  0  0
108109  3  0  0  0  0
101110  1  0  0  0  0
110111  1  0  0  0  0
111112  1  0  0  0  0
112113  2  0  0  0  0
113114  1  0  0  0  0
114115  1  0  0  0  0
114116  1  0  0  0  0
 11  2  1  0  0  0  0
 23 17  1  0  0  0  0
 65 24  1  0  0  0  0
 76 66  1  0  0  0  0
 93 82  1  0  0  0  0
104 95  1  0  0  0  0
116110  1  0  0  0  0
 10  5  1  0  0  0  0
 22 18  1  0  0  0  0
 34 27  1  0  0  0  0
 42 35  1  0  0  0  0
 64 43  2  0  0  0  0
 73 67  1  0  0  0  0
 81 75  1  0  0  0  0
 87 83  1  0  0  0  0
 93 89  1  0  0  0  0
103 98  1  0  0  0  0
115111  1  0  0  0  0
 23  7  1  0  0  0  0
 55 48  1  0  0  0  0
 63 56  1  0  0  0  0
116100  1  0  0  0  0
  1117  1  0  0  0  0
  6118  1  0  0  0  0
  9119  1  0  0  0  0
 17120  1  0  0  0  0
 18121  1  0  0  0  0
 19122  1  0  0  0  0
 20123  1  0  0  0  0
 21124  1  0  0  0  0
 22125  1  0  0  0  0
 22126  1  0  0  0  0
 23127  1  0  0  0  0
 28128  1  0  0  0  0
 29129  1  0  0  0  0
 32130  1  0  0  0  0
 32131  1  0  0  0  0
 32132  1  0  0  0  0
 33133  1  0  0  0  0
 34134  1  0  0  0  0
 36135  1  0  0  0  0
 37136  1  0  0  0  0
 40137  1  0  0  0  0
 40138  1  0  0  0  0
 40139  1  0  0  0  0
 41140  1  0  0  0  0
 42141  1  0  0  0  0
 49142  1  0  0  0  0
 50143  1  0  0  0  0
 53144  1  0  0  0  0
 53145  1  0  0  0  0
 53146  1  0  0  0  0
 54147  1  0  0  0  0
 55148  1  0  0  0  0
 57149  1  0  0  0  0
 58150  1  0  0  0  0
 61151  1  0  0  0  0
 61152  1  0  0  0  0
 61153  1  0  0  0  0
 62154  1  0  0  0  0
 63155  1  0  0  0  0
 68156  1  0  0  0  0
 70157  1  0  0  0  0
 70158  1  0  0  0  0
 71159  1  0  0  0  0
 71160  1  0  0  0  0
 71161  1  0  0  0  0
 79162  1  0  0  0  0
 79163  1  0  0  0  0
 80164  1  0  0  0  0
 80165  1  0  0  0  0
 80166  1  0  0  0  0
 81167  1  0  0  0  0
 94168  1  0  0  0  0
 99169  1  0  0  0  0
102170  1  0  0  0  0
110171  1  0  0  0  0
111172  1  0  0  0  0
112173  1  0  0  0  0
113174  1  0  0  0  0
114175  1  0  0  0  0
115176  1  0  0  0  0
115177  1  0  0  0  0
116178  1  0  0  0  0
M  END
