
  xtb     02092208473D
 energy: -308.778986707739 gnorm: 0.000390980089 xtb: 6.4.1 (unknown)
186206  0     0  0            999 V2000
   -4.7096   -4.4233    5.3152 C   0  0  0  0  0  0  0  0  0  0  0  0
   -5.7428   -5.0258    4.6747 C   0  0  0  0  0  0  0  0  0  0  0  0
   -6.6378   -5.9516    5.4269 C   0  0  0  0  0  0  0  0  0  0  0  0
   -6.7080   -6.0659    6.6291 O   0  0  0  0  0  0  0  0  0  0  0  0
   -7.3610   -6.7194    4.3968 C   0  0  0  0  0  0  0  0  0  0  0  0
   -8.2362   -7.7851    4.5975 C   0  0  0  0  0  0  0  0  0  0  0  0
   -8.7425   -8.3207    3.4378 C   0  0  0  0  0  0  0  0  0  0  0  0
   -8.3868   -7.8509    2.1655 C   0  0  0  0  0  0  0  0  0  0  0  0
   -7.5297   -6.7986    1.9510 C   0  0  0  0  0  0  0  0  0  0  0  0
   -7.0265   -6.2210    3.1194 C   0  0  0  0  0  0  0  0  0  0  0  0
   -6.1599   -5.0572    3.2856 C   0  0  0  0  0  0  0  0  0  0  0  0
   -6.0084   -4.0569    2.3626 C   0  0  0  0  0  0  0  0  0  0  0  0
   -5.3999   -2.8123    2.6285 C   0  0  0  0  0  0  0  0  0  0  0  0
   -4.9681   -1.7605    2.7866 N   0  0  0  0  0  0  0  0  0  0  0  0
   -6.5271   -4.1048    1.0519 C   0  0  0  0  0  0  0  0  0  0  0  0
   -6.9102   -4.0930   -0.0302 N   0  0  0  0  0  0  0  0  0  0  0  0
   -9.2624   -8.8564    1.4616 C   0  0  0  0  0  0  0  0  0  0  0  0
  -10.6040   -8.3508    0.8765 C   0  0  0  0  0  0  0  0  0  0  0  0
  -11.0007   -7.1485    1.6972 C   0  0  0  0  0  0  0  0  0  0  0  0
  -11.3475   -7.5789    2.9029 C   0  0  0  0  0  0  0  0  0  0  0  0
  -11.1922   -9.0797    2.9192 C   0  0  0  0  0  0  0  0  0  0  0  0
  -11.5569   -9.4051    1.4619 C   0  0  0  0  0  0  0  0  0  0  0  0
   -9.6706   -9.3694    2.8786 C   0  0  0  0  0  0  0  0  0  0  0  0
   -3.5790   -3.7872    4.7381 C   0  0  0  0  0  0  0  0  0  0  0  0
   -3.0215   -3.9864    3.5034 C   0  0  0  0  0  0  0  0  0  0  0  0
   -1.9197   -3.1503    3.2346 C   0  0  0  0  0  0  0  0  0  0  0  0
   -1.1642   -3.0956    2.0471 C   0  0  0  0  0  0  0  0  0  0  0  0
   -1.3685   -3.9958    0.9312 C   0  0  0  0  0  0  0  0  0  0  0  0
   -1.4576   -3.6482   -0.3859 C   0  0  0  0  0  0  0  0  0  0  0  0
   -1.5264   -4.7167   -1.3019 C   0  0  0  0  0  0  0  0  0  0  0  0
   -1.4623   -5.9602   -0.7461 C   0  0  0  0  0  0  0  0  0  0  0  0
   -1.5474   -7.4486   -1.6600 S   0  0  0  0  0  0  0  0  0  0  0  0
   -0.4739   -8.5275   -0.6436 C   0  0  0  0  0  0  0  0  0  0  0  0
    0.9778   -8.0977   -0.6892 C   0  0  0  0  0  0  0  0  0  0  0  0
   -1.3899   -5.8697    1.1394 Se  0  0  0  0  0  2  0  0  0  0  0  0
   -0.1939   -2.1068    1.9871 C   0  0  0  0  0  0  0  0  0  0  0  0
    0.0775   -1.2130    3.0495 C   0  0  0  0  0  0  0  0  0  0  0  0
   -0.6194   -1.3202    4.2702 C   0  0  0  0  0  0  0  0  0  0  0  0
   -0.2323   -0.5717    5.4450 C   0  0  0  0  0  0  0  0  0  0  0  0
   -1.0254   -0.1076    6.4573 C   0  0  0  0  0  0  0  0  0  0  0  0
   -0.3568    0.3713    7.6000 C   0  0  0  0  0  0  0  0  0  0  0  0
    1.0042    0.2803    7.5562 C   0  0  0  0  0  0  0  0  0  0  0  0
    2.0568    0.7529    8.8719 S   0  0  0  0  0  0  0  0  0  0  0  0
    3.4489   -0.4268    8.6813 C   0  0  0  0  0  0  0  0  0  0  0  0
    4.5313    0.0891    7.7536 C   0  0  0  0  0  0  0  0  0  0  0  0
    1.5881   -0.3626    5.8871 Se  0  0  0  0  0  2  0  0  0  0  0  0
   -1.6374   -2.2721    4.3113 C   0  0  0  0  0  0  0  0  0  0  0  0
   -2.7032   -2.5751    5.6518 S   0  0  0  0  0  0  0  0  0  0  0  0
    1.0815   -0.2736    2.7029 C   0  0  0  0  0  0  0  0  0  0  0  0
    1.6023   -0.4625    1.4605 C   0  0  0  0  0  0  0  0  0  0  0  0
    0.8715   -1.8333    0.6394 S   0  0  0  0  0  0  0  0  0  0  0  0
    2.5644    0.2906    0.7122 C   0  0  0  0  0  0  0  0  0  0  0  0
    2.6129    1.6499    0.4635 C   0  0  0  0  0  0  0  0  0  0  0  0
    1.7775    2.6215    1.0013 N   0  0  0  0  0  0  0  0  0  0  0  0
    1.6726    2.8478    2.3705 C   0  0  0  0  0  0  0  0  0  0  0  0
    0.4893    3.3677    2.9007 C   0  0  0  0  0  0  0  0  0  0  0  0
    0.3800    3.6101    4.2502 C   0  0  0  0  0  0  0  0  0  0  0  0
    1.4440    3.3388    5.1082 C   0  0  0  0  0  0  0  0  0  0  0  0
    1.2025    3.7161    6.8164 S   0  0  0  0  0  0  0  0  0  0  0  0
    2.8996    3.8631    7.4429 C   0  0  0  0  0  0  0  0  0  0  0  0
    2.6127    2.7940    4.5919 C   0  0  0  0  0  0  0  0  0  0  0  0
    2.7283    2.5588    3.2339 C   0  0  0  0  0  0  0  0  0  0  0  0
    1.1170    3.4666    0.0881 C   0  0  0  0  0  0  0  0  0  0  0  0
    0.3877    2.9149   -0.9614 C   0  0  0  0  0  0  0  0  0  0  0  0
   -0.2889    3.7313   -1.8459 C   0  0  0  0  0  0  0  0  0  0  0  0
   -0.2213    5.1109   -1.7065 C   0  0  0  0  0  0  0  0  0  0  0  0
   -1.0449    6.2165   -2.8208 S   0  0  0  0  0  0  0  0  0  0  0  0
   -2.6374    5.3753   -3.0899 C   0  0  0  0  0  0  0  0  0  0  0  0
    0.5305    5.6662   -0.6762 C   0  0  0  0  0  0  0  0  0  0  0  0
    1.1866    4.8516    0.2216 C   0  0  0  0  0  0  0  0  0  0  0  0
    3.5708    1.9417   -0.5395 C   0  0  0  0  0  0  0  0  0  0  0  0
    4.0671    3.3889   -1.3282 S   0  0  0  0  0  0  0  0  0  0  0  0
    5.2152    2.4854   -2.3302 C   0  0  0  0  0  0  0  0  0  0  0  0
    5.2233    1.1295   -2.0128 C   0  0  0  0  0  0  0  0  0  0  0  0
    5.9404    0.1426   -2.6543 N   0  0  0  0  0  0  0  0  0  0  0  0
    7.2591    0.3329   -3.0638 C   0  0  0  0  0  0  0  0  0  0  0  0
    7.7435   -0.3117   -4.2047 C   0  0  0  0  0  0  0  0  0  0  0  0
    9.0470   -0.1293   -4.6030 C   0  0  0  0  0  0  0  0  0  0  0  0
    9.9029    0.7026   -3.8800 C   0  0  0  0  0  0  0  0  0  0  0  0
   11.5491    0.8566   -4.4948 S   0  0  0  0  0  0  0  0  0  0  0  0
   12.3175    2.0787   -3.3939 C   0  0  0  0  0  0  0  0  0  0  0  0
    9.4287    1.3410   -2.7424 C   0  0  0  0  0  0  0  0  0  0  0  0
    8.1199    1.1547   -2.3390 C   0  0  0  0  0  0  0  0  0  0  0  0
    5.3085   -1.1067   -2.8241 C   0  0  0  0  0  0  0  0  0  0  0  0
    5.9868   -2.2921   -2.5458 C   0  0  0  0  0  0  0  0  0  0  0  0
    5.3246   -3.4977   -2.6157 C   0  0  0  0  0  0  0  0  0  0  0  0
    3.9736   -3.5448   -2.9558 C   0  0  0  0  0  0  0  0  0  0  0  0
    3.2041   -5.1324   -2.9407 S   0  0  0  0  0  0  0  0  0  0  0  0
    1.4330   -4.7452   -3.0248 C   0  0  0  0  0  0  0  0  0  0  0  0
    3.3103   -2.3698   -3.2829 C   0  0  0  0  0  0  0  0  0  0  0  0
    3.9751   -1.1611   -3.2221 C   0  0  0  0  0  0  0  0  0  0  0  0
    4.2585    0.8394   -1.0152 C   0  0  0  0  0  0  0  0  0  0  0  0
    3.7358   -0.6094   -0.2331 S   0  0  0  0  0  0  0  0  0  0  0  0
    5.9313    3.2038   -3.3345 C   0  0  0  0  0  0  0  0  0  0  0  0
    5.3288    4.1169   -4.1477 C   0  0  0  0  0  0  0  0  0  0  0  0
    3.9240    4.1308   -4.2869 C   0  0  0  0  0  0  0  0  0  0  0  0
    3.1453    5.0138   -4.9725 C   0  0  0  0  0  0  0  0  0  0  0  0
    3.5737    6.3087   -5.5448 C   0  0  0  0  0  0  0  0  0  0  0  0
    4.7009    6.7548   -5.5986 O   0  0  0  0  0  0  0  0  0  0  0  0
    2.3332    6.9527   -6.0270 C   0  0  0  0  0  0  0  0  0  0  0  0
    2.2052    8.2273   -6.5722 C   0  0  0  0  0  0  0  0  0  0  0  0
    0.9142    8.5744   -6.8936 C   0  0  0  0  0  0  0  0  0  0  0  0
   -0.1724    7.7112   -6.7002 C   0  0  0  0  0  0  0  0  0  0  0  0
   -0.0616    6.4484   -6.1720 C   0  0  0  0  0  0  0  0  0  0  0  0
    1.2412    6.0815   -5.8252 C   0  0  0  0  0  0  0  0  0  0  0  0
    1.7280    4.8562   -5.2050 C   0  0  0  0  0  0  0  0  0  0  0  0
    0.9809    3.7353   -4.9340 C   0  0  0  0  0  0  0  0  0  0  0  0
    1.4432    2.5507   -4.3257 C   0  0  0  0  0  0  0  0  0  0  0  0
    1.7083    1.5422   -3.8387 N   0  0  0  0  0  0  0  0  0  0  0  0
   -0.3845    3.5973   -5.2438 C   0  0  0  0  0  0  0  0  0  0  0  0
   -1.4978    3.3971   -5.4512 N   0  0  0  0  0  0  0  0  0  0  0  0
   -1.1689    8.7188   -7.2132 C   0  0  0  0  0  0  0  0  0  0  0  0
   -2.0262    9.4683   -6.1637 C   0  0  0  0  0  0  0  0  0  0  0  0
   -1.2212    9.4855   -4.8874 C   0  0  0  0  0  0  0  0  0  0  0  0
   -0.1961   10.3073   -5.0690 C   0  0  0  0  0  0  0  0  0  0  0  0
   -0.2876   10.8579   -6.4708 C   0  0  0  0  0  0  0  0  0  0  0  0
   -1.8140   10.9140   -6.6400 C   0  0  0  0  0  0  0  0  0  0  0  0
    0.0404    9.6830   -7.4264 C   0  0  0  0  0  0  0  0  0  0  0  0
   -4.7351   -4.4770    6.3988 H   0  0  0  0  0  0  0  0  0  0  0  0
   -8.4742   -8.1265    5.5927 H   0  0  0  0  0  0  0  0  0  0  0  0
   -7.2572   -6.4495    0.9685 H   0  0  0  0  0  0  0  0  0  0  0  0
   -8.7523   -9.5500    0.7961 H   0  0  0  0  0  0  0  0  0  0  0  0
  -10.6044   -8.2172   -0.2018 H   0  0  0  0  0  0  0  0  0  0  0  0
  -10.9346   -6.1357    1.3451 H   0  0  0  0  0  0  0  0  0  0  0  0
  -11.6301   -6.9968    3.7605 H   0  0  0  0  0  0  0  0  0  0  0  0
  -11.7310   -9.6093    3.7005 H   0  0  0  0  0  0  0  0  0  0  0  0
  -11.3091  -10.4246    1.1694 H   0  0  0  0  0  0  0  0  0  0  0  0
  -12.6017   -9.2005    1.2338 H   0  0  0  0  0  0  0  0  0  0  0  0
   -9.4389  -10.4012    3.1362 H   0  0  0  0  0  0  0  0  0  0  0  0
   -3.3863   -4.7250    2.8094 H   0  0  0  0  0  0  0  0  0  0  0  0
   -1.4868   -2.6200   -0.7041 H   0  0  0  0  0  0  0  0  0  0  0  0
   -1.6031   -4.5698   -2.3651 H   0  0  0  0  0  0  0  0  0  0  0  0
   -0.6094   -9.5247   -1.0600 H   0  0  0  0  0  0  0  0  0  0  0  0
   -0.8714   -8.5062    0.3759 H   0  0  0  0  0  0  0  0  0  0  0  0
    1.3540   -8.1206   -1.7095 H   0  0  0  0  0  0  0  0  0  0  0  0
    1.0939   -7.0868   -0.2997 H   0  0  0  0  0  0  0  0  0  0  0  0
    1.5796   -8.7704   -0.0819 H   0  0  0  0  0  0  0  0  0  0  0  0
   -2.0996   -0.0999    6.3868 H   0  0  0  0  0  0  0  0  0  0  0  0
   -0.8752    0.7506    8.4632 H   0  0  0  0  0  0  0  0  0  0  0  0
    3.8340   -0.5690    9.6904 H   0  0  0  0  0  0  0  0  0  0  0  0
    3.0247   -1.3644    8.3195 H   0  0  0  0  0  0  0  0  0  0  0  0
    4.9474    1.0205    8.1322 H   0  0  0  0  0  0  0  0  0  0  0  0
    5.3319   -0.6439    7.6775 H   0  0  0  0  0  0  0  0  0  0  0  0
    4.1286    0.2607    6.7528 H   0  0  0  0  0  0  0  0  0  0  0  0
    1.3953    0.5265    3.3484 H   0  0  0  0  0  0  0  0  0  0  0  0
   -0.3398    3.5788    2.2427 H   0  0  0  0  0  0  0  0  0  0  0  0
   -0.5328    4.0138    4.6600 H   0  0  0  0  0  0  0  0  0  0  0  0
    3.4724    4.5129    6.7881 H   0  0  0  0  0  0  0  0  0  0  0  0
    2.8102    4.3065    8.4294 H   0  0  0  0  0  0  0  0  0  0  0  0
    3.3540    2.8811    7.5278 H   0  0  0  0  0  0  0  0  0  0  0  0
    3.4471    2.5610    5.2353 H   0  0  0  0  0  0  0  0  0  0  0  0
    3.6437    2.1436    2.8375 H   0  0  0  0  0  0  0  0  0  0  0  0
    0.3443    1.8423   -1.0785 H   0  0  0  0  0  0  0  0  0  0  0  0
   -0.8763    3.2862   -2.6340 H   0  0  0  0  0  0  0  0  0  0  0  0
   -2.9940    4.9867   -2.1415 H   0  0  0  0  0  0  0  0  0  0  0  0
   -3.3158    6.1367   -3.4619 H   0  0  0  0  0  0  0  0  0  0  0  0
   -2.5358    4.5823   -3.8263 H   0  0  0  0  0  0  0  0  0  0  0  0
    0.5882    6.7397   -0.5854 H   0  0  0  0  0  0  0  0  0  0  0  0
    1.7543    5.2801    1.0338 H   0  0  0  0  0  0  0  0  0  0  0  0
    7.0856   -0.9497   -4.7747 H   0  0  0  0  0  0  0  0  0  0  0  0
    9.4215   -0.6232   -5.4863 H   0  0  0  0  0  0  0  0  0  0  0  0
   11.7613    3.0108   -3.4293 H   0  0  0  0  0  0  0  0  0  0  0  0
   13.3187    2.2324   -3.7844 H   0  0  0  0  0  0  0  0  0  0  0  0
   12.3741    1.6880   -2.3820 H   0  0  0  0  0  0  0  0  0  0  0  0
   10.0665    1.9803   -2.1536 H   0  0  0  0  0  0  0  0  0  0  0  0
    7.7649    1.6383   -1.4405 H   0  0  0  0  0  0  0  0  0  0  0  0
    7.0257   -2.2587   -2.2529 H   0  0  0  0  0  0  0  0  0  0  0  0
    5.8399   -4.4167   -2.3827 H   0  0  0  0  0  0  0  0  0  0  0  0
    0.9158   -5.6880   -2.8763 H   0  0  0  0  0  0  0  0  0  0  0  0
    1.1753   -4.0507   -2.2302 H   0  0  0  0  0  0  0  0  0  0  0  0
    1.1813   -4.3425   -4.0016 H   0  0  0  0  0  0  0  0  0  0  0  0
    2.2754   -2.3748   -3.5822 H   0  0  0  0  0  0  0  0  0  0  0  0
    3.4459   -0.2530   -3.4706 H   0  0  0  0  0  0  0  0  0  0  0  0
    6.9906    3.0057   -3.4405 H   0  0  0  0  0  0  0  0  0  0  0  0
    5.9165    4.7681   -4.7760 H   0  0  0  0  0  0  0  0  0  0  0  0
    3.4116    3.2917   -3.8375 H   0  0  0  0  0  0  0  0  0  0  0  0
    3.0676    8.8617   -6.7063 H   0  0  0  0  0  0  0  0  0  0  0  0
   -0.9075    5.7991   -6.0236 H   0  0  0  0  0  0  0  0  0  0  0  0
   -1.7455    8.4222   -8.0873 H   0  0  0  0  0  0  0  0  0  0  0  0
   -3.0502    9.1134   -6.0815 H   0  0  0  0  0  0  0  0  0  0  0  0
   -1.4314    8.8663   -4.0354 H   0  0  0  0  0  0  0  0  0  0  0  0
    0.6131   10.5167   -4.3944 H   0  0  0  0  0  0  0  0  0  0  0  0
    0.2713   11.7692   -6.6678 H   0  0  0  0  0  0  0  0  0  0  0  0
   -2.2833   11.6465   -5.9849 H   0  0  0  0  0  0  0  0  0  0  0  0
   -2.1313   11.0832   -7.6683 H   0  0  0  0  0  0  0  0  0  0  0  0
    0.2535   10.0184   -8.4397 H   0  0  0  0  0  0  0  0  0  0  0  0
  1  2  2  0  0  0  0
  2  3  1  0  0  0  0
  3  4  2  0  0  0  0
  3  5  1  0  0  0  0
  5  6  2  0  0  0  0
  6  7  1  0  0  0  0
  7  8  2  0  0  0  0
  8  9  1  0  0  0  0
  9 10  2  0  0  0  0
 10 11  1  0  0  0  0
 11 12  2  0  0  0  0
 12 13  1  0  0  0  0
 13 14  3  0  0  0  0
 12 15  1  0  0  0  0
 15 16  3  0  0  0  0
  8 17  1  0  0  0  0
 17 18  1  0  0  0  0
 18 19  1  0  0  0  0
 19 20  2  0  0  0  0
 20 21  1  0  0  0  0
 21 22  1  0  0  0  0
 21 23  1  0  0  0  0
  1 24  1  0  0  0  0
 24 25  2  0  0  0  0
 25 26  1  0  0  0  0
 26 27  2  0  0  0  0
 27 28  1  0  0  0  0
 28 29  2  0  0  0  0
 29 30  1  0  0  0  0
 30 31  2  0  0  0  0
 31 32  1  0  0  0  0
 32 33  1  0  0  0  0
 33 34  1  0  0  0  0
 31 35  1  0  0  0  0
 27 36  1  0  0  0  0
 36 37  2  0  0  0  0
 37 38  1  0  0  0  0
 38 39  1  0  0  0  0
 39 40  2  0  0  0  0
 40 41  1  0  0  0  0
 41 42  2  0  0  0  0
 42 43  1  0  0  0  0
 43 44  1  0  0  0  0
 44 45  1  0  0  0  0
 42 46  1  0  0  0  0
 38 47  2  0  0  0  0
 47 48  1  0  0  0  0
 37 49  1  0  0  0  0
 49 50  2  0  0  0  0
 50 51  1  0  0  0  0
 50 52  1  0  0  0  0
 52 53  2  0  0  0  0
 53 54  1  0  0  0  0
 54 55  1  0  0  0  0
 55 56  2  0  0  0  0
 56 57  1  0  0  0  0
 57 58  2  0  0  0  0
 58 59  1  0  0  0  0
 59 60  1  0  0  0  0
 58 61  1  0  0  0  0
 61 62  2  0  0  0  0
 54 63  1  0  0  0  0
 63 64  2  0  0  0  0
 64 65  1  0  0  0  0
 65 66  2  0  0  0  0
 66 67  1  0  0  0  0
 67 68  1  0  0  0  0
 66 69  1  0  0  0  0
 69 70  2  0  0  0  0
 53 71  1  0  0  0  0
 71 72  1  0  0  0  0
 72 73  1  0  0  0  0
 73 74  2  0  0  0  0
 74 75  1  0  0  0  0
 75 76  1  0  0  0  0
 76 77  2  0  0  0  0
 77 78  1  0  0  0  0
 78 79  2  0  0  0  0
 79 80  1  0  0  0  0
 80 81  1  0  0  0  0
 79 82  1  0  0  0  0
 82 83  2  0  0  0  0
 75 84  1  0  0  0  0
 84 85  2  0  0  0  0
 85 86  1  0  0  0  0
 86 87  2  0  0  0  0
 87 88  1  0  0  0  0
 88 89  1  0  0  0  0
 87 90  1  0  0  0  0
 90 91  2  0  0  0  0
 74 92  1  0  0  0  0
 92 93  1  0  0  0  0
 73 94  1  0  0  0  0
 94 95  2  0  0  0  0
 95 96  1  0  0  0  0
 96 97  2  0  0  0  0
 97 98  1  0  0  0  0
 98 99  2  0  0  0  0
 98100  1  0  0  0  0
100101  2  0  0  0  0
101102  1  0  0  0  0
102103  2  0  0  0  0
103104  1  0  0  0  0
104105  2  0  0  0  0
105106  1  0  0  0  0
106107  2  0  0  0  0
107108  1  0  0  0  0
108109  3  0  0  0  0
107110  1  0  0  0  0
110111  3  0  0  0  0
103112  1  0  0  0  0
112113  1  0  0  0  0
113114  1  0  0  0  0
114115  2  0  0  0  0
115116  1  0  0  0  0
116117  1  0  0  0  0
116118  1  0  0  0  0
 11  2  1  0  0  0  0
 23 17  1  0  0  0  0
 48 24  1  0  0  0  0
 93 52  1  0  0  0  0
106 97  1  0  0  0  0
118112  1  0  0  0  0
 10  5  1  0  0  0  0
 22 18  1  0  0  0  0
 47 26  1  0  0  0  0
 62 55  1  0  0  0  0
 70 63  1  0  0  0  0
 92 71  2  0  0  0  0
105100  1  0  0  0  0
117113  1  0  0  0  0
 23  7  1  0  0  0  0
 35 28  1  0  0  0  0
 51 36  1  0  0  0  0
 83 76  1  0  0  0  0
 91 84  1  0  0  0  0
118102  1  0  0  0  0
 46 39  1  0  0  0  0
  1119  1  0  0  0  0
  6120  1  0  0  0  0
  9121  1  0  0  0  0
 17122  1  0  0  0  0
 18123  1  0  0  0  0
 19124  1  0  0  0  0
 20125  1  0  0  0  0
 21126  1  0  0  0  0
 22127  1  0  0  0  0
 22128  1  0  0  0  0
 23129  1  0  0  0  0
 25130  1  0  0  0  0
 29131  1  0  0  0  0
 30132  1  0  0  0  0
 33133  1  0  0  0  0
 33134  1  0  0  0  0
 34135  1  0  0  0  0
 34136  1  0  0  0  0
 34137  1  0  0  0  0
 40138  1  0  0  0  0
 41139  1  0  0  0  0
 44140  1  0  0  0  0
 44141  1  0  0  0  0
 45142  1  0  0  0  0
 45143  1  0  0  0  0
 45144  1  0  0  0  0
 49145  1  0  0  0  0
 56146  1  0  0  0  0
 57147  1  0  0  0  0
 60148  1  0  0  0  0
 60149  1  0  0  0  0
 60150  1  0  0  0  0
 61151  1  0  0  0  0
 62152  1  0  0  0  0
 64153  1  0  0  0  0
 65154  1  0  0  0  0
 68155  1  0  0  0  0
 68156  1  0  0  0  0
 68157  1  0  0  0  0
 69158  1  0  0  0  0
 70159  1  0  0  0  0
 77160  1  0  0  0  0
 78161  1  0  0  0  0
 81162  1  0  0  0  0
 81163  1  0  0  0  0
 81164  1  0  0  0  0
 82165  1  0  0  0  0
 83166  1  0  0  0  0
 85167  1  0  0  0  0
 86168  1  0  0  0  0
 89169  1  0  0  0  0
 89170  1  0  0  0  0
 89171  1  0  0  0  0
 90172  1  0  0  0  0
 91173  1  0  0  0  0
 94174  1  0  0  0  0
 95175  1  0  0  0  0
 96176  1  0  0  0  0
101177  1  0  0  0  0
104178  1  0  0  0  0
112179  1  0  0  0  0
113180  1  0  0  0  0
114181  1  0  0  0  0
115182  1  0  0  0  0
116183  1  0  0  0  0
117184  1  0  0  0  0
117185  1  0  0  0  0
118186  1  0  0  0  0
M  END
