233

C         -6.31060        2.86010       -4.23880
C         -6.96320        2.02850       -5.12960
C         -6.39390        0.78780       -5.66410
O         -5.31290        0.28590       -5.39390
C         -7.33360        0.32320       -6.70370
C         -7.22950       -0.82680       -7.48050
C         -8.27610       -1.00940       -8.35330
C         -9.34500       -0.11150       -8.45280
C         -9.46070        1.02780       -7.69020
C         -8.40830        1.22850       -6.79550
C         -8.20270        2.28400       -5.80550
C         -9.11410        3.25390       -5.46370
C         -8.96250        4.11920       -4.36330
N         -8.94350        4.81640       -3.44960
C        -10.35380        3.45150       -6.09870
N        -11.38460        3.67260       -6.55620
C        -10.02390       -0.91440       -9.53520
C         -9.88520       -0.38550      -10.97830
C        -10.21380       -1.58560      -11.83670
C         -9.20370       -2.44040      -11.73920
C         -8.17530       -1.83210      -10.81330
C         -8.36120       -0.34730      -11.15120
C         -8.83320       -1.91960       -9.42010
C         -5.31330        2.46330       -3.35070
C         -5.01150        1.19260       -2.80820
N         -5.84080        0.11780       -2.77010
C         -7.22360        0.19860       -2.99690
C         -7.84460       -0.77540       -3.78060
C         -9.18650       -0.67720       -4.07350
C         -9.94400        0.38350       -3.57810
S        -11.62370        0.45740       -4.09390
C        -12.26360        1.97140       -3.32710
C         -9.34400        1.31030       -2.73090
C         -7.99680        1.21870       -2.44870
C         -5.33500       -1.15880       -2.42550
C         -5.88790       -1.84430       -1.35100
C         -5.38910       -3.07790       -0.97980
C         -4.33830       -3.64280       -1.69240
S         -3.59900       -5.19150       -1.29610
C         -4.34990       -5.64430        0.29460
C         -3.81710       -2.97460       -2.79920
C         -4.30680       -1.74010       -3.16110
C         -3.75750        1.22860       -2.15120
S         -2.75700        0.02140       -1.41640
C         -1.56890        1.23570       -1.01850
C         -1.96840        2.51990       -1.34250
N         -1.27490        3.65100       -0.91390
C         -0.81790        3.61450        0.41680
C         -1.64550        3.08050        1.40280
C         -1.19250        2.89190        2.69320
C          0.10900        3.23780        3.02730
S          0.84220        2.93540        4.60400
C         -0.51870        2.23380        5.57950
C          0.91450        3.84840        2.06920
C          0.45550        4.04840        0.78580
C         -0.97470        4.69630       -1.78660
C         -1.00230        4.49070       -3.16510
C         -0.66910        5.50050       -4.03750
C         -0.29150        6.74890       -3.55630
S          0.13130        7.98030       -4.75100
C          1.16500        9.13260       -3.80310
C         -0.29890        6.97600       -2.18740
C         -0.64550        5.96480       -1.31330
C         -3.19950        2.49680       -2.04070
S         -4.17270        3.70370       -2.79330
C         -0.26340        0.88430       -0.51580
C          0.88990        0.98950       -1.26250
N          0.86490        1.29540       -2.62890
C          1.53690        2.41130       -3.11640
C          1.71000        2.64070       -4.48000
C          2.30120        3.80470       -4.93280
C          2.75370        4.75930       -4.03440
S          3.49310        6.29440       -4.50080
C          3.08810        6.44720       -6.26260
C          2.65850        4.49980       -2.67140
C          2.06420        3.34460       -2.22190
C          0.09860        0.42730       -3.42980
C          0.19040       -0.94900       -3.20920
C         -0.53010       -1.83370       -3.97810
C         -1.37250       -1.37150       -4.98760
S         -2.20310       -2.59410       -5.95270
C         -3.23910       -1.63140       -7.08950
C         -1.49810       -0.00470       -5.19010
C         -0.76750        0.88000       -4.41990
C          2.02950        0.65910       -0.48920
S          3.72930        0.63270       -0.78630
C          4.01370        0.04140        0.83510
C          2.85970       -0.06460        1.58600
N          2.80920       -0.36890        2.93700
C          3.84920        0.01480        3.79140
C          4.54130        1.20680        3.58280
C          5.65970        1.51480        4.33070
C          6.08590        0.64960        5.32880
S          7.57090        0.87640        6.26160
C          8.50150        2.10370        5.29990
C          5.32420       -0.47620        5.62600
C          4.22780       -0.79910        4.85830
C          1.70710       -1.07610        3.42670
C          1.16770       -0.77180        4.67380
C          0.06610       -1.45470        5.15120
C         -0.52010       -2.45330        4.38470
S         -1.94700       -3.37330        4.87800
C         -2.22410       -2.86350        6.59860
C          0.02140       -2.76820        3.14060
C          1.12490       -2.09360        2.66800
C          1.72440        0.27530        0.80740
S          0.02260        0.29310        1.10560
C          5.36510       -0.26590        1.25900
C          6.38290        0.71200        1.18660
C          7.66080        0.47330        1.79880
N          8.34400        1.59660        1.74060
O          7.55340        2.47750        1.11040
N          6.36660        1.96290        0.78050
C          7.99800       -0.78580        2.35770
C          7.06660       -1.80920        2.16880
O          7.35260       -3.11980        2.18930
C          8.66670       -3.62040        1.97230
C          9.04270       -4.63050        3.04620
C          5.70370       -1.50510        1.78000
O          4.70420       -2.40450        1.81380
C          4.69830       -3.51230        2.71200
C          4.86230       -4.82810        1.96300
C          9.22260       -0.85730        3.10040
C          9.36480       -1.48430        4.29860
C          8.24760       -2.03230        5.10520
O          7.11840       -2.29050        4.73390
C          8.77860       -2.15910        6.47290
C          8.07170       -2.53180        7.61350
C          8.81240       -2.49270        8.76870
C         10.16340       -2.11940        8.79470
C         10.88150       -1.77450        7.67530
C         10.14350       -1.80150        6.48900
C         10.55440       -1.48690        5.12870
C         11.83560       -1.33820        4.66950
C         12.15490       -1.22500        3.29970
N         12.46560       -1.18780        2.19500
C         12.98230       -1.36850        5.48820
N         13.94780       -1.37790        6.10910
C         10.25190       -2.24860       10.29440
C         10.22630       -0.93950       11.12310
C          9.48360        0.07750       10.29220
C          8.20610       -0.27750       10.26210
C          8.06180       -1.54060       11.07600
C          9.13770       -1.29940       12.14640
C          8.74820       -2.66750       10.26430
H         -6.53970        3.91910       -4.25440
H         -6.39520       -1.50220       -7.37070
H        -10.29070        1.70950       -7.77270
H        -11.02760       -1.26670       -9.30530
H        -10.43600        0.52840      -11.18310
H        -11.14120       -1.71000      -12.36440
H         -9.11860       -3.42130      -12.16900
H         -7.16780       -2.23640      -10.86850
H         -8.06860       -0.11790      -12.17460
H         -7.85410        0.33010      -10.46660
H         -9.04380       -2.94210       -9.11150
H         -7.25950       -1.59260       -4.17430
H         -9.66200       -1.40970       -4.70730
H        -13.28720        2.06000       -3.67730
H        -11.69130        2.83250       -3.65890
H        -12.24880        1.87660       -2.24530
H         -9.91060        2.11630       -2.29440
H         -7.54150        1.95460       -1.80320
H         -6.70340       -1.40240       -0.79690
H         -5.82550       -3.58310       -0.13360
H         -4.17690       -4.85590        1.02120
H         -5.41010       -5.84310        0.16750
H         -3.84300       -6.55160        0.60800
H         -3.02660       -3.43520       -3.36990
H         -3.91420       -1.21180       -4.01380
H         -2.65300        2.78450        1.14990
H         -1.86180        2.45830        3.41770
H         -0.85400        1.30500        5.12660
H         -1.32730        2.95480        5.65780
H         -0.10370        2.03970        6.56390
H          1.91480        4.15130        2.33940
H          1.09100        4.53150        0.06200
H         -1.27800        3.52400       -3.54930
H         -0.68900        5.32670       -5.10250
H          0.55330        9.72210       -3.12610
H          1.63070        9.78410       -4.53570
H          1.92520        8.56990       -3.26990
H         -0.04530        7.94470       -1.78710
H         -0.66880        6.16790       -0.25330
H          1.39030        1.90280       -5.19940
H          2.40640        3.95010       -5.99620
H          3.40590        7.44390       -6.55210
H          2.01490        6.34970       -6.39530
H          3.63370        5.70620       -6.84000
H          3.05200        5.21880       -1.96870
H          2.00350        3.15360       -1.16410
H          0.84690       -1.32050       -2.43660
H         -0.43570       -2.89640       -3.81470
H         -3.78380       -2.36820       -7.67260
H         -3.93160       -1.00800       -6.52910
H         -2.61220       -1.03620       -7.74780
H         -2.16710        0.39020       -5.93730
H         -0.87420        1.93650       -4.60640
H          4.21360        1.88950        2.81350
H          6.18770        2.43350        4.12880
H          9.49560        2.12430        5.73630
H          8.04150        3.08280        5.39560
H          8.56010        1.79660        4.25910
H          5.61680       -1.10730        6.44900
H          3.67530       -1.70150        5.06970
H          1.61330        0.01370        5.26550
H         -0.32920       -1.19170        6.11980
H         -1.33160       -3.05280        7.18780
H         -2.51030       -1.81630        6.63970
H         -3.04150       -3.48060        6.95840
H         -0.43120       -3.55240        2.55350
H          1.55310       -2.35650        1.71270
H          9.40190       -2.81320        1.91910
H          8.63590       -4.12450        0.99650
H         10.01020       -5.06340        2.80820
H          9.09770       -4.16000        4.02370
H          8.29730       -5.42020        3.08800
H          3.70630       -3.48400        3.17890
H          5.45790       -3.39060        3.48480
H          4.74290       -5.65590        2.65620
H          4.10720       -4.90640        1.18470
H          5.84510       -4.88710        1.50570
H         10.01380       -0.20770        2.74350
H          7.03210       -2.81450        7.55820
H         11.91930       -1.48530        7.70320
H         10.97580       -2.96720       10.67340
H         11.19440       -0.63160       11.50890
H          9.95670        0.89190        9.77610
H          7.40570        0.17920        9.71050
H          7.05850       -1.77900       11.41970
H          9.37100       -2.18590       12.73480
H          8.89350       -0.47110       12.80980
H          8.48720       -3.66060       10.62490
