238

C          0.01690       -6.00450       -6.17910
C          0.89710       -6.41270       -7.15590
C          2.33480       -6.09940       -7.16210
O          2.94720       -5.43100       -6.34910
C          2.90470       -6.86080       -8.29450
C          4.22290       -6.84690       -8.73800
C          4.44010       -7.59290       -9.87300
C          3.42500       -8.31910      -10.50690
C          2.12260       -8.35750      -10.06830
C          1.87960       -7.59010       -8.92840
C          0.62270       -7.31400       -8.23920
C         -0.62750       -7.69880       -8.66050
C         -1.82830       -7.21770       -8.10420
N         -2.85000       -6.82160       -7.75660
C         -0.88370       -8.54320       -9.75670
N         -1.18070       -9.22040      -10.63630
C          4.33980       -8.79480      -11.60660
C          4.22010       -8.09430      -12.98260
C          3.69500       -6.70520      -12.71520
C          4.66160       -6.01750      -12.12110
C          5.85380       -6.92980      -11.97220
C          5.70210       -7.78050      -13.24300
C          5.47250       -7.98350      -10.90210
C          0.15010       -4.88690       -5.34970
C          0.85610       -3.67310       -5.50360
N          1.43380       -3.22560       -6.65890
C          2.52580       -2.33860       -6.64540
C          2.60500       -1.35320       -7.62610
C          3.74780       -0.59520       -7.77200
C          4.82970       -0.81420       -6.93020
S          6.39170       -0.02110       -7.14860
C          6.29290        0.64650       -8.83530
C          4.71420       -1.72570       -5.88330
C          3.57270       -2.48370       -5.73790
C          1.00530       -3.68700       -7.91490
C         -0.34910       -3.84800       -8.19720
C         -0.76360       -4.37220       -9.40450
C          0.17500       -4.75220      -10.35860
S         -0.22050       -5.53010      -11.88650
C         -2.01980       -5.74460      -11.82780
C          1.52780       -4.52790      -10.10900
C          1.93910       -3.99990       -8.90590
C          0.72790       -2.87820       -4.33870
S          1.30020       -1.31460       -3.84850
C          0.33700       -1.38140       -2.37160
C         -0.39170       -2.56300       -2.28460
N         -1.22740       -2.97690       -1.24270
C         -0.96230       -4.26260       -0.74250
C          0.35820       -4.63550       -0.50550
C          0.66760       -5.90040       -0.04530
C         -0.34630       -6.81770        0.19120
S         -0.08280       -8.45960        0.78300
C          1.72440       -8.63190        0.80680
C         -1.67030       -6.44800       -0.04200
C         -1.97750       -5.19020       -0.50800
C         -2.45450       -2.35020       -1.01410
C         -3.05580       -1.57000       -1.99840
C         -4.24010       -0.90300       -1.74640
C         -4.84710       -1.00740       -0.50430
S         -6.36900       -0.22380       -0.07740
C         -6.58750        1.01700       -1.38200
C         -4.25330       -1.79520        0.48160
C         -3.07460       -2.45690        0.23420
C         -0.13160       -3.40430       -3.38600
S         -0.77850       -4.93110       -3.84470
C          0.39100       -0.31420       -1.42870
C          1.43160        0.57130       -1.18180
N          2.73000        0.53540       -1.71920
C          3.69140        0.46730       -0.68390
C          4.65860        1.44660       -0.47990
C          5.45630        1.41990        0.64860
C          5.28780        0.42280        1.60000
S          6.18770        0.35110        3.11900
C          6.76740        2.05670        3.34820
C          4.35510       -0.58700        1.37580
C          3.56840       -0.56530        0.24660
C          3.02190        1.07900       -2.96280
C          2.03370        1.69700       -3.73060
C          2.34230        2.23860       -4.96060
C          3.64610        2.19850       -5.43460
S          3.99490        2.94580       -7.00410
C          5.64810        3.65280       -6.71250
C          4.62960        1.56580       -4.68770
C          4.31630        0.99440       -3.47450
C          1.11980        1.44880       -0.11870
S          1.99710        2.70600        0.68750
C          0.66160        2.93670        1.78780
C         -0.37890        2.04770        1.57820
N         -1.44430        1.87400        2.46480
C         -2.76390        2.10950        2.05140
C         -3.06080        3.10080        1.12220
C         -4.37500        3.44100        0.86290
C         -5.40540        2.79410        1.52940
S         -7.10330        3.26460        1.35650
C         -6.97300        5.05580        1.07060
C         -5.11450        1.73120        2.38030
C         -3.80620        1.38870        2.63520
C         -1.14770        1.84540        3.83620
C          0.01650        1.21810        4.28370
C          0.37960        1.28090        5.61020
C         -0.40840        1.96980        6.52830
S          0.21270        2.09600        8.17840
C         -1.20820        2.70370        9.12830
C         -1.59620        2.54660        6.10340
C         -1.96070        2.48010        4.77350
C         -0.12170        1.23190        0.45560
S         -0.96580       -0.04230       -0.33640
C          0.65340        3.89040        2.85830
C          1.51750        4.03950        3.89670
C          0.98150        4.79900        4.97070
C          1.49490        4.97090        6.27420
C          2.78590        4.46980        6.68890
C          3.64820        5.01540        7.60270
C          4.78340        4.22910        7.85670
C          4.78950        3.06190        7.14700
S          6.05900        1.86570        7.15560
C          5.14440        0.36480        6.64940
C          4.17310       -0.09840        7.71620
S          3.39830        2.94220        6.11630
C          0.64440        5.58410        7.19490
C         -0.67730        5.99620        6.88470
C         -1.16730        5.87690        5.57060
C         -2.51020        6.21520        5.15720
C         -2.87550        6.81610        3.98240
C         -4.26170        6.85540        3.77570
C         -4.97180        6.26070        4.78260
S         -6.70910        6.16830        4.84210
C         -6.98120        4.74460        5.95120
C         -6.57980        3.43810        5.29730
S         -3.91960        5.68520        6.04230
C         -0.30620        5.29290        4.65400
S         -0.79380        4.85640        3.04680
C         -1.38090        6.45000        8.01650
C         -0.65170        6.39870        9.17760
S          0.98090        5.81890        8.88760
C         -1.06430        6.71510       10.49500
C         -2.34610        6.83440       10.92000
S         -3.79080        6.55940        9.97080
C         -4.81110        6.81570       11.37270
C         -6.17160        6.69330       11.24060
C         -6.69150        6.31310        9.98660
N         -7.10260        5.98560        8.96650
C         -7.13660        6.89120       12.24240
N         -7.97360        7.03450       13.01560
N         -4.08150        7.13800       12.46880
C         -4.63020        7.38440       13.79020
C         -4.91180        6.08380       14.53280
C         -2.69940        7.15720       12.30020
O         -1.92720        7.41260       13.19440
H         -0.85870       -6.61540       -5.99080
H          4.97630       -6.27030       -8.22340
H          1.35060       -8.92070      -10.56540
H          4.46450       -9.87190      -11.69810
H          3.68870       -8.66870      -13.73650
H          2.68730       -6.39650      -12.92690
H          4.62970       -5.01270      -11.74020
H          6.81240       -6.44430      -11.80640
H          5.85770       -7.20650      -14.15530
H          6.33780       -8.66490      -13.25180
H          6.33740       -8.53070      -10.53180
H          1.77510       -1.20230       -8.30060
H          3.78320        0.15360       -8.54560
H          6.01120       -0.14690       -9.52090
H          7.29110        1.00370       -9.07000
H          5.58570        1.47020       -8.87370
H          5.54820       -1.86600       -5.21300
H          3.51590       -3.24460       -4.97640
H         -1.08920       -3.57330       -7.46070
H         -1.82000       -4.49080       -9.58180
H         -2.51030       -4.77550      -11.82680
H         -2.29990       -6.33220      -10.95850
H         -2.27560       -6.28910      -12.73140
H          2.25200       -4.80340      -10.85950
H          2.99020       -3.84620       -8.71580
H          1.15300       -3.92620       -0.68740
H          1.70170       -6.15230        0.12610
H          2.15610       -7.95300        1.53650
H          1.91530       -9.65870        1.10290
H          2.12540       -8.45360       -0.18660
H         -2.45360       -7.16920        0.13320
H         -3.00390       -4.92530       -0.70990
H         -2.59330       -1.48500       -2.97100
H         -4.68130       -0.31310       -2.53370
H         -7.42080        1.63270       -1.05830
H         -6.82630        0.53660       -2.32630
H         -5.68670        1.61910       -1.45810
H         -4.72980       -1.87040        1.44660
H         -2.60960       -3.04510        1.01050
H          4.76350        2.25430       -1.18840
H          6.18810        2.19950        0.78830
H          7.59390        2.27030        2.67670
H          5.94120        2.74250        3.18690
H          7.10600        2.11740        4.37860
H          4.24420       -1.37340        2.10650
H          2.82510       -1.33300        0.08910
H          1.02480        1.76510       -3.35130
H          1.57670        2.71690       -5.55210
H          6.40360        2.87280       -6.71830
H          5.82760        4.34880       -7.52590
H          5.64290        4.17950       -5.76350
H          5.64300        1.50390       -5.04820
H          5.08130        0.47870       -2.91480
H         -2.25910        3.63520        0.63350
H         -4.58440        4.23310        0.16070
H         -6.68740        5.26090        0.04290
H         -7.96050        5.46180        1.26510
H         -6.25710        5.47430        1.77080
H         -5.92410        1.19340        2.84750
H         -3.57570        0.58660        3.31980
H          0.64660        0.69490        3.58000
H          1.28770        0.80550        5.94660
H         -1.47200        3.71100        8.81800
H         -2.04650        2.02480        9.00300
H         -0.88560        2.71140       10.16490
H         -2.23890        3.07770        6.78750
H         -2.86970        2.96630        4.45290
H          2.46810        3.54060        3.91630
H          3.48880        5.97360        8.06350
H          5.56430        4.49900        8.54310
H          4.64470        0.58860        5.70700
H          5.92280       -0.37560        6.46890
H          3.40740        0.65240        7.90360
H          3.68380       -1.01390        7.39020
H          4.69750       -0.29670        8.64820
H         -2.16360        7.24100        3.29770
H         -4.73190        7.29660        2.91610
H         -6.43820        4.93960        6.87590
H         -8.04940        4.77180        6.16090
H         -6.78910        2.61260        5.97410
H         -5.51680        3.42700        5.06180
H         -7.13740        3.28430        4.37590
H         -2.38350        6.83160        7.95830
H         -0.29810        6.83830       11.25000
H         -3.86780        7.95740       14.32510
H         -5.53660        7.98490       13.69650
H         -5.65820        5.48790       14.01270
H         -5.29010        6.31310       15.52430
H         -3.99750        5.50310       14.63260
