216

C          5.38560       -5.85240       -0.54030
C          5.99760       -6.72190        0.32810
C          5.75830       -6.83440        1.77080
O          4.85160       -6.33650        2.41790
C          6.86750       -7.65060        2.30420
C          7.09770       -8.00630        3.63050
C          8.23000       -8.76130        3.82360
C          9.07630       -9.14010        2.77460
C          8.86020       -8.80080        1.45990
C          7.71430       -8.03230        1.24330
C          7.16590       -7.50340       -0.00250
C          7.69000       -7.71600       -1.25430
C          7.09810       -7.32610       -2.47050
N          6.69240       -7.07340       -3.51680
C          8.90770       -8.37230       -1.51950
N          9.89940       -8.85730       -1.83870
C         10.00930       -9.89070        3.69150
C          9.91130      -11.43600        3.71270
C          8.49840      -11.78170        3.31240
C          7.69660      -11.42310        4.30610
C          8.55310      -10.82830        5.39660
C          9.82800      -11.67040        5.22950
C          9.06530       -9.46830        4.86140
C          4.35360       -4.93230       -0.34100
C          4.06730       -3.88310       -1.24500
N          4.85880       -3.50870       -2.30150
C          4.27620       -2.86550       -3.40600
C          4.89470       -1.75820       -3.97750
C          4.32140       -1.10990       -5.05320
C          3.11980       -1.56600       -5.57830
S          2.28150       -0.79700       -6.92870
C          3.48520        0.40130       -7.57020
C          2.50900       -2.68820       -5.02310
C          3.07930       -3.33310       -3.94900
C          6.25610       -3.68220       -2.28410
C          6.92050       -4.09610       -3.43400
C          8.27360       -4.37480       -3.39950
C          8.97770       -4.25730       -2.20930
S         10.67510       -4.69930       -2.02530
C         11.00440       -5.73060       -3.48140
C          8.32970       -3.76340       -1.07600
C          6.98750       -3.46600       -1.11400
C          2.88980       -3.21120       -0.87350
S          2.01690       -1.87790       -1.54710
C          0.87220       -1.94280       -0.21720
C          1.10290       -3.01210        0.64550
N          0.27490       -3.43460        1.66230
C          0.84350       -4.15160        2.73260
C          1.99910       -3.68760        3.35200
C          2.58600       -4.41360        4.36860
C          2.02230       -5.61450        4.77560
S          2.73490       -6.61630        6.03990
C          4.49670       -6.19920        5.88300
C          0.84150       -6.05960        4.18760
C          0.25670       -5.33670        3.17250
C         -1.11050       -3.23860        1.65370
C         -1.77600       -3.04380        2.86420
C         -3.13070       -2.79630        2.89150
C         -3.84880       -2.72950        1.70500
S         -5.58380       -2.37590        1.68650
C         -5.78950       -1.32250        3.15120
C         -3.20260       -2.96370        0.49650
C         -1.84760       -3.22130        0.47050
C          2.28910       -3.70580        0.27930
S          3.21090       -4.98200        0.99880
C         -0.12880       -0.91690       -0.19220
C         -0.54870       -0.29780       -1.39260
N         -0.11320       -0.50440       -2.63990
N         -0.75130        0.37610       -3.35630
C         -0.55090        0.47280       -4.77390
C         -0.97480       -0.82080       -5.45660
N         -1.57940        1.15420       -2.71950
C         -1.50310        0.75830       -1.44090
C         -2.12560        1.25900       -0.26920
C         -1.66710        0.65240        0.89780
C         -0.69810       -0.35560        0.94180
F         -0.25660       -0.71530        2.16510
F         -2.14650        1.06190        2.09440
C         -2.99600        2.39700       -0.27000
C         -3.70820        2.95540       -1.33020
N         -4.00740        2.35170       -2.53550
C         -4.00710        3.15470       -3.68460
C         -2.99530        4.09220       -3.87100
C         -2.99340        4.91980       -4.97680
C         -4.00790        4.81950       -5.91890
S         -4.10910        5.81680       -7.37200
C         -2.89870        7.13710       -7.07260
C         -5.01560        3.87210       -5.74320
C         -5.01980        3.05110       -4.63880
C         -4.38470        1.00930       -2.60370
C         -4.16150        0.27180       -3.76820
C         -4.54700       -1.04740       -3.84480
C         -5.17090       -1.66650       -2.76420
S         -5.59710       -3.37120       -2.95140
C         -6.82100       -3.65220       -1.64060
C         -5.40610       -0.93670       -1.60730
C         -5.01430        0.38450       -1.52990
C         -4.19260        4.24130       -0.98860
S         -5.09590        5.43290       -1.84920
C         -5.05640        6.51090       -0.44290
C         -4.46810        5.88880        0.68020
N         -4.50030        6.33900        1.96750
C         -3.56670        5.84210        2.90030
C         -2.21240        5.78950        2.58650
C         -1.31350        5.24070        3.47920
C         -1.76020        4.74020        4.69570
S         -0.68900        3.97360        5.86950
C          0.62310        3.29330        4.81180
C         -3.10630        4.85200        5.03590
C         -4.00470        5.39780        4.14620
C         -5.45650        7.25200        2.43300
C         -5.07030        8.26520        3.31320
C         -5.98150        9.21190        3.72420
C         -7.30190        9.16590        3.27820
S         -8.34970       10.48230        3.79130
C         -9.94530       10.11840        3.00940
C         -7.70680        8.11520        2.46070
C         -6.79110        7.17200        2.04220
C         -3.93460        4.62830        0.31840
S         -3.08180        3.39510        1.17690
C         -5.60060        7.78590       -0.60650
C         -5.28340        8.89820        0.14660
C         -3.99400        9.08490        0.83470
O         -3.06130        8.30260        0.88160
C         -4.02020       10.46710        1.35250
C         -3.06960       11.14570        2.08450
C         -3.35350       12.44150        2.49510
C         -4.55920       13.05400        2.17380
C         -4.86230       14.44690        2.62730
C         -5.51150       12.36370        1.42020
C         -5.24260       11.07270        1.01240
C         -6.04930       10.10430        0.27260
C         -7.36750       10.26100       -0.08210
C         -8.16680        9.23000       -0.61170
N         -8.89770        8.42730       -0.98940
C         -8.11230       11.43730        0.11970
N         -8.78870       12.35600        0.25800
H          5.79760       -5.83070       -1.54080
H          6.42510       -7.70220        4.41580
H          9.51910       -9.09750        0.66090
H         11.03910       -9.53970        3.71480
H         10.70250      -11.94570        3.16950
H          8.22960      -12.18560        2.35390
H          6.62380      -11.46690        4.34390
H          8.10790      -10.78540        6.38730
H         10.68320      -11.27630        5.77700
H          9.67760      -12.71780        5.48640
H          9.48000       -8.84170        5.64900
H          5.82620       -1.39710       -3.56740
H          4.81850       -0.24610       -5.46410
H          3.65000        1.19550       -6.84770
H          3.03750        0.81160       -8.47000
H          4.41250       -0.10650       -7.81770
H          1.58920       -3.05350       -5.45230
H          2.61000       -4.21080       -3.53150
H          6.36830       -4.23590       -4.35020
H          8.75660       -4.71490       -4.30040
H         10.23930       -6.49640       -3.56640
H         11.96800       -6.19510       -3.29770
H         11.05480       -5.11670       -4.37610
H          8.89490       -3.62690       -0.16690
H          6.48850       -3.09750       -0.23040
H          2.43120       -2.74950        3.03670
H          3.47940       -4.03410        4.83680
H          5.03950       -7.00860        6.36250
H          4.73660       -6.13920        4.82470
H          4.71510       -5.26470        6.39260
H          0.40330       -6.98730        4.52180
H         -0.64680       -5.69230        2.69970
H         -1.21670       -3.06140        3.78670
H         -3.61650       -2.64340        3.84190
H         -6.73840       -0.81140        3.02110
H         -5.82140       -1.92810        4.05240
H         -4.97710       -0.60300        3.18900
H         -3.75920       -2.93660       -0.42660
H         -1.36100       -3.40500       -0.47540
H         -1.13500        1.32730       -5.11920
H          0.51210        0.64910       -4.96050
H         -2.03870       -0.99500       -5.32540
H         -0.74670       -0.76780       -6.51660
H         -0.42610       -1.65070       -5.02080
H         -2.20070        4.16220       -3.14330
H         -2.19300        5.63270       -5.09340
H         -3.09900        7.60460       -6.11330
H         -1.88820        6.74090       -7.11680
H         -3.04530        7.85570       -7.87290
H         -5.80200        3.80170       -6.47870
H         -5.81510        2.33470       -4.49940
H         -3.68690        0.74760       -4.61210
H         -4.37670       -1.61810       -4.74550
H         -7.24300       -4.63210       -1.84120
H         -6.34700       -3.64840       -0.66300
H         -7.59510       -2.89370       -1.70200
H         -5.89550       -1.38450       -0.75850
H         -5.21480        0.93810       -0.62500
H         -1.87540        6.20260        1.64860
H         -0.26730        5.21000        3.22050
H          0.16850        2.80190        3.95710
H          1.15040        2.56680        5.42190
H          1.30850        4.07640        4.50060
H         -3.43890        4.48570        5.99460
H         -5.05260        5.46270        4.39940
H         -4.04640        8.31360        3.65110
H         -5.67710       10.01360        4.37910
H         -9.83840       10.09350        1.92900
H        -10.34270        9.18300        3.39210
H        -10.59670       10.94020        3.28980
H         -8.72900        8.02570        2.13140
H         -7.11750        6.37070        1.39640
H         -6.29790        7.89840       -1.42860
H         -2.13510       10.66860        2.33850
H         -2.62560       12.98420        3.08070
H         -5.05670       15.08920        1.76950
H         -4.03700       14.86460        3.19780
H         -5.75660       14.45000        3.24900
H         -6.44120       12.85080        1.17190
