230

C         -6.75250        2.89930       -4.64820
C         -8.01670        2.39760       -4.87500
C         -8.89670        1.83930       -3.83770
O         -8.66510        1.75970       -2.64500
C        -10.16600        1.51990       -4.52670
C        -11.29550        0.92410       -3.97620
C        -12.30190        0.68470       -4.88230
C        -12.20040        1.02710       -6.23580
C        -11.09850        1.63480       -6.78900
C        -10.06130        1.87590       -5.88640
C         -8.73150        2.43420       -6.11660
C         -8.18170        2.75370       -7.33810
C         -8.86530        2.68460       -8.56430
N         -9.35170        2.61950       -9.60430
C         -6.83010        3.09640       -7.53100
N         -5.73230        3.33470       -7.77960
C        -13.57100        0.48780       -6.55940
C        -14.72460        1.50320       -6.74690
C        -14.35720        2.72250       -5.93820
C        -14.45310        2.40120       -4.65500
C        -14.88840        0.95910       -4.57280
C        -15.77890        0.87320       -5.82270
C        -13.68570        0.10760       -5.04940
C         -5.84320        2.48040       -3.67890
C         -5.72400        1.29520       -2.92340
N         -6.50430        0.17110       -2.97370
C         -6.57500       -0.60020       -1.78920
C         -6.92070        0.01500       -0.58740
C         -6.94540       -0.71870        0.57630
C         -6.62390       -2.07590        0.56220
S         -6.67380       -2.91050        2.11160
C         -5.83720       -4.48760        1.77940
C         -6.30900       -2.69450       -0.64160
C         -6.28480       -1.95890       -1.81070
C         -7.17810       -0.28140       -4.10490
C         -8.36130       -1.01500       -3.95730
C         -9.06890       -1.42810       -5.05990
C         -8.62370       -1.12350       -6.34730
S         -9.66370       -1.63450       -7.67160
C         -8.81820       -1.04870       -9.16620
C         -7.42160       -0.44620       -6.50300
C         -6.70930       -0.03010       -5.39370
C         -4.55610        1.34230       -2.12120
S         -3.83170        0.24810       -0.99940
C         -2.41890        1.28530       -0.83970
C         -2.53860        2.45320       -1.58390
N         -1.65810        3.51770       -1.67440
C         -0.86840        3.96030       -0.61960
C          0.31100        4.66010       -0.87370
C          1.11250        5.10380        0.15760
C          0.75690        4.85220        1.47450
S          1.72830        5.36080        2.86080
C          2.92020        6.53180        2.15040
C         -0.42320        4.16220        1.73880
C         -1.22950        3.73140        0.70950
C         -1.59020        4.14510       -2.93410
C         -1.51910        3.36390       -4.08600
C         -1.57980        3.94430       -5.33710
C         -1.70360        5.32250       -5.45500
S         -1.85320        6.14700       -7.00760
C         -2.55300        4.86500       -8.08850
C         -1.70830        6.11160       -4.30620
C         -1.65800        5.53190       -3.05750
C         -3.76200        2.46310       -2.30160
S         -4.46700        3.56420       -3.42570
C         -1.32650        0.81620       -0.02440
C         -1.53360        0.00550        1.08400
F         -2.78460       -0.34480        1.44100
C         -0.50030       -0.50590        1.86830
F         -0.84780       -1.41130        2.80130
C          0.83180       -0.17650        1.65210
C          1.07970        0.61250        0.48910
N          2.35040        0.89520        0.18580
C          2.63920        1.52540       -0.92650
C          4.07580        1.89570       -1.11690
C          4.32070        3.29110       -0.53810
C          1.60350        1.85050       -1.84180
N          0.34760        1.62960       -1.53610
C          0.03730        1.05840       -0.36120
C          1.87120        2.39940       -3.21080
C          2.18230        1.26020       -4.18470
C          1.93050       -0.68690        2.41000
C          1.93270       -1.20360        3.70630
N          0.94200       -1.03590        4.64730
C          0.69860       -2.07380        5.56000
C          0.47840       -1.80760        6.90760
C          0.25990       -2.84690        7.79060
C          0.26250       -4.16790        7.36170
C          0.04770       -5.29940        8.31890
C          0.47790       -4.42370        6.01170
C          0.68910       -3.39510        5.11760
C          0.30240        0.20420        4.80370
C          0.99700        1.39190        4.59730
C          0.37500        2.60590        4.81330
C         -0.95060        2.67110        5.22230
C         -1.62360        3.98780        5.46730
C         -1.64330        1.47890        5.40790
C         -1.03040        0.25960        5.20700
C          3.15630       -1.86020        3.97930
S          3.71730       -2.79330        5.31440
C          5.26650       -3.05750        4.50430
C          5.29150       -2.48600        3.21480
N          6.24990       -2.69580        2.26020
C          7.00590       -3.87610        2.22010
C          6.42040       -5.11180        2.49560
C          7.18410       -6.25930        2.49480
C          8.54930       -6.21790        2.21900
C          9.37290       -7.46600        2.27440
C          9.11690       -4.99110        1.90460
C          8.36190       -3.83280        1.90130
C          6.51030       -1.70700        1.29350
C          6.57240       -0.36440        1.65000
C          6.90780        0.58420        0.70350
C          7.18320        0.22380       -0.61010
C          7.59930        1.24120       -1.62880
C          7.09060       -1.11880       -0.96120
C          6.75700       -2.07690       -0.02610
C          4.09040       -1.78230        2.95590
S          3.49560       -0.83290        1.62430
C          6.20000       -3.83520        5.19680
C          7.56220       -3.85580        4.99580
C          8.33500       -2.72720        4.45340
O          7.90690       -1.65200        4.07690
C          9.75610       -3.11580        4.58490
C         10.86850       -2.36860        4.21240
C         12.06930       -2.99880        4.44100
C         12.15770       -4.27520        5.00860
C         11.06590       -5.02140        5.38640
C          9.83720       -4.40070        5.15510
C          8.47940       -4.88580        5.39390
C          8.13210       -6.16230        5.76640
C          6.80540       -6.62950        5.84060
N          5.75490       -7.09230        5.89210
C          9.05150       -7.19060        6.04010
N          9.74980       -8.07820        6.25530
C         13.66550       -4.28150        4.95890
C         14.43440       -4.01590        6.27650
C         13.52350       -3.18490        7.14540
C         13.44030       -1.97640        6.60540
C         14.29390       -1.96860        5.36140
C         15.41120       -2.93170        5.79360
C         13.56730       -2.85880        4.32330
H         -6.39880        3.70000       -5.28720
H        -11.33300        0.66800       -2.92870
H        -11.03570        1.90070       -7.83140
H        -13.60040       -0.31810       -7.29000
H        -15.00710        1.68040       -7.78130
H        -14.01880        3.64700       -6.36840
H        -14.21040        3.00340       -3.79900
H        -15.32080        0.64140       -3.62740
H        -16.68150        1.47690       -5.73940
H        -16.04250       -0.14710       -6.09820
H        -13.79710       -0.94540       -4.79750
H         -7.18180        1.06160       -0.59120
H         -7.20940       -0.25270        1.51270
H         -4.86630       -4.29460        1.33330
H         -5.71130       -4.96170        2.74790
H         -6.45130       -5.11650        1.14100
H         -6.07500       -3.74590       -0.68260
H         -6.03100       -2.43750       -2.74540
H         -8.73220       -1.22560       -2.96630
H         -9.99380       -1.97120       -4.94280
H         -9.43690       -1.37700       -9.99540
H         -7.83460       -1.50300       -9.23980
H         -8.75850        0.03550       -9.16520
H         -7.03060       -0.22100       -7.48270
H         -5.77460        0.49180       -5.53570
H          0.61070        4.85080       -1.89260
H          2.01590        5.64140       -0.08200
H          3.63610        6.00880        1.52240
H          3.43290        6.97640        2.99780
H          2.39160        7.29950        1.59300
H         -0.70750        3.97040        2.76010
H         -2.15440        3.22590        0.93920
H         -1.43850        2.29110       -3.98870
H         -1.53990        3.31630       -6.21250
H         -3.40160        4.39460       -7.60130
H         -2.88530        5.38610       -8.98100
H         -1.79280        4.13660       -8.35530
H         -1.78550        7.18310       -4.40730
H         -1.70360        6.14550       -2.17030
H          4.68320        1.17080       -0.57460
H          4.35050        1.87640       -2.17060
H          5.36750        3.56440       -0.64310
H          3.71340        4.03280       -1.05340
H          4.05890        3.30050        0.51730
H          0.97760        2.92250       -3.55280
H          2.70380        3.10270       -3.18380
H          3.05560        0.69710       -3.86200
H          2.37160        1.65940       -5.17810
H          1.33760        0.57790       -4.23910
H          0.48850       -0.78660        7.25950
H          0.09540       -2.62510        8.83520
H          0.94250       -5.91860        8.37420
H         -0.17980       -4.93010        9.31550
H         -0.77320       -5.93220        7.98450
H          0.47670       -5.44440        5.65820
H          0.83810       -3.60380        4.06850
H          2.03150        1.36580        4.28860
H          0.93810        3.51640        4.67070
H         -2.51550        4.08340        4.84860
H         -1.93550        4.06440        6.50840
H         -0.95200        4.81390        5.24600
H         -2.67860        1.50750        5.71550
H         -1.57770       -0.65900        5.35380
H          5.36480       -5.16890        2.71530
H          6.71550       -7.20630        2.71910
H          9.53240       -7.76640        3.31070
H         10.34470       -7.31220        1.81240
H          8.86500       -8.28520        1.76940
H         10.17110       -4.93290        1.67460
H          8.82170       -2.88610        1.66090
H          6.40810       -0.08280        2.67740
H          6.97520        1.62150        0.99790
H          7.45110        2.25130       -1.25650
H          8.65540        1.11780       -1.86890
H          7.03440        1.11770       -2.55100
H          7.28950       -1.41690       -1.98060
H          6.69690       -3.11760       -0.30930
H          5.78950       -4.45190        5.98790
H         10.75810       -1.38690        3.77820
H         11.14760       -6.00000        5.82990
H         14.12040       -5.07390        4.36730
H         14.85940       -4.90350        6.73770
H         13.00280       -3.56650        8.00410
H         12.83580       -1.14690        6.92250
H         14.59180       -0.99150        4.98950
H         16.04690       -3.25610        4.97070
H         16.02650       -2.53000        6.59740
H         13.95800       -2.72380        3.31610
