
  xtb     02072210073D
 energy: -408.026001584538 gnorm: 0.000569511195 xtb: 6.4.1 (unknown)
246273  0     0  0            999 V2000
   -7.1511    8.5006    7.1846 C   0  0  0  0  0  0  0  0  0  0  0  0
   -8.4468    8.6633    7.5879 C   0  0  0  0  0  0  0  0  0  0  0  0
   -9.5525    7.7093    7.3897 C   0  0  0  0  0  0  0  0  0  0  0  0
   -9.5180    6.6312    6.8259 O   0  0  0  0  0  0  0  0  0  0  0  0
  -10.7395    8.3207    8.0088 C   0  0  0  0  0  0  0  0  0  0  0  0
  -12.0202    7.7767    8.0713 C   0  0  0  0  0  0  0  0  0  0  0  0
  -12.9342    8.5721    8.7185 C   0  0  0  0  0  0  0  0  0  0  0  0
  -12.5985    9.8200    9.2611 C   0  0  0  0  0  0  0  0  0  0  0  0
  -11.3401   10.3695    9.2021 C   0  0  0  0  0  0  0  0  0  0  0  0
  -10.3922    9.5748    8.5501 C   0  0  0  0  0  0  0  0  0  0  0  0
   -8.9743    9.8186    8.2934 C   0  0  0  0  0  0  0  0  0  0  0  0
   -8.2898   10.9501    8.6568 C   0  0  0  0  0  0  0  0  0  0  0  0
   -8.8580   12.0414    9.3476 C   0  0  0  0  0  0  0  0  0  0  0  0
   -9.2419   12.9670    9.9085 N   0  0  0  0  0  0  0  0  0  0  0  0
   -6.9285   11.2178    8.4007 C   0  0  0  0  0  0  0  0  0  0  0  0
   -5.8344   11.5274    8.2341 N   0  0  0  0  0  0  0  0  0  0  0  0
  -13.9967   10.0633    9.7709 C   0  0  0  0  0  0  0  0  0  0  0  0
  -14.2572    9.8613   11.2841 C   0  0  0  0  0  0  0  0  0  0  0  0
  -13.2360    8.8608   11.7658 C   0  0  0  0  0  0  0  0  0  0  0  0
  -13.5531    7.6795   11.2530 C   0  0  0  0  0  0  0  0  0  0  0  0
  -14.7949    7.8599   10.4152 C   0  0  0  0  0  0  0  0  0  0  0  0
  -15.5035    8.9643   11.2155 C   0  0  0  0  0  0  0  0  0  0  0  0
  -14.3704    8.6729    9.1669 C   0  0  0  0  0  0  0  0  0  0  0  0
   -6.5311    7.4324    6.5064 C   0  0  0  0  0  0  0  0  0  0  0  0
   -5.1931    7.4624    6.1565 C   0  0  0  0  0  0  0  0  0  0  0  0
   -4.7470    6.3189    5.4784 C   0  0  0  0  0  0  0  0  0  0  0  0
   -3.4426    6.0312    4.9963 C   0  0  0  0  0  0  0  0  0  0  0  0
   -2.3916    7.0154    5.0186 C   0  0  0  0  0  0  0  0  0  0  0  0
   -2.5133    8.3701    4.8391 C   0  0  0  0  0  0  0  0  0  0  0  0
   -1.3268    9.1176    4.9163 C   0  0  0  0  0  0  0  0  0  0  0  0
   -0.1964    8.3865    5.1628 C   0  0  0  0  0  0  0  0  0  0  0  0
    1.4006    9.0899    5.2309 S   0  0  0  0  0  0  0  0  0  0  0  0
    2.4205    7.6729    5.7679 C   0  0  0  0  0  0  0  0  0  0  0  0
    2.2706    7.3843    7.2480 C   0  0  0  0  0  0  0  0  0  0  0  0
   -0.5854    6.5478    5.2973 Se  0  0  0  0  0  2  0  0  0  0  0  0
   -3.2634    4.7566    4.4721 C   0  0  0  0  0  0  0  0  0  0  0  0
   -4.2991    3.7974    4.3367 C   0  0  0  0  0  0  0  0  0  0  0  0
   -5.5962    4.0857    4.8163 C   0  0  0  0  0  0  0  0  0  0  0  0
   -6.6607    3.1109    4.7849 C   0  0  0  0  0  0  0  0  0  0  0  0
   -6.5572    1.7535    4.9498 C   0  0  0  0  0  0  0  0  0  0  0  0
   -7.7559    1.0243    4.8723 C   0  0  0  0  0  0  0  0  0  0  0  0
   -8.8752    1.7770    4.6411 C   0  0  0  0  0  0  0  0  0  0  0  0
  -10.4837    1.0954    4.5614 S   0  0  0  0  0  0  0  0  0  0  0  0
  -11.5135    2.5732    4.2573 C   0  0  0  0  0  0  0  0  0  0  0  0
  -11.4851    3.0055    2.8049 C   0  0  0  0  0  0  0  0  0  0  0  0
   -8.4584    3.6089    4.5187 Se  0  0  0  0  0  2  0  0  0  0  0  0
   -5.7831    5.3570    5.3576 C   0  0  0  0  0  0  0  0  0  0  0  0
   -7.2857    5.9320    6.0154 S   0  0  0  0  0  0  0  0  0  0  0  0
   -3.8533    2.6367    3.6589 C   0  0  0  0  0  0  0  0  0  0  0  0
   -2.5275    2.6606    3.3375 C   0  0  0  0  0  0  0  0  0  0  0  0
   -1.7600    4.1542    3.8280 S   0  0  0  0  0  0  0  0  0  0  0  0
   -1.7574    1.6617    2.6716 C   0  0  0  0  0  0  0  0  0  0  0  0
   -2.1984    0.5897    1.9532 C   0  0  0  0  0  0  0  0  0  0  0  0
   -1.1547   -0.1801    1.3825 C   0  0  0  0  0  0  0  0  0  0  0  0
   -1.2684   -1.3286    0.5739 C   0  0  0  0  0  0  0  0  0  0  0  0
   -2.5578   -1.8068    0.1277 C   0  0  0  0  0  0  0  0  0  0  0  0
   -3.6070   -1.0608   -0.3468 C   0  0  0  0  0  0  0  0  0  0  0  0
   -4.7059   -1.8321   -0.7447 C   0  0  0  0  0  0  0  0  0  0  0  0
   -4.5186   -3.1829   -0.5793 C   0  0  0  0  0  0  0  0  0  0  0  0
   -5.4157   -4.2848   -0.7737 C   0  0  0  0  0  0  0  0  0  0  0  0
   -6.4786   -4.3768   -1.5964 C   0  0  0  0  0  0  0  0  0  0  0  0
   -6.8949   -3.4823   -2.6375 C   0  0  0  0  0  0  0  0  0  0  0  0
   -6.1808   -2.6113   -3.4164 C   0  0  0  0  0  0  0  0  0  0  0  0
   -6.9541   -1.9742   -4.4049 C   0  0  0  0  0  0  0  0  0  0  0  0
   -8.2644   -2.3475   -4.3997 C   0  0  0  0  0  0  0  0  0  0  0  0
   -9.3927   -1.8947   -5.2652 C   0  0  0  0  0  0  0  0  0  0  0  0
   -8.9694   -0.8864   -6.3266 C   0  0  0  0  0  0  0  0  0  0  0  0
   -8.5625   -3.5249   -3.1612 S   0  0  0  0  0  0  0  0  0  0  0  0
   -2.9399   -3.5003    0.0910 S   0  0  0  0  0  0  0  0  0  0  0  0
   -0.0782   -1.9194    0.1649 C   0  0  0  0  0  0  0  0  0  0  0  0
    1.1961   -1.4087    0.5016 C   0  0  0  0  0  0  0  0  0  0  0  0
    1.3149   -0.2743    1.3318 C   0  0  0  0  0  0  0  0  0  0  0  0
    2.6059    0.2241    1.7472 C   0  0  0  0  0  0  0  0  0  0  0  0
    3.0330    1.5093    1.9693 C   0  0  0  0  0  0  0  0  0  0  0  0
    4.3744    1.5865    2.3691 C   0  0  0  0  0  0  0  0  0  0  0  0
    4.9973    0.3645    2.4591 C   0  0  0  0  0  0  0  0  0  0  0  0
    6.3505    0.1027    2.8618 C   0  0  0  0  0  0  0  0  0  0  0  0
    7.0076   -1.0599    2.7385 C   0  0  0  0  0  0  0  0  0  0  0  0
    6.4782   -2.2354    2.0647 C   0  0  0  0  0  0  0  0  0  0  0  0
    6.1554   -2.3834    0.7479 C   0  0  0  0  0  0  0  0  0  0  0  0
    5.6247   -3.6557    0.4430 C   0  0  0  0  0  0  0  0  0  0  0  0
    5.5408   -4.4801    1.5206 C   0  0  0  0  0  0  0  0  0  0  0  0
    5.0148   -5.8722    1.5848 C   0  0  0  0  0  0  0  0  0  0  0  0
    6.0979   -6.8707    1.9942 C   0  0  0  0  0  0  0  0  0  0  0  0
    6.1535   -3.7023    2.9452 S   0  0  0  0  0  0  0  0  0  0  0  0
    3.8832   -0.9058    2.0718 S   0  0  0  0  0  0  0  0  0  0  0  0
    0.1230    0.3212    1.7281 C   0  0  0  0  0  0  0  0  0  0  0  0
   -0.0091    1.7526    2.7110 S   0  0  0  0  0  0  0  0  0  0  0  0
    2.2243   -2.0656   -0.2179 C   0  0  0  0  0  0  0  0  0  0  0  0
    1.7773   -3.0358   -1.0598 C   0  0  0  0  0  0  0  0  0  0  0  0
    0.0437   -3.2616   -0.9416 S   0  0  0  0  0  0  0  0  0  0  0  0
    2.5576   -3.6230   -2.1101 C   0  0  0  0  0  0  0  0  0  0  0  0
    3.3518   -2.8928   -2.9813 C   0  0  0  0  0  0  0  0  0  0  0  0
    3.5216   -1.5180   -2.9805 N   0  0  0  0  0  0  0  0  0  0  0  0
    2.4748   -0.6471   -2.6588 C   0  0  0  0  0  0  0  0  0  0  0  0
    1.1567   -0.9436   -3.0109 C   0  0  0  0  0  0  0  0  0  0  0  0
    0.1274   -0.1293   -2.5979 C   0  0  0  0  0  0  0  0  0  0  0  0
    0.3874    1.0127   -1.8430 C   0  0  0  0  0  0  0  0  0  0  0  0
   -1.0211    1.9363   -1.3136 S   0  0  0  0  0  0  0  0  0  0  0  0
   -0.3155    3.4198   -0.5439 C   0  0  0  0  0  0  0  0  0  0  0  0
    1.7003    1.3455   -1.5419 C   0  0  0  0  0  0  0  0  0  0  0  0
    2.7323    0.5203   -1.9451 C   0  0  0  0  0  0  0  0  0  0  0  0
    4.7497   -1.0196   -3.4490 C   0  0  0  0  0  0  0  0  0  0  0  0
    4.7888    0.0234   -4.3696 C   0  0  0  0  0  0  0  0  0  0  0  0
    5.9901    0.4186   -4.9207 C   0  0  0  0  0  0  0  0  0  0  0  0
    7.1676   -0.2238   -4.5619 C   0  0  0  0  0  0  0  0  0  0  0  0
    8.7174    0.1814   -5.3127 S   0  0  0  0  0  0  0  0  0  0  0  0
    8.2030    0.4415   -7.0392 C   0  0  0  0  0  0  0  0  0  0  0  0
    7.1438   -1.2162   -3.5913 C   0  0  0  0  0  0  0  0  0  0  0  0
    5.9441   -1.6112   -3.0397 C   0  0  0  0  0  0  0  0  0  0  0  0
    3.9657   -3.7382   -3.9373 C   0  0  0  0  0  0  0  0  0  0  0  0
    5.0192   -3.4442   -5.2653 S   0  0  0  0  0  0  0  0  0  0  0  0
    5.0203   -5.1627   -5.6723 C   0  0  0  0  0  0  0  0  0  0  0  0
    4.2021   -5.9060   -4.7903 C   0  0  0  0  0  0  0  0  0  0  0  0
    4.0239   -7.2702   -4.7906 N   0  0  0  0  0  0  0  0  0  0  0  0
    3.9803   -7.9143   -3.5402 C   0  0  0  0  0  0  0  0  0  0  0  0
    2.9964   -8.8512   -3.2450 C   0  0  0  0  0  0  0  0  0  0  0  0
    2.9646   -9.4706   -2.0107 C   0  0  0  0  0  0  0  0  0  0  0  0
    3.9225   -9.1643   -1.0532 C   0  0  0  0  0  0  0  0  0  0  0  0
    3.9822   -9.8792    0.5576 S   0  0  0  0  0  0  0  0  0  0  0  0
    2.5651  -11.0107    0.5934 C   0  0  0  0  0  0  0  0  0  0  0  0
    4.9187   -8.2356   -1.3523 C   0  0  0  0  0  0  0  0  0  0  0  0
    4.9452   -7.6131   -2.5784 C   0  0  0  0  0  0  0  0  0  0  0  0
    3.7431   -8.0037   -5.9499 C   0  0  0  0  0  0  0  0  0  0  0  0
    3.0012   -7.4426   -6.9868 C   0  0  0  0  0  0  0  0  0  0  0  0
    2.6973   -8.1835   -8.1088 C   0  0  0  0  0  0  0  0  0  0  0  0
    3.1350   -9.4989   -8.2168 C   0  0  0  0  0  0  0  0  0  0  0  0
    2.7864  -10.5196   -9.6076 S   0  0  0  0  0  0  0  0  0  0  0  0
    2.5458   -9.3047  -10.9362 C   0  0  0  0  0  0  0  0  0  0  0  0
    3.8682  -10.0652   -7.1769 C   0  0  0  0  0  0  0  0  0  0  0  0
    4.1730   -9.3270   -6.0558 C   0  0  0  0  0  0  0  0  0  0  0  0
    3.6396   -5.0784   -3.7994 C   0  0  0  0  0  0  0  0  0  0  0  0
    2.5308   -5.3368   -2.4857 S   0  0  0  0  0  0  0  0  0  0  0  0
    5.8260   -5.7047   -6.6820 C   0  0  0  0  0  0  0  0  0  0  0  0
    6.9029   -5.1376   -7.3221 C   0  0  0  0  0  0  0  0  0  0  0  0
    7.5070   -3.8207   -7.0708 C   0  0  0  0  0  0  0  0  0  0  0  0
    6.9747   -2.8231   -6.6153 O   0  0  0  0  0  0  0  0  0  0  0  0
    8.8983   -3.9134   -7.5480 C   0  0  0  0  0  0  0  0  0  0  0  0
    9.9109   -2.9730   -7.3789 C   0  0  0  0  0  0  0  0  0  0  0  0
   11.1127   -3.3459   -7.9324 C   0  0  0  0  0  0  0  0  0  0  0  0
   11.2947   -4.5608   -8.6060 C   0  0  0  0  0  0  0  0  0  0  0  0
   10.3011   -5.4956   -8.7834 C   0  0  0  0  0  0  0  0  0  0  0  0
    9.0728   -5.1380   -8.2240 C   0  0  0  0  0  0  0  0  0  0  0  0
    7.7960   -5.8480   -8.2115 C   0  0  0  0  0  0  0  0  0  0  0  0
    7.4657   -6.9176   -9.0057 C   0  0  0  0  0  0  0  0  0  0  0  0
    6.1462   -7.3586   -9.2089 C   0  0  0  0  0  0  0  0  0  0  0  0
    5.0884   -7.6963   -9.5053 N   0  0  0  0  0  0  0  0  0  0  0  0
    8.3750   -7.6046   -9.8333 C   0  0  0  0  0  0  0  0  0  0  0  0
    9.0722   -8.2153  -10.5116 N   0  0  0  0  0  0  0  0  0  0  0  0
   12.7521   -4.2831   -8.8777 C   0  0  0  0  0  0  0  0  0  0  0  0
   13.8006   -5.0058   -7.9959 C   0  0  0  0  0  0  0  0  0  0  0  0
   13.1250   -5.3015   -6.6799 C   0  0  0  0  0  0  0  0  0  0  0  0
   12.9520   -4.1497   -6.0455 C   0  0  0  0  0  0  0  0  0  0  0  0
   13.5079   -3.0541   -6.9209 C   0  0  0  0  0  0  0  0  0  0  0  0
   14.6703   -3.8052   -7.5896 C   0  0  0  0  0  0  0  0  0  0  0  0
   12.5481   -2.9278   -8.1297 C   0  0  0  0  0  0  0  0  0  0  0  0
   -6.4637    9.3079    7.4068 H   0  0  0  0  0  0  0  0  0  0  0  0
  -12.2329    6.8117    7.6382 H   0  0  0  0  0  0  0  0  0  0  0  0
  -11.1030   11.3316    9.6239 H   0  0  0  0  0  0  0  0  0  0  0  0
  -14.5013   10.9433    9.3769 H   0  0  0  0  0  0  0  0  0  0  0  0
  -14.3332   10.7825   11.8555 H   0  0  0  0  0  0  0  0  0  0  0  0
  -12.3822    9.1182   12.3648 H   0  0  0  0  0  0  0  0  0  0  0  0
  -13.0170    6.7524   11.3374 H   0  0  0  0  0  0  0  0  0  0  0  0
  -15.3613    6.9585   10.1958 H   0  0  0  0  0  0  0  0  0  0  0  0
  -16.3372    9.4196   10.6827 H   0  0  0  0  0  0  0  0  0  0  0  0
  -15.8341    8.6270   12.1967 H   0  0  0  0  0  0  0  0  0  0  0  0
  -15.1201    8.6444    8.3784 H   0  0  0  0  0  0  0  0  0  0  0  0
   -4.5587    8.2880    6.4253 H   0  0  0  0  0  0  0  0  0  0  0  0
   -3.4548    8.8327    4.5961 H   0  0  0  0  0  0  0  0  0  0  0  0
   -1.3009   10.1855    4.7860 H   0  0  0  0  0  0  0  0  0  0  0  0
    3.4427    7.9588    5.5215 H   0  0  0  0  0  0  0  0  0  0  0  0
    2.1280    6.8144    5.1548 H   0  0  0  0  0  0  0  0  0  0  0  0
    1.2385    7.1260    7.4867 H   0  0  0  0  0  0  0  0  0  0  0  0
    2.5549    8.2541    7.8354 H   0  0  0  0  0  0  0  0  0  0  0  0
    2.9075    6.5473    7.5261 H   0  0  0  0  0  0  0  0  0  0  0  0
   -5.6231    1.2742    5.1902 H   0  0  0  0  0  0  0  0  0  0  0  0
   -7.7989   -0.0438    4.9990 H   0  0  0  0  0  0  0  0  0  0  0  0
  -11.1497    3.3620    4.9226 H   0  0  0  0  0  0  0  0  0  0  0  0
  -12.5175    2.2785    4.5617 H   0  0  0  0  0  0  0  0  0  0  0  0
  -10.4715    3.2745    2.5051 H   0  0  0  0  0  0  0  0  0  0  0  0
  -11.8355    2.2015    2.1619 H   0  0  0  0  0  0  0  0  0  0  0  0
  -12.1262    3.8734    2.6663 H   0  0  0  0  0  0  0  0  0  0  0  0
   -4.4957    1.8169    3.3984 H   0  0  0  0  0  0  0  0  0  0  0  0
   -3.2394    0.3568    1.8319 H   0  0  0  0  0  0  0  0  0  0  0  0
   -3.5590    0.0090   -0.4501 H   0  0  0  0  0  0  0  0  0  0  0  0
   -5.6221   -1.4109   -1.1165 H   0  0  0  0  0  0  0  0  0  0  0  0
   -5.2020   -5.1418   -0.1470 H   0  0  0  0  0  0  0  0  0  0  0  0
   -7.1059   -5.2538   -1.4930 H   0  0  0  0  0  0  0  0  0  0  0  0
   -5.1229   -2.4575   -3.3036 H   0  0  0  0  0  0  0  0  0  0  0  0
   -6.5407   -1.2630   -5.0968 H   0  0  0  0  0  0  0  0  0  0  0  0
  -10.1691   -1.4532   -4.6317 H   0  0  0  0  0  0  0  0  0  0  0  0
   -9.8389   -2.7693   -5.7494 H   0  0  0  0  0  0  0  0  0  0  0  0
   -9.8289   -0.6009   -6.9281 H   0  0  0  0  0  0  0  0  0  0  0  0
   -8.2169   -1.3150   -6.9840 H   0  0  0  0  0  0  0  0  0  0  0  0
   -8.5610    0.0091   -5.8644 H   0  0  0  0  0  0  0  0  0  0  0  0
    2.4155    2.3770    1.8216 H   0  0  0  0  0  0  0  0  0  0  0  0
    4.8797    2.5150    2.5701 H   0  0  0  0  0  0  0  0  0  0  0  0
    6.8529    0.9431    3.3237 H   0  0  0  0  0  0  0  0  0  0  0  0
    7.9976   -1.1553    3.1661 H   0  0  0  0  0  0  0  0  0  0  0  0
    6.2936   -1.5977    0.0249 H   0  0  0  0  0  0  0  0  0  0  0  0
    5.2987   -3.9496   -0.5404 H   0  0  0  0  0  0  0  0  0  0  0  0
    4.1975   -5.9201    2.3095 H   0  0  0  0  0  0  0  0  0  0  0  0
    4.6097   -6.1367    0.6053 H   0  0  0  0  0  0  0  0  0  0  0  0
    6.4708   -6.6333    2.9880 H   0  0  0  0  0  0  0  0  0  0  0  0
    5.6939   -7.8803    2.0043 H   0  0  0  0  0  0  0  0  0  0  0  0
    6.9337   -6.8323    1.2981 H   0  0  0  0  0  0  0  0  0  0  0  0
    3.2646   -1.8081   -0.1590 H   0  0  0  0  0  0  0  0  0  0  0  0
    0.9449   -1.8242   -3.5987 H   0  0  0  0  0  0  0  0  0  0  0  0
   -0.8941   -0.3703   -2.8503 H   0  0  0  0  0  0  0  0  0  0  0  0
   -1.1644    4.0301   -0.2512 H   0  0  0  0  0  0  0  0  0  0  0  0
    0.2946    3.9544   -1.2659 H   0  0  0  0  0  0  0  0  0  0  0  0
    0.2583    3.1477    0.3370 H   0  0  0  0  0  0  0  0  0  0  0  0
    1.9359    2.2308   -0.9742 H   0  0  0  0  0  0  0  0  0  0  0  0
    3.7503    0.7712   -1.6849 H   0  0  0  0  0  0  0  0  0  0  0  0
    3.8689    0.5027   -4.6708 H   0  0  0  0  0  0  0  0  0  0  0  0
    5.9996    1.2148   -5.6485 H   0  0  0  0  0  0  0  0  0  0  0  0
    9.1068    0.3996   -7.6394 H   0  0  0  0  0  0  0  0  0  0  0  0
    7.7342    1.4140   -7.1566 H   0  0  0  0  0  0  0  0  0  0  0  0
    7.5249   -0.3610   -7.3143 H   0  0  0  0  0  0  0  0  0  0  0  0
    8.0661   -1.6901   -3.2927 H   0  0  0  0  0  0  0  0  0  0  0  0
    5.9219   -2.4067   -2.3102 H   0  0  0  0  0  0  0  0  0  0  0  0
    2.2474   -9.0896   -3.9851 H   0  0  0  0  0  0  0  0  0  0  0  0
    2.1826  -10.1845   -1.8099 H   0  0  0  0  0  0  0  0  0  0  0  0
    2.6836  -11.7795   -0.1646 H   0  0  0  0  0  0  0  0  0  0  0  0
    1.6431  -10.4539    0.4546 H   0  0  0  0  0  0  0  0  0  0  0  0
    2.5776  -11.4625    1.5806 H   0  0  0  0  0  0  0  0  0  0  0  0
    5.6746   -8.0206   -0.6143 H   0  0  0  0  0  0  0  0  0  0  0  0
    5.7195   -6.8951   -2.8065 H   0  0  0  0  0  0  0  0  0  0  0  0
    2.6576   -6.4219   -6.9038 H   0  0  0  0  0  0  0  0  0  0  0  0
    2.1140   -7.7306   -8.8932 H   0  0  0  0  0  0  0  0  0  0  0  0
    3.3184   -8.5477  -10.8492 H   0  0  0  0  0  0  0  0  0  0  0  0
    1.5505   -8.8726  -10.8799 H   0  0  0  0  0  0  0  0  0  0  0  0
    2.6559   -9.8527  -11.8666 H   0  0  0  0  0  0  0  0  0  0  0  0
    4.2068  -11.0857   -7.2667 H   0  0  0  0  0  0  0  0  0  0  0  0
    4.7548   -9.7641   -5.2576 H   0  0  0  0  0  0  0  0  0  0  0  0
    5.6313   -6.7492   -6.9053 H   0  0  0  0  0  0  0  0  0  0  0  0
    9.7371   -2.0543   -6.8413 H   0  0  0  0  0  0  0  0  0  0  0  0
   10.4540   -6.4299   -9.2980 H   0  0  0  0  0  0  0  0  0  0  0  0
   13.0444   -4.2492   -9.9254 H   0  0  0  0  0  0  0  0  0  0  0  0
   14.2965   -5.8431   -8.4798 H   0  0  0  0  0  0  0  0  0  0  0  0
   12.8002   -6.2810   -6.3807 H   0  0  0  0  0  0  0  0  0  0  0  0
   12.4532   -3.9731   -5.1106 H   0  0  0  0  0  0  0  0  0  0  0  0
   13.7364   -2.1140   -6.4259 H   0  0  0  0  0  0  0  0  0  0  0  0
   15.4578   -4.0742   -6.8872 H   0  0  0  0  0  0  0  0  0  0  0  0
   15.0996   -3.2738   -8.4379 H   0  0  0  0  0  0  0  0  0  0  0  0
   12.7057   -2.0082   -8.6901 H   0  0  0  0  0  0  0  0  0  0  0  0
  1  2  2  0  0  0  0
  2  3  1  0  0  0  0
  3  4  2  0  0  0  0
  3  5  1  0  0  0  0
  5  6  2  0  0  0  0
  6  7  1  0  0  0  0
  7  8  2  0  0  0  0
  8  9  1  0  0  0  0
  9 10  2  0  0  0  0
 10 11  1  0  0  0  0
 11 12  2  0  0  0  0
 12 13  1  0  0  0  0
 13 14  3  0  0  0  0
 12 15  1  0  0  0  0
 15 16  3  0  0  0  0
  8 17  1  0  0  0  0
 17 18  1  0  0  0  0
 18 19  1  0  0  0  0
 19 20  2  0  0  0  0
 20 21  1  0  0  0  0
 21 22  1  0  0  0  0
 21 23  1  0  0  0  0
  1 24  1  0  0  0  0
 24 25  2  0  0  0  0
 25 26  1  0  0  0  0
 26 27  2  0  0  0  0
 27 28  1  0  0  0  0
 28 29  2  0  0  0  0
 29 30  1  0  0  0  0
 30 31  2  0  0  0  0
 31 32  1  0  0  0  0
 32 33  1  0  0  0  0
 33 34  1  0  0  0  0
 31 35  1  0  0  0  0
 27 36  1  0  0  0  0
 36 37  2  0  0  0  0
 37 38  1  0  0  0  0
 38 39  1  0  0  0  0
 39 40  2  0  0  0  0
 40 41  1  0  0  0  0
 41 42  2  0  0  0  0
 42 43  1  0  0  0  0
 43 44  1  0  0  0  0
 44 45  1  0  0  0  0
 42 46  1  0  0  0  0
 38 47  2  0  0  0  0
 47 48  1  0  0  0  0
 37 49  1  0  0  0  0
 49 50  2  0  0  0  0
 50 51  1  0  0  0  0
 50 52  1  0  0  0  0
 52 53  2  0  0  0  0
 53 54  1  0  0  0  0
 54 55  2  0  0  0  0
 55 56  1  0  0  0  0
 56 57  2  0  0  0  0
 57 58  1  0  0  0  0
 58 59  2  0  0  0  0
 59 60  1  0  0  0  0
 60 61  2  0  0  0  0
 61 62  1  0  0  0  0
 62 63  2  0  0  0  0
 63 64  1  0  0  0  0
 64 65  2  0  0  0  0
 65 66  1  0  0  0  0
 66 67  1  0  0  0  0
 65 68  1  0  0  0  0
 59 69  1  0  0  0  0
 55 70  1  0  0  0  0
 70 71  2  0  0  0  0
 71 72  1  0  0  0  0
 72 73  1  0  0  0  0
 73 74  2  0  0  0  0
 74 75  1  0  0  0  0
 75 76  2  0  0  0  0
 76 77  1  0  0  0  0
 77 78  2  0  0  0  0
 78 79  1  0  0  0  0
 79 80  2  0  0  0  0
 80 81  1  0  0  0  0
 81 82  2  0  0  0  0
 82 83  1  0  0  0  0
 83 84  1  0  0  0  0
 82 85  1  0  0  0  0
 76 86  1  0  0  0  0
 72 87  2  0  0  0  0
 87 88  1  0  0  0  0
 71 89  1  0  0  0  0
 89 90  2  0  0  0  0
 90 91  1  0  0  0  0
 90 92  1  0  0  0  0
 92 93  2  0  0  0  0
 93 94  1  0  0  0  0
 94 95  1  0  0  0  0
 95 96  2  0  0  0  0
 96 97  1  0  0  0  0
 97 98  2  0  0  0  0
 98 99  1  0  0  0  0
 99100  1  0  0  0  0
 98101  1  0  0  0  0
101102  2  0  0  0  0
 94103  1  0  0  0  0
103104  2  0  0  0  0
104105  1  0  0  0  0
105106  2  0  0  0  0
106107  1  0  0  0  0
107108  1  0  0  0  0
106109  1  0  0  0  0
109110  2  0  0  0  0
 93111  1  0  0  0  0
111112  1  0  0  0  0
112113  1  0  0  0  0
113114  2  0  0  0  0
114115  1  0  0  0  0
115116  1  0  0  0  0
116117  2  0  0  0  0
117118  1  0  0  0  0
118119  2  0  0  0  0
119120  1  0  0  0  0
120121  1  0  0  0  0
119122  1  0  0  0  0
122123  2  0  0  0  0
115124  1  0  0  0  0
124125  2  0  0  0  0
125126  1  0  0  0  0
126127  2  0  0  0  0
127128  1  0  0  0  0
128129  1  0  0  0  0
127130  1  0  0  0  0
130131  2  0  0  0  0
114132  1  0  0  0  0
132133  1  0  0  0  0
113134  1  0  0  0  0
134135  2  0  0  0  0
135136  1  0  0  0  0
136137  2  0  0  0  0
136138  1  0  0  0  0
138139  2  0  0  0  0
139140  1  0  0  0  0
140141  2  0  0  0  0
141142  1  0  0  0  0
142143  2  0  0  0  0
143144  1  0  0  0  0
144145  2  0  0  0  0
145146  1  0  0  0  0
146147  3  0  0  0  0
145148  1  0  0  0  0
148149  3  0  0  0  0
141150  1  0  0  0  0
150151  1  0  0  0  0
151152  1  0  0  0  0
152153  2  0  0  0  0
153154  1  0  0  0  0
154155  1  0  0  0  0
154156  1  0  0  0  0
 11  2  1  0  0  0  0
 23 17  1  0  0  0  0
 48 24  1  0  0  0  0
 88 52  1  0  0  0  0
133 92  1  0  0  0  0
144135  1  0  0  0  0
156150  1  0  0  0  0
 10  5  1  0  0  0  0
 22 18  1  0  0  0  0
 47 26  1  0  0  0  0
 87 54  1  0  0  0  0
102 95  1  0  0  0  0
110103  1  0  0  0  0
132111  2  0  0  0  0
143138  1  0  0  0  0
155151  1  0  0  0  0
 23  7  1  0  0  0  0
 35 28  1  0  0  0  0
 51 36  1  0  0  0  0
 69 56  1  0  0  0  0
 91 70  1  0  0  0  0
123116  1  0  0  0  0
131124  1  0  0  0  0
156140  1  0  0  0  0
 46 39  1  0  0  0  0
 68 62  1  0  0  0  0
 86 73  1  0  0  0  0
 85 79  1  0  0  0  0
  1157  1  0  0  0  0
  6158  1  0  0  0  0
  9159  1  0  0  0  0
 17160  1  0  0  0  0
 18161  1  0  0  0  0
 19162  1  0  0  0  0
 20163  1  0  0  0  0
 21164  1  0  0  0  0
 22165  1  0  0  0  0
 22166  1  0  0  0  0
 23167  1  0  0  0  0
 25168  1  0  0  0  0
 29169  1  0  0  0  0
 30170  1  0  0  0  0
 33171  1  0  0  0  0
 33172  1  0  0  0  0
 34173  1  0  0  0  0
 34174  1  0  0  0  0
 34175  1  0  0  0  0
 40176  1  0  0  0  0
 41177  1  0  0  0  0
 44178  1  0  0  0  0
 44179  1  0  0  0  0
 45180  1  0  0  0  0
 45181  1  0  0  0  0
 45182  1  0  0  0  0
 49183  1  0  0  0  0
 53184  1  0  0  0  0
 57185  1  0  0  0  0
 58186  1  0  0  0  0
 60187  1  0  0  0  0
 61188  1  0  0  0  0
 63189  1  0  0  0  0
 64190  1  0  0  0  0
 66191  1  0  0  0  0
 66192  1  0  0  0  0
 67193  1  0  0  0  0
 67194  1  0  0  0  0
 67195  1  0  0  0  0
 74196  1  0  0  0  0
 75197  1  0  0  0  0
 77198  1  0  0  0  0
 78199  1  0  0  0  0
 80200  1  0  0  0  0
 81201  1  0  0  0  0
 83202  1  0  0  0  0
 83203  1  0  0  0  0
 84204  1  0  0  0  0
 84205  1  0  0  0  0
 84206  1  0  0  0  0
 89207  1  0  0  0  0
 96208  1  0  0  0  0
 97209  1  0  0  0  0
100210  1  0  0  0  0
100211  1  0  0  0  0
100212  1  0  0  0  0
101213  1  0  0  0  0
102214  1  0  0  0  0
104215  1  0  0  0  0
105216  1  0  0  0  0
108217  1  0  0  0  0
108218  1  0  0  0  0
108219  1  0  0  0  0
109220  1  0  0  0  0
110221  1  0  0  0  0
117222  1  0  0  0  0
118223  1  0  0  0  0
121224  1  0  0  0  0
121225  1  0  0  0  0
121226  1  0  0  0  0
122227  1  0  0  0  0
123228  1  0  0  0  0
125229  1  0  0  0  0
126230  1  0  0  0  0
129231  1  0  0  0  0
129232  1  0  0  0  0
129233  1  0  0  0  0
130234  1  0  0  0  0
131235  1  0  0  0  0
134236  1  0  0  0  0
139237  1  0  0  0  0
142238  1  0  0  0  0
150239  1  0  0  0  0
151240  1  0  0  0  0
152241  1  0  0  0  0
153242  1  0  0  0  0
154243  1  0  0  0  0
155244  1  0  0  0  0
155245  1  0  0  0  0
156246  1  0  0  0  0
M  END
