
  xtb     02042214243D
 energy: -262.518952895955 gnorm: 0.000350556802 xtb: 6.4.1 (unknown)
146162  0     0  0            999 V2000
   -4.2615   -6.0084    0.7196 C   0  0  0  0  0  0  0  0  0  0  0  0
   -3.6982   -7.1885    0.3069 C   0  0  0  0  0  0  0  0  0  0  0  0
   -2.5054   -7.2825   -0.5573 C   0  0  0  0  0  0  0  0  0  0  0  0
   -1.9136   -6.3735   -1.1132 O   0  0  0  0  0  0  0  0  0  0  0  0
   -2.2760   -8.7218   -0.7788 C   0  0  0  0  0  0  0  0  0  0  0  0
   -1.2214   -9.3073   -1.4747 C   0  0  0  0  0  0  0  0  0  0  0  0
   -1.2841  -10.6788   -1.5350 C   0  0  0  0  0  0  0  0  0  0  0  0
   -2.3267  -11.4149   -0.9585 C   0  0  0  0  0  0  0  0  0  0  0  0
   -3.3746  -10.8491   -0.2709 C   0  0  0  0  0  0  0  0  0  0  0  0
   -3.3234   -9.4555   -0.1861 C   0  0  0  0  0  0  0  0  0  0  0  0
   -4.2243   -8.5200    0.4873 C   0  0  0  0  0  0  0  0  0  0  0  0
   -5.3267   -8.8651    1.2297 C   0  0  0  0  0  0  0  0  0  0  0  0
   -6.1263   -7.9610    1.9587 C   0  0  0  0  0  0  0  0  0  0  0  0
   -6.8167   -7.3015    2.5977 N   0  0  0  0  0  0  0  0  0  0  0  0
   -5.8081  -10.1802    1.3828 C   0  0  0  0  0  0  0  0  0  0  0  0
   -6.2622  -11.2232    1.5438 N   0  0  0  0  0  0  0  0  0  0  0  0
   -1.7434  -12.7355   -1.3968 C   0  0  0  0  0  0  0  0  0  0  0  0
   -1.0168  -13.5909   -0.3296 C   0  0  0  0  0  0  0  0  0  0  0  0
   -0.5085  -12.6295    0.7158 C   0  0  0  0  0  0  0  0  0  0  0  0
    0.4805  -11.9300    0.1756 C   0  0  0  0  0  0  0  0  0  0  0  0
    0.6594  -12.4066   -1.2446 C   0  0  0  0  0  0  0  0  0  0  0  0
    0.2904  -13.8897   -1.0811 C   0  0  0  0  0  0  0  0  0  0  0  0
   -0.5785  -11.9145   -2.0346 C   0  0  0  0  0  0  0  0  0  0  0  0
   -3.5808   -4.7741    0.7806 C   0  0  0  0  0  0  0  0  0  0  0  0
   -4.2701   -3.5422    0.7079 C   0  0  0  0  0  0  0  0  0  0  0  0
   -3.5784   -2.2770    0.6544 C   0  0  0  0  0  0  0  0  0  0  0  0
   -4.4261   -1.2564    0.5435 N   0  0  0  0  0  0  0  0  0  0  0  0
   -5.9379   -1.8188    0.5145 S   0  0  0  0  0  4  0  0  0  0  0  0
   -5.5903   -3.3835    0.6249 N   0  0  0  0  0  0  0  0  0  0  0  0
   -2.1650   -2.1552    0.6850 C   0  0  0  0  0  0  0  0  0  0  0  0
   -1.5020   -3.3683    0.9907 C   0  0  0  0  0  0  0  0  0  0  0  0
   -0.2225   -3.4951    1.3446 N   0  0  0  0  0  0  0  0  0  0  0  0
    0.0854   -5.0407    1.6658 S   0  0  0  0  0  0  0  0  0  0  0  0
   -1.3815   -5.6293    1.3910 N   0  0  0  0  0  0  0  0  0  0  0  0
   -2.1913   -4.6424    1.0197 C   0  0  0  0  0  0  0  0  0  0  0  0
   -1.5660   -0.8926    0.4787 C   0  0  0  0  0  0  0  0  0  0  0  0
   -0.2237   -0.5059    0.2989 C   0  0  0  0  0  0  0  0  0  0  0  0
    0.8853   -1.2837    0.0681 N   0  0  0  0  0  0  0  0  0  0  0  0
    0.9086   -2.4493   -0.6769 C   0  0  0  0  0  0  0  0  0  0  0  0
    1.9878   -3.3330   -0.5437 C   0  0  0  0  0  0  0  0  0  0  0  0
    2.0088   -4.5138   -1.2437 C   0  0  0  0  0  0  0  0  0  0  0  0
    0.9661   -4.8471   -2.1129 C   0  0  0  0  0  0  0  0  0  0  0  0
    1.0910   -6.3888   -2.9357 S   0  0  0  0  0  0  0  0  0  0  0  0
   -0.4406   -6.5019   -3.8993 C   0  0  0  0  0  0  0  0  0  0  0  0
   -0.0810   -3.9490   -2.2905 C   0  0  0  0  0  0  0  0  0  0  0  0
   -0.1027   -2.7636   -1.5887 C   0  0  0  0  0  0  0  0  0  0  0  0
    2.0890   -0.7395    0.5832 C   0  0  0  0  0  0  0  0  0  0  0  0
    2.1772   -0.4875    1.9507 C   0  0  0  0  0  0  0  0  0  0  0  0
    3.2243    0.2564    2.4481 C   0  0  0  0  0  0  0  0  0  0  0  0
    4.1792    0.7791    1.5800 C   0  0  0  0  0  0  0  0  0  0  0  0
    5.3540    1.9293    2.2230 S   0  0  0  0  0  0  0  0  0  0  0  0
    5.3767    3.1753    0.8978 C   0  0  0  0  0  0  0  0  0  0  0  0
    4.1556    0.4262    0.2347 C   0  0  0  0  0  0  0  0  0  0  0  0
    3.1190   -0.3382   -0.2629 C   0  0  0  0  0  0  0  0  0  0  0  0
   -0.1057    0.9071    0.3483 C   0  0  0  0  0  0  0  0  0  0  0  0
    1.2380    1.9874    0.2112 S   0  0  0  0  0  0  0  0  0  0  0  0
    0.1650    3.3689    0.3856 C   0  0  0  0  0  0  0  0  0  0  0  0
   -1.1839    3.0059    0.4624 C   0  0  0  0  0  0  0  0  0  0  0  0
   -2.2719    3.8374    0.5200 N   0  0  0  0  0  0  0  0  0  0  0  0
   -3.4614    3.2919    1.0569 C   0  0  0  0  0  0  0  0  0  0  0  0
   -4.6323    3.2660    0.3021 C   0  0  0  0  0  0  0  0  0  0  0  0
   -5.7383    2.5977    0.7755 C   0  0  0  0  0  0  0  0  0  0  0  0
   -5.6978    1.9516    2.0099 C   0  0  0  0  0  0  0  0  0  0  0  0
   -7.1228    1.0228    2.4710 S   0  0  0  0  0  0  0  0  0  0  0  0
   -6.4887   -0.0869    3.7617 C   0  0  0  0  0  0  0  0  0  0  0  0
   -4.5623    2.0551    2.8021 C   0  0  0  0  0  0  0  0  0  0  0  0
   -3.4495    2.7188    2.3238 C   0  0  0  0  0  0  0  0  0  0  0  0
   -2.3401    5.0861   -0.1078 C   0  0  0  0  0  0  0  0  0  0  0  0
   -3.1777    6.0679    0.4286 C   0  0  0  0  0  0  0  0  0  0  0  0
   -3.2740    7.3008   -0.1703 C   0  0  0  0  0  0  0  0  0  0  0  0
   -2.5357    7.5952   -1.3187 C   0  0  0  0  0  0  0  0  0  0  0  0
   -2.7407    9.2081   -1.9882 S   0  0  0  0  0  0  0  0  0  0  0  0
   -1.4036    9.3598   -3.2041 C   0  0  0  0  0  0  0  0  0  0  0  0
   -1.7175    6.6157   -1.8668 C   0  0  0  0  0  0  0  0  0  0  0  0
   -1.6233    5.3735   -1.2678 C   0  0  0  0  0  0  0  0  0  0  0  0
   -1.3018    1.5909    0.4708 C   0  0  0  0  0  0  0  0  0  0  0  0
   -2.6484    0.4980    0.5314 S   0  0  0  0  0  0  0  0  0  0  0  0
    0.8834    4.5739    0.4708 C   0  0  0  0  0  0  0  0  0  0  0  0
    2.1918    4.5403    0.2851 N   0  0  0  0  0  0  0  0  0  0  0  0
    2.7852    5.6777    0.3975 N   0  0  0  0  0  0  0  0  0  0  0  0
    2.0104    6.6772    0.6927 C   0  0  0  0  0  0  0  0  0  0  0  0
    0.3044    6.1742    0.8547 S   0  0  0  0  0  0  0  0  0  0  0  0
    2.3582    8.0439    0.7578 C   0  0  0  0  0  0  0  0  0  0  0  0
    3.6066    8.5601    0.9123 C   0  0  0  0  0  0  0  0  0  0  0  0
    4.8083    7.8416    1.4181 C   0  0  0  0  0  0  0  0  0  0  0  0
    4.9931    6.6542    1.5320 O   0  0  0  0  0  0  0  0  0  0  0  0
    5.7341    8.9188    1.8425 C   0  0  0  0  0  0  0  0  0  0  0  0
    6.9531    8.7891    2.4758 C   0  0  0  0  0  0  0  0  0  0  0  0
    7.6333    9.9508    2.8137 C   0  0  0  0  0  0  0  0  0  0  0  0
    7.0925   11.1986    2.5550 C   0  0  0  0  0  0  0  0  0  0  0  0
    5.8530   11.3415    1.9223 C   0  0  0  0  0  0  0  0  0  0  0  0
    5.2325   12.5127    1.7015 O   0  0  0  0  0  0  0  0  0  0  0  0
    5.8882   13.7267    1.9909 C   0  0  0  0  0  0  0  0  0  0  0  0
    5.1849   10.1738    1.5296 C   0  0  0  0  0  0  0  0  0  0  0  0
    3.9339    9.9751    0.8179 C   0  0  0  0  0  0  0  0  0  0  0  0
    3.2559   10.8577    0.0186 C   0  0  0  0  0  0  0  0  0  0  0  0
    2.1602   10.4679   -0.7829 C   0  0  0  0  0  0  0  0  0  0  0  0
    1.2960   10.2055   -1.4929 N   0  0  0  0  0  0  0  0  0  0  0  0
    3.5902   12.2015   -0.2566 C   0  0  0  0  0  0  0  0  0  0  0  0
    3.7637   13.2840   -0.5973 N   0  0  0  0  0  0  0  0  0  0  0  0
   -5.3061   -5.9761    1.0017 H   0  0  0  0  0  0  0  0  0  0  0  0
   -0.4299   -8.7089   -1.8983 H   0  0  0  0  0  0  0  0  0  0  0  0
   -4.1700  -11.4290    0.1666 H   0  0  0  0  0  0  0  0  0  0  0  0
   -2.3650  -13.3365   -2.0577 H   0  0  0  0  0  0  0  0  0  0  0  0
   -1.5898  -14.4389    0.0358 H   0  0  0  0  0  0  0  0  0  0  0  0
   -0.9457  -12.5195    1.6908 H   0  0  0  0  0  0  0  0  0  0  0  0
    1.0342  -11.1177    0.6088 H   0  0  0  0  0  0  0  0  0  0  0  0
    1.6135  -12.1760   -1.7116 H   0  0  0  0  0  0  0  0  0  0  0  0
    0.1384  -14.4061   -2.0280 H   0  0  0  0  0  0  0  0  0  0  0  0
    1.0092  -14.4384   -0.4742 H   0  0  0  0  0  0  0  0  0  0  0  0
   -0.4364  -11.9833   -3.1117 H   0  0  0  0  0  0  0  0  0  0  0  0
    2.7823   -3.0996    0.1477 H   0  0  0  0  0  0  0  0  0  0  0  0
    2.8290   -5.2048   -1.1218 H   0  0  0  0  0  0  0  0  0  0  0  0
   -1.2839   -6.4347   -3.2169 H   0  0  0  0  0  0  0  0  0  0  0  0
   -0.4643   -5.7197   -4.6523 H   0  0  0  0  0  0  0  0  0  0  0  0
   -0.4203   -7.4753   -4.3802 H   0  0  0  0  0  0  0  0  0  0  0  0
   -0.8908   -4.1669   -2.9660 H   0  0  0  0  0  0  0  0  0  0  0  0
   -0.9155   -2.0720   -1.7489 H   0  0  0  0  0  0  0  0  0  0  0  0
    1.3936   -0.8467    2.6009 H   0  0  0  0  0  0  0  0  0  0  0  0
    3.2862    0.4864    3.5002 H   0  0  0  0  0  0  0  0  0  0  0  0
    6.0876    2.8949    0.1262 H   0  0  0  0  0  0  0  0  0  0  0  0
    5.6759    4.1113    1.3593 H   0  0  0  0  0  0  0  0  0  0  0  0
    4.3737    3.2818    0.4962 H   0  0  0  0  0  0  0  0  0  0  0  0
    4.9250    0.7810   -0.4322 H   0  0  0  0  0  0  0  0  0  0  0  0
    3.0720   -0.5787   -1.3145 H   0  0  0  0  0  0  0  0  0  0  0  0
   -4.6522    3.7383   -0.6685 H   0  0  0  0  0  0  0  0  0  0  0  0
   -6.6372    2.5396    0.1819 H   0  0  0  0  0  0  0  0  0  0  0  0
   -6.3421    0.4559    4.6911 H   0  0  0  0  0  0  0  0  0  0  0  0
   -5.5635   -0.5415    3.4205 H   0  0  0  0  0  0  0  0  0  0  0  0
   -7.2503   -0.8479    3.9000 H   0  0  0  0  0  0  0  0  0  0  0  0
   -4.5259    1.6122    3.7840 H   0  0  0  0  0  0  0  0  0  0  0  0
   -2.5533    2.7738    2.9244 H   0  0  0  0  0  0  0  0  0  0  0  0
   -3.7411    5.8532    1.3241 H   0  0  0  0  0  0  0  0  0  0  0  0
   -3.9140    8.0619    0.2481 H   0  0  0  0  0  0  0  0  0  0  0  0
   -0.4466    9.2124   -2.7136 H   0  0  0  0  0  0  0  0  0  0  0  0
   -1.5565    8.6617   -4.0220 H   0  0  0  0  0  0  0  0  0  0  0  0
   -1.4675   10.3780   -3.5752 H   0  0  0  0  0  0  0  0  0  0  0  0
   -1.1443    6.8071   -2.7594 H   0  0  0  0  0  0  0  0  0  0  0  0
   -0.9948    4.6158   -1.7127 H   0  0  0  0  0  0  0  0  0  0  0  0
    1.5188    8.7240    0.6819 H   0  0  0  0  0  0  0  0  0  0  0  0
    7.3525    7.8116    2.6931 H   0  0  0  0  0  0  0  0  0  0  0  0
    8.5954    9.8886    3.2993 H   0  0  0  0  0  0  0  0  0  0  0  0
    7.6402   12.0769    2.8578 H   0  0  0  0  0  0  0  0  0  0  0  0
    6.0481   13.8469    3.0666 H   0  0  0  0  0  0  0  0  0  0  0  0
    6.8424   13.8001    1.4626 H   0  0  0  0  0  0  0  0  0  0  0  0
    5.2163   14.5027    1.6287 H   0  0  0  0  0  0  0  0  0  0  0  0
  1  2  2  0  0  0  0
  2  3  1  0  0  0  0
  3  4  2  0  0  0  0
  3  5  1  0  0  0  0
  5  6  2  0  0  0  0
  6  7  1  0  0  0  0
  7  8  2  0  0  0  0
  8  9  1  0  0  0  0
  9 10  2  0  0  0  0
 10 11  1  0  0  0  0
 11 12  2  0  0  0  0
 12 13  1  0  0  0  0
 13 14  3  0  0  0  0
 12 15  1  0  0  0  0
 15 16  3  0  0  0  0
  8 17  1  0  0  0  0
 17 18  1  0  0  0  0
 18 19  1  0  0  0  0
 19 20  2  0  0  0  0
 20 21  1  0  0  0  0
 21 22  1  0  0  0  0
 21 23  1  0  0  0  0
  1 24  1  0  0  0  0
 24 25  2  0  0  0  0
 25 26  1  0  0  0  0
 26 27  1  0  0  0  0
 27 28  2  0  0  0  0
 28 29  2  0  0  0  0
 26 30  2  0  0  0  0
 30 31  1  0  0  0  0
 31 32  2  0  0  0  0
 32 33  1  0  0  0  0
 33 34  1  0  0  0  0
 34 35  2  0  0  0  0
 30 36  1  0  0  0  0
 36 37  2  0  0  0  0
 37 38  1  0  0  0  0
 38 39  1  0  0  0  0
 39 40  2  0  0  0  0
 40 41  1  0  0  0  0
 41 42  2  0  0  0  0
 42 43  1  0  0  0  0
 43 44  1  0  0  0  0
 42 45  1  0  0  0  0
 45 46  2  0  0  0  0
 38 47  1  0  0  0  0
 47 48  2  0  0  0  0
 48 49  1  0  0  0  0
 49 50  2  0  0  0  0
 50 51  1  0  0  0  0
 51 52  1  0  0  0  0
 50 53  1  0  0  0  0
 53 54  2  0  0  0  0
 37 55  1  0  0  0  0
 55 56  1  0  0  0  0
 56 57  1  0  0  0  0
 57 58  2  0  0  0  0
 58 59  1  0  0  0  0
 59 60  1  0  0  0  0
 60 61  2  0  0  0  0
 61 62  1  0  0  0  0
 62 63  2  0  0  0  0
 63 64  1  0  0  0  0
 64 65  1  0  0  0  0
 63 66  1  0  0  0  0
 66 67  2  0  0  0  0
 59 68  1  0  0  0  0
 68 69  2  0  0  0  0
 69 70  1  0  0  0  0
 70 71  2  0  0  0  0
 71 72  1  0  0  0  0
 72 73  1  0  0  0  0
 71 74  1  0  0  0  0
 74 75  2  0  0  0  0
 58 76  1  0  0  0  0
 76 77  1  0  0  0  0
 57 78  1  0  0  0  0
 78 79  2  0  0  0  0
 79 80  1  0  0  0  0
 80 81  2  0  0  0  0
 81 82  1  0  0  0  0
 81 83  1  0  0  0  0
 83 84  2  0  0  0  0
 84 85  1  0  0  0  0
 85 86  2  0  0  0  0
 85 87  1  0  0  0  0
 87 88  2  0  0  0  0
 88 89  1  0  0  0  0
 89 90  2  0  0  0  0
 90 91  1  0  0  0  0
 91 92  1  0  0  0  0
 92 93  1  0  0  0  0
 91 94  2  0  0  0  0
 94 95  1  0  0  0  0
 95 96  2  0  0  0  0
 96 97  1  0  0  0  0
 97 98  3  0  0  0  0
 96 99  1  0  0  0  0
 99100  3  0  0  0  0
 11  2  1  0  0  0  0
 23 17  1  0  0  0  0
 35 24  1  0  0  0  0
 77 36  1  0  0  0  0
 82 78  1  0  0  0  0
 95 84  1  0  0  0  0
 10  5  1  0  0  0  0
 22 18  1  0  0  0  0
 29 25  1  0  0  0  0
 35 31  1  0  0  0  0
 46 39  1  0  0  0  0
 54 47  1  0  0  0  0
 76 55  2  0  0  0  0
 94 87  1  0  0  0  0
 23  7  1  0  0  0  0
 67 60  1  0  0  0  0
 75 68  1  0  0  0  0
  1101  1  0  0  0  0
  6102  1  0  0  0  0
  9103  1  0  0  0  0
 17104  1  0  0  0  0
 18105  1  0  0  0  0
 19106  1  0  0  0  0
 20107  1  0  0  0  0
 21108  1  0  0  0  0
 22109  1  0  0  0  0
 22110  1  0  0  0  0
 23111  1  0  0  0  0
 40112  1  0  0  0  0
 41113  1  0  0  0  0
 44114  1  0  0  0  0
 44115  1  0  0  0  0
 44116  1  0  0  0  0
 45117  1  0  0  0  0
 46118  1  0  0  0  0
 48119  1  0  0  0  0
 49120  1  0  0  0  0
 52121  1  0  0  0  0
 52122  1  0  0  0  0
 52123  1  0  0  0  0
 53124  1  0  0  0  0
 54125  1  0  0  0  0
 61126  1  0  0  0  0
 62127  1  0  0  0  0
 65128  1  0  0  0  0
 65129  1  0  0  0  0
 65130  1  0  0  0  0
 66131  1  0  0  0  0
 67132  1  0  0  0  0
 69133  1  0  0  0  0
 70134  1  0  0  0  0
 73135  1  0  0  0  0
 73136  1  0  0  0  0
 73137  1  0  0  0  0
 74138  1  0  0  0  0
 75139  1  0  0  0  0
 83140  1  0  0  0  0
 88141  1  0  0  0  0
 89142  1  0  0  0  0
 90143  1  0  0  0  0
 93144  1  0  0  0  0
 93145  1  0  0  0  0
 93146  1  0  0  0  0
M  END
