193

C          4.52300        4.91710       -8.50070
C          5.69350        5.44070       -8.05860
C          6.57010        6.22500       -8.97260
O          6.25870        6.70630      -10.03770
C          7.89640        6.22580       -8.32520
C          9.09180        6.71110       -8.85100
C         10.17610        6.54750       -8.02270
C         10.08770        5.93140       -6.76630
C          8.91610        5.45230       -6.23110
C          7.79880        5.62440       -7.05150
C          6.40140        5.28740       -6.80370
C          5.82740        5.12520       -5.57010
C          6.54960        5.07120       -4.36110
N          7.08100        5.00490       -3.34550
C          4.43540        5.08640       -5.34900
N          3.31290        5.11330       -5.10510
C         11.56080        6.09980       -6.49150
C         11.98480        7.22400       -5.51460
C         10.90290        8.27370       -5.57630
C         10.98180        8.86650       -6.76010
C         12.11830        8.22850       -7.52020
C         13.07270        7.90580       -6.35950
C         11.65720        6.79550       -7.88590
C          3.77370        3.86300       -7.91250
C          2.43030        3.64040       -8.04700
C          1.95230        2.54300       -7.29800
C          0.60670        2.15060       -7.10760
C         -0.49060        2.93910       -7.61070
C         -0.58940        4.30400       -7.64940
C         -1.78180        4.82020       -8.18800
C         -2.68090        3.88160       -8.61190
S         -4.18560        4.27590       -9.40710
C         -5.11930        2.71700       -9.21450
C         -5.57590        2.49780       -7.78680
Se        -2.03450        2.13260       -8.32660
C          0.40870        1.00640       -6.34410
C          1.46750        0.28910       -5.74120
C          2.80630        0.72850       -5.84630
C          3.86590        0.14670       -5.05470
C          5.20690        0.10770       -5.33280
C          6.04340       -0.38530       -4.31560
C          5.40510       -0.74660       -3.16250
S          6.20440       -1.46420       -1.78390
C          4.86220       -1.47550       -0.54380
C          4.60180       -0.10190        0.04130
Se         3.55140       -0.51330       -3.31030
C          3.00550        1.84360       -6.65510
S          4.53670        2.62110       -6.93450
C          0.99150       -0.77910       -4.95540
C         -0.36740       -0.83220       -4.84700
S         -1.13990        0.36840       -5.86130
C         -1.09330       -1.58540       -3.86790
C         -2.47760       -1.61860       -3.81440
C         -3.18390       -2.06210       -2.69580
C         -2.53530       -2.47800       -1.54890
C         -1.12960       -2.63980       -1.63390
N         -0.34230       -3.18270       -0.70830
S          1.17780       -3.10320       -1.21260
N          0.91340       -2.38500       -2.63090
C         -0.39670       -2.18790       -2.78240
C         -3.15850       -2.61750       -0.25800
C         -2.64360       -2.10410        0.92330
N         -1.53260       -1.28970        1.05070
C         -0.80110       -1.36330        2.25040
C         -0.48840       -2.60180        2.80990
C          0.14800       -2.67120        4.02930
C          0.49040       -1.50550        4.70970
S          1.26440       -1.69270        6.28800
C          1.10950       -0.04490        7.03530
C          0.22910       -0.27070        4.13060
C         -0.41640       -0.20140        2.91170
C         -1.15100       -0.38250        0.05660
C          0.19820       -0.11190       -0.16740
C          0.59660        0.74310       -1.17720
C         -0.35170        1.36120       -1.98050
S          0.02830        2.46040       -3.31000
C          1.76840        2.88960       -3.05710
C         -1.70330        1.11510       -1.74490
C         -2.09990        0.26320       -0.73940
C         -3.46260       -2.46650        2.01980
S         -3.36020       -2.19520        3.71110
C         -4.83930       -3.10670        3.98060
C         -5.43350       -3.50430        2.76810
N         -6.63580       -4.15470        2.64890
C         -6.79620       -5.13940        1.66470
C         -7.98630       -5.24410        0.94430
C         -8.12330       -6.21040       -0.02540
C         -7.07790       -7.09000       -0.30470
S         -7.37190       -8.27570       -1.57650
C         -5.77520       -9.11750       -1.76960
C         -5.89610       -6.99550        0.41780
C         -5.76040       -6.03060        1.39610
C         -7.74440       -3.72150        3.39720
C         -7.95920       -2.35860        3.60140
C         -9.04980       -1.93160        4.32510
C         -9.94480       -2.85470        4.85890
S        -11.30240       -2.22680        5.78770
C        -11.64170       -3.59190        6.93700
C         -9.74460       -4.21210        4.63710
C         -8.65000       -4.64180        3.91620
C         -4.59720       -3.18750        1.67440
S         -4.69420       -3.43080       -0.04030
C         -5.26510       -3.36880        5.29770
C         -4.41100       -3.47760        6.36960
C         -2.95990       -3.76100        6.27330
O         -2.33800       -4.12670        5.29450
C         -2.43330       -3.66160        7.64420
C         -1.10110       -3.76600        8.03450
C         -0.90290       -3.58350        9.38150
C         -1.95060       -3.31980       10.27320
C         -3.27340       -3.24690        9.90290
C         -3.49910       -3.43480        8.53590
C         -4.74950       -3.44010        7.77340
C         -6.00480       -3.43380        8.33040
C         -6.26440       -3.38610        9.71520
N         -6.55970       -3.34260       10.82460
C         -7.21890       -3.54810        7.63080
N         -8.26380       -3.66890        7.16680
C         -1.01960       -3.20360       11.45570
C         -0.68630       -1.77290       11.93060
C          0.57340       -1.94790       12.74790
C          1.56570       -2.21490       11.90830
C          0.99350       -2.22490       10.50960
C         -0.09140       -1.15030       10.66040
C          0.14610       -3.51300       10.46250
H          4.14710        5.30890       -9.44040
H          9.12270        7.17080       -9.82650
H          8.85590        4.97150       -5.26820
H         12.12520        5.18180       -6.34000
H         12.26270        6.87880       -4.52250
H         10.17790        8.43180       -4.79960
H         10.33550        9.62020       -7.17050
H         12.51860        8.79960       -8.35370
H         13.88670        7.23850       -6.63950
H         13.47580        8.79910       -5.88510
H         12.29070        6.33730       -8.64300
H          1.80120        4.27100       -8.64840
H          0.16630        4.94240       -7.22360
H         -1.98390        5.87530       -8.25380
H         -4.47040        1.90720       -9.56320
H         -5.96600        2.81550       -9.89290
H         -6.19890        3.32560       -7.45660
H         -4.71910        2.41860       -7.11750
H         -6.15060        1.57650       -7.72070
H          5.60450        0.39720       -6.29080
H          7.11020       -0.46980       -4.42990
H          3.97080       -1.88320       -1.03420
H          5.19850       -2.17370        0.22220
H          4.30200        0.59870       -0.73900
H          3.80470       -0.15950        0.78020
H          5.49870        0.28350        0.52070
H          1.60940       -1.51630       -4.47750
H         -3.02960       -1.20390       -4.64550
H         -4.26110       -1.98570       -2.68770
H         -0.76030       -3.50490        2.28590
H          0.36670       -3.62960        4.47150
H          1.78000        0.65720        6.54850
H          1.39520       -0.16160        8.07550
H          0.07700        0.28560        6.97040
H          0.50900        0.64670        4.62350
H         -0.63860        0.76090        2.47390
H          0.94350       -0.59170        0.45120
H          1.65210        0.90590       -1.33750
H          2.39910        2.02020       -3.23600
H          1.99760        3.66200       -3.78700
H          1.90740        3.27540       -2.05150
H         -2.43900        1.61020       -2.35990
H         -3.15130        0.10010       -0.55780
H         -8.79460       -4.55720        1.14370
H         -9.03990       -6.29060       -0.58900
H         -5.90730       -9.80660       -2.59790
H         -5.00350       -8.39270       -2.01120
H         -5.53180       -9.67080       -0.86730
H         -5.07530       -7.67020        0.23760
H         -4.84410       -5.97170        1.96490
H         -7.26320       -1.64140        3.19150
H         -9.21790       -0.87870        4.48980
H        -10.69380       -3.96090        7.31550
H        -12.23010       -3.16560        7.74350
H        -12.20960       -4.37510        6.44300
H        -10.43120       -4.94170        5.03340
H         -8.48800       -5.69720        3.75390
H         -6.33040       -3.48840        5.45780
H         -0.32140       -3.95420        7.31430
H         -4.06890       -3.05690       10.60400
H         -1.20340       -3.89190       12.27830
H         -1.50970       -1.24780       12.40730
H          0.60080       -1.91730       13.82130
H          2.58750       -2.45180       12.14030
H          1.69890       -2.12180        9.68900
H          0.32720       -0.16190       10.84680
H         -0.78600       -1.10180        9.82380
H          0.73390       -4.41590       10.61490
