
  xtb     02052220203D
 energy: -324.779227576418 gnorm: 0.000392591438 xtb: 6.4.1 (unknown)
192212  0     0  0            999 V2000
   -5.5518   -3.5506    3.0175 C   0  0  0  0  0  0  0  0  0  0  0  0
   -6.6028   -2.9948    2.3507 C   0  0  0  0  0  0  0  0  0  0  0  0
   -6.5862   -1.7508    1.5651 C   0  0  0  0  0  0  0  0  0  0  0  0
   -5.6100   -1.1228    1.1948 O   0  0  0  0  0  0  0  0  0  0  0  0
   -7.9959   -1.4017    1.3275 C   0  0  0  0  0  0  0  0  0  0  0  0
   -8.4819   -0.2591    0.6935 C   0  0  0  0  0  0  0  0  0  0  0  0
   -9.8527   -0.1913    0.6368 C   0  0  0  0  0  0  0  0  0  0  0  0
  -10.6834   -1.1831    1.1769 C   0  0  0  0  0  0  0  0  0  0  0  0
  -10.2190   -2.3156    1.8024 C   0  0  0  0  0  0  0  0  0  0  0  0
   -8.8252   -2.4096    1.8636 C   0  0  0  0  0  0  0  0  0  0  0  0
   -7.9787   -3.4572    2.4271 C   0  0  0  0  0  0  0  0  0  0  0  0
   -8.3942   -4.6878    2.8571 C   0  0  0  0  0  0  0  0  0  0  0  0
   -9.7443   -5.0959    2.8998 C   0  0  0  0  0  0  0  0  0  0  0  0
  -10.8233   -5.4828    2.9620 N   0  0  0  0  0  0  0  0  0  0  0  0
   -7.5428   -5.7480    3.2459 C   0  0  0  0  0  0  0  0  0  0  0  0
   -6.9352   -6.6809    3.5248 N   0  0  0  0  0  0  0  0  0  0  0  0
  -11.9438   -0.4642    0.7656 C   0  0  0  0  0  0  0  0  0  0  0  0
  -12.6764   -1.0151   -0.4762 C   0  0  0  0  0  0  0  0  0  0  0  0
  -13.5566    0.1328   -0.9152 C   0  0  0  0  0  0  0  0  0  0  0  0
  -12.7707    1.0703   -1.4292 C   0  0  0  0  0  0  0  0  0  0  0  0
  -11.3459    0.5718   -1.3460 C   0  0  0  0  0  0  0  0  0  0  0  0
  -11.5802   -0.9310   -1.5462 C   0  0  0  0  0  0  0  0  0  0  0  0
  -11.0181    0.6399    0.1610 C   0  0  0  0  0  0  0  0  0  0  0  0
   -4.1878   -3.1982    3.0064 C   0  0  0  0  0  0  0  0  0  0  0  0
   -3.4455   -2.0355    1.9419 S   0  0  0  0  0  0  0  0  0  0  0  0
   -1.8630   -2.4612    2.5064 C   0  0  0  0  0  0  0  0  0  0  0  0
   -1.9051   -3.4342    3.4957 C   0  0  0  0  0  0  0  0  0  0  0  0
   -0.7134   -4.0977    4.0423 C   0  0  0  0  0  0  0  0  0  0  0  0
    0.4219   -3.6913    3.8573 O   0  0  0  0  0  0  0  0  0  0  0  0
   -1.0243   -5.3351    4.7578 C   0  0  0  0  0  0  0  0  0  0  0  0
   -0.0884   -6.2560    5.1546 C   0  0  0  0  0  0  0  0  0  0  0  0
    1.3917   -6.1833    5.0528 C   0  0  0  0  0  0  0  0  0  0  0  0
    1.9693   -5.4267    6.2529 C   0  0  0  0  0  0  0  0  0  0  0  0
   -0.8429   -7.6225    5.9071 S   0  0  0  0  0  0  0  0  0  0  0  0
   -2.4310   -6.9467    5.7125 C   0  0  0  0  0  0  0  0  0  0  0  0
   -3.6252   -7.7034    6.1639 C   0  0  0  0  0  0  0  0  0  0  0  0
   -3.6794   -9.1014    5.5492 C   0  0  0  0  0  0  0  0  0  0  0  0
   -2.3641   -5.7301    5.0839 C   0  0  0  0  0  0  0  0  0  0  0  0
   -3.5225   -4.8956    4.7703 C   0  0  0  0  0  0  0  0  0  0  0  0
   -4.6205   -5.0379    5.2815 O   0  0  0  0  0  0  0  0  0  0  0  0
   -3.2220   -3.8500    3.7778 C   0  0  0  0  0  0  0  0  0  0  0  0
   -0.7237   -1.8590    1.8835 C   0  0  0  0  0  0  0  0  0  0  0  0
   -0.5212   -1.8122    0.5093 C   0  0  0  0  0  0  0  0  0  0  0  0
   -1.2674   -2.5840   -0.3700 N   0  0  0  0  0  0  0  0  0  0  0  0
   -1.6501   -2.1047   -1.6196 C   0  0  0  0  0  0  0  0  0  0  0  0
   -1.8238   -2.9861   -2.6888 C   0  0  0  0  0  0  0  0  0  0  0  0
   -2.2077   -2.5129   -3.9220 C   0  0  0  0  0  0  0  0  0  0  0  0
   -2.4293   -1.1512   -4.1197 C   0  0  0  0  0  0  0  0  0  0  0  0
   -2.9285   -0.6677   -5.7449 S   0  0  0  0  0  0  0  0  0  0  0  0
   -2.8812    1.1471   -5.6925 C   0  0  0  0  0  0  0  0  0  0  0  0
   -2.2657   -0.2731   -3.0584 C   0  0  0  0  0  0  0  0  0  0  0  0
   -1.8737   -0.7458   -1.8208 C   0  0  0  0  0  0  0  0  0  0  0  0
   -1.6312   -3.8721    0.0663 C   0  0  0  0  0  0  0  0  0  0  0  0
   -2.9355   -4.3447   -0.0804 C   0  0  0  0  0  0  0  0  0  0  0  0
   -3.3006   -5.5486    0.4828 C   0  0  0  0  0  0  0  0  0  0  0  0
   -2.3735   -6.3114    1.1902 C   0  0  0  0  0  0  0  0  0  0  0  0
   -2.9663   -7.7832    1.9595 S   0  0  0  0  0  0  0  0  0  0  0  0
   -1.4458   -8.7234    2.2947 C   0  0  0  0  0  0  0  0  0  0  0  0
   -1.0598   -5.8716    1.2868 C   0  0  0  0  0  0  0  0  0  0  0  0
   -0.6951   -4.6652    0.7251 C   0  0  0  0  0  0  0  0  0  0  0  0
    0.6451   -1.0774    0.1950 C   0  0  0  0  0  0  0  0  0  0  0  0
    1.4337   -0.5966   -1.2692 S   0  0  0  0  0  0  0  0  0  0  0  0
    2.7659    0.0658   -0.3456 C   0  0  0  0  0  0  0  0  0  0  0  0
    2.5566    0.0114    1.0274 C   0  0  0  0  0  0  0  0  0  0  0  0
    3.3783    0.5611    1.9902 N   0  0  0  0  0  0  0  0  0  0  0  0
    3.5024   -0.0965    3.2243 C   0  0  0  0  0  0  0  0  0  0  0  0
    3.5229   -1.4906    3.2828 C   0  0  0  0  0  0  0  0  0  0  0  0
    3.6092   -2.1327    4.4960 C   0  0  0  0  0  0  0  0  0  0  0  0
    3.6926   -1.3990    5.6777 C   0  0  0  0  0  0  0  0  0  0  0  0
    3.7919   -2.3316    7.1727 S   0  0  0  0  0  0  0  0  0  0  0  0
    4.0470   -1.0772    8.4601 C   0  0  0  0  0  0  0  0  0  0  0  0
    3.6955   -0.0117    5.6228 C   0  0  0  0  0  0  0  0  0  0  0  0
    3.5972    0.6327    4.4047 C   0  0  0  0  0  0  0  0  0  0  0  0
    4.1336    1.7118    1.7254 C   0  0  0  0  0  0  0  0  0  0  0  0
    5.4475    1.8176    2.1834 C   0  0  0  0  0  0  0  0  0  0  0  0
    6.2111    2.9179    1.8580 C   0  0  0  0  0  0  0  0  0  0  0  0
    5.6812    3.9364    1.0712 C   0  0  0  0  0  0  0  0  0  0  0  0
    6.7545    5.2765    0.6468 S   0  0  0  0  0  0  0  0  0  0  0  0
    5.5921    6.6372    0.3398 C   0  0  0  0  0  0  0  0  0  0  0  0
    4.3646    3.8504    0.6357 C   0  0  0  0  0  0  0  0  0  0  0  0
    3.5989    2.7519    0.9667 C   0  0  0  0  0  0  0  0  0  0  0  0
    1.3331   -0.6415    1.3210 C   0  0  0  0  0  0  0  0  0  0  0  0
    0.5479   -1.0870    2.7921 S   0  0  0  0  0  0  0  0  0  0  0  0
    3.9298    0.5920   -1.0044 C   0  0  0  0  0  0  0  0  0  0  0  0
    5.2062    0.3455   -0.5109 C   0  0  0  0  0  0  0  0  0  0  0  0
    5.3769   -0.5711    0.4615 F   0  0  0  0  0  0  0  0  0  0  0  0
    6.3228    1.0315   -0.9767 C   0  0  0  0  0  0  0  0  0  0  0  0
    7.5018    0.8152   -0.3729 F   0  0  0  0  0  0  0  0  0  0  0  0
    6.2356    1.9806   -1.9881 C   0  0  0  0  0  0  0  0  0  0  0  0
    4.9818    2.0914   -2.6538 C   0  0  0  0  0  0  0  0  0  0  0  0
    4.8932    2.7705   -3.8056 N   0  0  0  0  0  0  0  0  0  0  0  0
    3.7223    2.9729   -4.3455 C   0  0  0  0  0  0  0  0  0  0  0  0
    3.6679    3.6828   -5.6638 C   0  0  0  0  0  0  0  0  0  0  0  0
    5.0439    4.1135   -6.1538 C   0  0  0  0  0  0  0  0  0  0  0  0
    2.5385    2.5149   -3.6896 C   0  0  0  0  0  0  0  0  0  0  0  0
    2.6244    1.7257   -2.6522 N   0  0  0  0  0  0  0  0  0  0  0  0
    3.8317    1.4485   -2.1330 C   0  0  0  0  0  0  0  0  0  0  0  0
    1.1730    2.8914   -4.1756 C   0  0  0  0  0  0  0  0  0  0  0  0
    0.0776    2.4486   -3.2159 C   0  0  0  0  0  0  0  0  0  0  0  0
    7.3779    2.7567   -2.3606 C   0  0  0  0  0  0  0  0  0  0  0  0
    7.3546    4.0410   -2.8014 C   0  0  0  0  0  0  0  0  0  0  0  0
    6.2286    4.9994   -2.6695 C   0  0  0  0  0  0  0  0  0  0  0  0
    5.1118    4.8125   -2.2267 O   0  0  0  0  0  0  0  0  0  0  0  0
    6.7693    6.3095   -3.0800 C   0  0  0  0  0  0  0  0  0  0  0  0
    6.0807    7.5209   -3.1164 C   0  0  0  0  0  0  0  0  0  0  0  0
    6.8480    8.5936   -3.4991 C   0  0  0  0  0  0  0  0  0  0  0  0
    8.2100    8.4766   -3.8084 C   0  0  0  0  0  0  0  0  0  0  0  0
    8.9014    7.2898   -3.7804 C   0  0  0  0  0  0  0  0  0  0  0  0
    8.1325    6.1817   -3.4112 C   0  0  0  0  0  0  0  0  0  0  0  0
    8.5046    4.7763   -3.3038 C   0  0  0  0  0  0  0  0  0  0  0  0
    9.6920    4.2318   -3.7118 C   0  0  0  0  0  0  0  0  0  0  0  0
    9.9948    2.8524   -3.7261 C   0  0  0  0  0  0  0  0  0  0  0  0
   10.3175    1.7534   -3.8045 N   0  0  0  0  0  0  0  0  0  0  0  0
   10.7728    4.9740   -4.2335 C   0  0  0  0  0  0  0  0  0  0  0  0
   11.6883    5.5149   -4.6666 N   0  0  0  0  0  0  0  0  0  0  0  0
    8.3500    9.9484   -4.1068 C   0  0  0  0  0  0  0  0  0  0  0  0
    8.4113   10.3765   -5.5938 C   0  0  0  0  0  0  0  0  0  0  0  0
    7.6793    9.3135   -6.3748 C   0  0  0  0  0  0  0  0  0  0  0  0
    6.3882    9.4199   -6.0907 C   0  0  0  0  0  0  0  0  0  0  0  0
    6.2238   10.5570   -5.1126 C   0  0  0  0  0  0  0  0  0  0  0  0
    7.3500   11.4883   -5.5885 C   0  0  0  0  0  0  0  0  0  0  0  0
    6.8306   10.0769   -3.7706 C   0  0  0  0  0  0  0  0  0  0  0  0
   -5.7708   -4.3755    3.6864 H   0  0  0  0  0  0  0  0  0  0  0  0
   -7.8071    0.4846    0.2995 H   0  0  0  0  0  0  0  0  0  0  0  0
  -10.8694   -3.0651    2.2214 H   0  0  0  0  0  0  0  0  0  0  0  0
  -12.6203   -0.1927    1.5735 H   0  0  0  0  0  0  0  0  0  0  0  0
  -13.1612   -1.9762   -0.3290 H   0  0  0  0  0  0  0  0  0  0  0  0
  -14.6191    0.1669   -0.7614 H   0  0  0  0  0  0  0  0  0  0  0  0
  -13.0456    2.0439   -1.7903 H   0  0  0  0  0  0  0  0  0  0  0  0
  -10.6193    1.0565   -1.9926 H   0  0  0  0  0  0  0  0  0  0  0  0
  -10.7082   -1.5483   -1.3383 H   0  0  0  0  0  0  0  0  0  0  0  0
  -11.9586   -1.1593   -2.5412 H   0  0  0  0  0  0  0  0  0  0  0  0
  -11.0782    1.6490    0.5646 H   0  0  0  0  0  0  0  0  0  0  0  0
    1.8091   -7.1922    5.0182 H   0  0  0  0  0  0  0  0  0  0  0  0
    1.6582   -5.6462    4.1403 H   0  0  0  0  0  0  0  0  0  0  0  0
    1.6097   -4.4015    6.2533 H   0  0  0  0  0  0  0  0  0  0  0  0
    3.0541   -5.4092    6.1988 H   0  0  0  0  0  0  0  0  0  0  0  0
    1.6758   -5.9054    7.1845 H   0  0  0  0  0  0  0  0  0  0  0  0
   -4.5172   -7.1406    5.8863 H   0  0  0  0  0  0  0  0  0  0  0  0
   -3.6016   -7.7875    7.2548 H   0  0  0  0  0  0  0  0  0  0  0  0
   -3.7553   -9.0286    4.4671 H   0  0  0  0  0  0  0  0  0  0  0  0
   -4.5525   -9.6315    5.9187 H   0  0  0  0  0  0  0  0  0  0  0  0
   -2.7887   -9.6728    5.8063 H   0  0  0  0  0  0  0  0  0  0  0  0
   -1.6485   -4.0415   -2.5447 H   0  0  0  0  0  0  0  0  0  0  0  0
   -2.3372   -3.1919   -4.7508 H   0  0  0  0  0  0  0  0  0  0  0  0
   -3.6425    1.5235   -5.0152 H   0  0  0  0  0  0  0  0  0  0  0  0
   -1.8899    1.4776   -5.3984 H   0  0  0  0  0  0  0  0  0  0  0  0
   -3.0973    1.4744   -6.7049 H   0  0  0  0  0  0  0  0  0  0  0  0
   -2.4565    0.7809   -3.1730 H   0  0  0  0  0  0  0  0  0  0  0  0
   -1.7628   -0.0575   -0.9967 H   0  0  0  0  0  0  0  0  0  0  0  0
   -3.6614   -3.7493   -0.6136 H   0  0  0  0  0  0  0  0  0  0  0  0
   -4.3165   -5.9040    0.4004 H   0  0  0  0  0  0  0  0  0  0  0  0
   -0.8562   -8.7950    1.3860 H   0  0  0  0  0  0  0  0  0  0  0  0
   -0.8783   -8.2602    3.0963 H   0  0  0  0  0  0  0  0  0  0  0  0
   -1.7732   -9.7113    2.6032 H   0  0  0  0  0  0  0  0  0  0  0  0
   -0.3146   -6.4507    1.8078 H   0  0  0  0  0  0  0  0  0  0  0  0
    0.3221   -4.3180    0.8269 H   0  0  0  0  0  0  0  0  0  0  0  0
    3.4846   -2.0645    2.3701 H   0  0  0  0  0  0  0  0  0  0  0  0
    3.6140   -3.2097    4.5424 H   0  0  0  0  0  0  0  0  0  0  0  0
    4.9469   -0.5073    8.2485 H   0  0  0  0  0  0  0  0  0  0  0  0
    3.1766   -0.4313    8.5313 H   0  0  0  0  0  0  0  0  0  0  0  0
    4.1701   -1.6305    9.3859 H   0  0  0  0  0  0  0  0  0  0  0  0
    3.7616    0.5830    6.5196 H   0  0  0  0  0  0  0  0  0  0  0  0
    3.5881    1.7122    4.3681 H   0  0  0  0  0  0  0  0  0  0  0  0
    5.8720    1.0181    2.7713 H   0  0  0  0  0  0  0  0  0  0  0  0
    7.2340    2.9878    2.1937 H   0  0  0  0  0  0  0  0  0  0  0  0
    6.2014    7.5254    0.2044 H   0  0  0  0  0  0  0  0  0  0  0  0
    4.9409    6.7530    1.2008 H   0  0  0  0  0  0  0  0  0  0  0  0
    5.0216    6.4362   -0.5612 H   0  0  0  0  0  0  0  0  0  0  0  0
    3.9340    4.6213    0.0197 H   0  0  0  0  0  0  0  0  0  0  0  0
    2.5786    2.6893    0.6182 H   0  0  0  0  0  0  0  0  0  0  0  0
    3.1987    3.0186   -6.3964 H   0  0  0  0  0  0  0  0  0  0  0  0
    3.0200    4.5584   -5.5626 H   0  0  0  0  0  0  0  0  0  0  0  0
    5.7000    3.2523   -6.2411 H   0  0  0  0  0  0  0  0  0  0  0  0
    4.9634    4.5985   -7.1236 H   0  0  0  0  0  0  0  0  0  0  0  0
    5.4917    4.8089   -5.4485 H   0  0  0  0  0  0  0  0  0  0  0  0
    1.1402    3.9768   -4.3073 H   0  0  0  0  0  0  0  0  0  0  0  0
    1.0158    2.4428   -5.1618 H   0  0  0  0  0  0  0  0  0  0  0  0
   -0.8900    2.8061   -3.5616 H   0  0  0  0  0  0  0  0  0  0  0  0
    0.2641    2.8544   -2.2254 H   0  0  0  0  0  0  0  0  0  0  0  0
    0.0595    1.3655   -3.1370 H   0  0  0  0  0  0  0  0  0  0  0  0
    8.3342    2.2643   -2.2340 H   0  0  0  0  0  0  0  0  0  0  0  0
    5.0316    7.5744   -2.8679 H   0  0  0  0  0  0  0  0  0  0  0  0
    9.9497    7.2159   -4.0160 H   0  0  0  0  0  0  0  0  0  0  0  0
    9.0571   10.4959   -3.4871 H   0  0  0  0  0  0  0  0  0  0  0  0
    9.4053   10.6338   -5.9488 H   0  0  0  0  0  0  0  0  0  0  0  0
    8.1671    8.5796   -6.9891 H   0  0  0  0  0  0  0  0  0  0  0  0
    5.5812    8.7919   -6.4207 H   0  0  0  0  0  0  0  0  0  0  0  0
    5.2257   10.9801   -5.0310 H   0  0  0  0  0  0  0  0  0  0  0  0
    7.1658   11.8994   -6.5799 H   0  0  0  0  0  0  0  0  0  0  0  0
    7.5700   12.2952   -4.8907 H   0  0  0  0  0  0  0  0  0  0  0  0
    6.5446   10.7137   -2.9354 H   0  0  0  0  0  0  0  0  0  0  0  0
  1  2  2  0  0  0  0
  2  3  1  0  0  0  0
  3  4  2  0  0  0  0
  3  5  1  0  0  0  0
  5  6  2  0  0  0  0
  6  7  1  0  0  0  0
  7  8  2  0  0  0  0
  8  9  1  0  0  0  0
  9 10  2  0  0  0  0
 10 11  1  0  0  0  0
 11 12  2  0  0  0  0
 12 13  1  0  0  0  0
 13 14  3  0  0  0  0
 12 15  1  0  0  0  0
 15 16  3  0  0  0  0
  8 17  1  0  0  0  0
 17 18  1  0  0  0  0
 18 19  1  0  0  0  0
 19 20  2  0  0  0  0
 20 21  1  0  0  0  0
 21 22  1  0  0  0  0
 21 23  1  0  0  0  0
  1 24  1  0  0  0  0
 24 25  1  0  0  0  0
 25 26  1  0  0  0  0
 26 27  2  0  0  0  0
 27 28  1  0  0  0  0
 28 29  2  0  0  0  0
 28 30  1  0  0  0  0
 30 31  2  0  0  0  0
 31 32  1  0  0  0  0
 32 33  1  0  0  0  0
 31 34  1  0  0  0  0
 34 35  1  0  0  0  0
 35 36  1  0  0  0  0
 36 37  1  0  0  0  0
 35 38  2  0  0  0  0
 38 39  1  0  0  0  0
 39 40  2  0  0  0  0
 39 41  1  0  0  0  0
 26 42  1  0  0  0  0
 42 43  2  0  0  0  0
 43 44  1  0  0  0  0
 44 45  1  0  0  0  0
 45 46  2  0  0  0  0
 46 47  1  0  0  0  0
 47 48  2  0  0  0  0
 48 49  1  0  0  0  0
 49 50  1  0  0  0  0
 48 51  1  0  0  0  0
 51 52  2  0  0  0  0
 44 53  1  0  0  0  0
 53 54  2  0  0  0  0
 54 55  1  0  0  0  0
 55 56  2  0  0  0  0
 56 57  1  0  0  0  0
 57 58  1  0  0  0  0
 56 59  1  0  0  0  0
 59 60  2  0  0  0  0
 43 61  1  0  0  0  0
 61 62  1  0  0  0  0
 62 63  1  0  0  0  0
 63 64  2  0  0  0  0
 64 65  1  0  0  0  0
 65 66  1  0  0  0  0
 66 67  2  0  0  0  0
 67 68  1  0  0  0  0
 68 69  2  0  0  0  0
 69 70  1  0  0  0  0
 70 71  1  0  0  0  0
 69 72  1  0  0  0  0
 72 73  2  0  0  0  0
 65 74  1  0  0  0  0
 74 75  2  0  0  0  0
 75 76  1  0  0  0  0
 76 77  2  0  0  0  0
 77 78  1  0  0  0  0
 78 79  1  0  0  0  0
 77 80  1  0  0  0  0
 80 81  2  0  0  0  0
 64 82  1  0  0  0  0
 82 83  1  0  0  0  0
 63 84  1  0  0  0  0
 84 85  2  0  0  0  0
 85 86  1  0  0  0  0
 85 87  1  0  0  0  0
 87 88  1  0  0  0  0
 87 89  2  0  0  0  0
 89 90  1  0  0  0  0
 90 91  2  0  0  0  0
 91 92  1  0  0  0  0
 92 93  1  0  0  0  0
 93 94  1  0  0  0  0
 92 95  2  0  0  0  0
 95 96  1  0  0  0  0
 96 97  2  0  0  0  0
 95 98  1  0  0  0  0
 98 99  1  0  0  0  0
 89100  1  0  0  0  0
100101  2  0  0  0  0
101102  1  0  0  0  0
102103  2  0  0  0  0
102104  1  0  0  0  0
104105  2  0  0  0  0
105106  1  0  0  0  0
106107  2  0  0  0  0
107108  1  0  0  0  0
108109  2  0  0  0  0
109110  1  0  0  0  0
110111  2  0  0  0  0
111112  1  0  0  0  0
112113  3  0  0  0  0
111114  1  0  0  0  0
114115  3  0  0  0  0
107116  1  0  0  0  0
116117  1  0  0  0  0
117118  1  0  0  0  0
118119  2  0  0  0  0
119120  1  0  0  0  0
120121  1  0  0  0  0
120122  1  0  0  0  0
 11  2  1  0  0  0  0
 23 17  1  0  0  0  0
 41 24  2  0  0  0  0
 83 42  1  0  0  0  0
 97 84  1  0  0  0  0
110101  1  0  0  0  0
122116  1  0  0  0  0
 10  5  1  0  0  0  0
 22 18  1  0  0  0  0
 41 27  1  0  0  0  0
 52 45  1  0  0  0  0
 60 53  1  0  0  0  0
 82 61  2  0  0  0  0
 97 90  1  0  0  0  0
109104  1  0  0  0  0
121117  1  0  0  0  0
 23  7  1  0  0  0  0
 38 30  1  0  0  0  0
 73 66  1  0  0  0  0
 81 74  1  0  0  0  0
122106  1  0  0  0  0
  1123  1  0  0  0  0
  6124  1  0  0  0  0
  9125  1  0  0  0  0
 17126  1  0  0  0  0
 18127  1  0  0  0  0
 19128  1  0  0  0  0
 20129  1  0  0  0  0
 21130  1  0  0  0  0
 22131  1  0  0  0  0
 22132  1  0  0  0  0
 23133  1  0  0  0  0
 32134  1  0  0  0  0
 32135  1  0  0  0  0
 33136  1  0  0  0  0
 33137  1  0  0  0  0
 33138  1  0  0  0  0
 36139  1  0  0  0  0
 36140  1  0  0  0  0
 37141  1  0  0  0  0
 37142  1  0  0  0  0
 37143  1  0  0  0  0
 46144  1  0  0  0  0
 47145  1  0  0  0  0
 50146  1  0  0  0  0
 50147  1  0  0  0  0
 50148  1  0  0  0  0
 51149  1  0  0  0  0
 52150  1  0  0  0  0
 54151  1  0  0  0  0
 55152  1  0  0  0  0
 58153  1  0  0  0  0
 58154  1  0  0  0  0
 58155  1  0  0  0  0
 59156  1  0  0  0  0
 60157  1  0  0  0  0
 67158  1  0  0  0  0
 68159  1  0  0  0  0
 71160  1  0  0  0  0
 71161  1  0  0  0  0
 71162  1  0  0  0  0
 72163  1  0  0  0  0
 73164  1  0  0  0  0
 75165  1  0  0  0  0
 76166  1  0  0  0  0
 79167  1  0  0  0  0
 79168  1  0  0  0  0
 79169  1  0  0  0  0
 80170  1  0  0  0  0
 81171  1  0  0  0  0
 93172  1  0  0  0  0
 93173  1  0  0  0  0
 94174  1  0  0  0  0
 94175  1  0  0  0  0
 94176  1  0  0  0  0
 98177  1  0  0  0  0
 98178  1  0  0  0  0
 99179  1  0  0  0  0
 99180  1  0  0  0  0
 99181  1  0  0  0  0
100182  1  0  0  0  0
105183  1  0  0  0  0
108184  1  0  0  0  0
116185  1  0  0  0  0
117186  1  0  0  0  0
118187  1  0  0  0  0
119188  1  0  0  0  0
120189  1  0  0  0  0
121190  1  0  0  0  0
121191  1  0  0  0  0
122192  1  0  0  0  0
M  END
