182

C          1.33610       -7.06450        4.32680
C          1.62010       -6.93620        5.66070
C          1.14390       -7.95190        6.62430
O          0.72980       -9.06540        6.37080
C          1.18960       -7.28080        7.94200
C          0.68650       -7.75240        9.15250
C          0.82820       -6.87260       10.20030
C          1.42910       -5.61470       10.06200
C          1.93940       -5.13730        8.87790
C          1.79710       -6.01430        7.80100
C          2.19460       -5.84560        6.40730
C          3.12950       -4.95590        5.93490
C          3.70570       -3.92470        6.69720
N          4.19180       -3.05020        7.26170
C          3.63850       -5.02380        4.62330
N          4.09420       -5.08520        3.56970
C          1.21370       -5.26120       11.51210
C          2.44520       -5.35910       12.43620
C          1.85130       -5.43480       13.82410
C          1.28840       -6.62890       13.95780
C          1.49170       -7.38030       12.66170
C          2.85960       -6.82410       12.24590
C          0.54900       -6.66710       11.66960
C          1.18010       -6.01240        3.40890
C          1.19060       -6.01370        2.00630
N          1.47750       -7.07250        1.18390
C          1.08890       -8.37910        1.48840
C         -0.13220       -8.61780        2.11850
C         -0.48300       -9.89290        2.51110
C          0.37970      -10.95510        2.26940
S          0.03980      -12.59600        2.81940
C         -0.94610      -12.29420        4.31740
C          1.56250      -10.73260        1.56780
C          1.91780       -9.45880        1.18260
C          2.24420       -6.80730        0.03120
C          3.36470       -5.98620        0.12660
C          4.09740       -5.67450       -1.00030
C          3.72500       -6.19290       -2.23310
S          4.57730       -5.81980       -3.73750
C          6.22020       -5.29210       -3.16400
C          2.61800       -7.03260       -2.32600
C          1.88070       -7.33950       -1.20280
C          0.96370       -4.70980        1.49800
S          0.86140       -4.04390       -0.09270
C          0.51830       -2.45750        0.57300
C          0.56750       -2.42840        1.96080
N          0.54470       -1.32050        2.78260
C          0.96580       -0.04730        2.37620
C          0.34250        1.07680        2.92190
C          0.66090        2.33600        2.47080
C          1.60880        2.50810        1.46300
S          1.87970        4.16390        0.91660
C          2.87350        3.96530       -0.58830
C          2.28040        1.40020        0.96690
C          1.96790        0.13490        1.42880
C          0.24430       -1.53180        4.14510
C         -0.93860       -2.16820        4.50920
C         -1.17530       -2.50200        5.82950
C         -0.22200       -2.21370        6.79580
S         -0.38920       -2.71420        8.48320
C         -1.45430       -4.18110        8.35270
C          0.92530       -1.50450        6.44670
C          1.15440       -1.15900        5.13340
C          0.76580       -3.73890        2.46420
S          0.82900       -4.40470        4.05020
C          0.33800       -1.37430       -0.35930
C          1.13400       -1.30690       -1.52180
N          2.04940       -2.16030       -1.99980
N          2.46580       -1.59830       -3.09970
C          3.48000       -2.20460       -3.91340
C          4.84960       -1.62340       -3.57630
N          1.94060       -0.44610       -3.40680
C          1.06780       -0.20190       -2.41630
C          0.20610        0.89340       -2.19120
C         -0.59500        0.78520       -1.06720
C         -0.56610       -0.33510       -0.20740
Cl        -1.74040       -0.42740        1.04810
Cl        -1.62560        2.09090       -0.59900
C          0.21030        2.02960       -3.11670
C         -0.97940        2.60930       -3.53650
C         -0.91730        3.67790       -4.41720
N         -1.93680        4.41300       -4.96130
C         -3.34320        4.21120       -4.72860
C         -3.93580        3.20260       -5.71100
C         -1.39350        5.35700       -5.79670
C          0.02210        5.24540       -5.77720
C          0.32700        4.16710       -4.89380
C          1.50950        3.56030       -4.48120
C          1.44120        2.50050       -3.60760
C          0.78960        6.10830       -6.55780
C          0.15090        7.04910       -7.32580
C         -1.26010        7.17730       -7.33730
C         -2.03610        6.30130       -6.57340
C         -1.80740        8.19130       -8.18970
C         -3.03570        8.77660       -8.26640
C         -4.18800        8.70760       -7.33080
O         -4.40350        7.92030       -6.43180
C         -5.06750        9.83450       -7.69270
C         -6.22750       10.22480       -7.02640
C         -6.84620       11.32040       -7.57680
C         -6.34880       11.98130       -8.70900
C         -5.21120       11.60210       -9.37960
C         -4.56590       10.48740       -8.83470
C         -3.35490        9.79750       -9.26110
C         -2.69470       10.01570      -10.44060
C         -1.59170        9.27560      -10.92040
N         -0.71220        8.71940      -11.40700
C         -3.06100       10.99510      -11.38850
N         -3.29610       11.77020      -12.20210
C         -7.45840       13.00220       -8.69840
C         -7.13280       14.41500       -8.15370
C         -5.99390       14.24760       -7.17860
C         -6.46550       13.62180       -6.10850
C         -7.93220       13.35480       -6.34060
C         -8.30390       14.59170       -7.17400
C         -8.01340       12.26540       -7.43880
H          1.10080       -8.06930        3.99670
H          0.22710       -8.72620        9.22240
H          2.38450       -4.16200        8.77440
H          0.61200       -4.37300       11.69620
H          3.20120       -4.59760       12.26710
H          1.85290       -4.61880       14.52280
H          0.72590       -7.00980       14.79010
H          1.38030       -8.46080       12.70010
H          3.14960       -7.07400       11.22710
H          3.65020       -7.12110       12.93300
H         -0.49730       -6.71930       11.96710
H         -0.80150       -7.79170        2.31040
H         -1.42600      -10.04970        3.00910
H         -0.91200      -13.21820        4.88590
H         -0.49340      -11.48760        4.88690
H         -1.97540      -12.06490        4.05610
H          2.21300      -11.56730        1.35780
H          2.85380       -9.28550        0.67370
H          3.66030       -5.59320        1.08830
H          4.95400       -5.02800       -0.90290
H          6.84170       -5.24740       -4.05280
H          6.16740       -4.31080       -2.70280
H          6.61420       -6.03040       -2.47240
H          2.33900       -7.43270       -3.28850
H          1.01870       -7.98540       -1.27480
H         -0.41420        0.94780        3.68120
H          0.16180        3.20330        2.87470
H          2.94820        4.95730       -1.02270
H          3.86510        3.59770       -0.34000
H          2.36000        3.30080       -1.27700
H          3.05090        1.50470        0.21970
H          2.50980       -0.71720        1.04700
H         -1.66380       -2.41720        3.74840
H         -2.09570       -2.99980        6.08960
H         -2.49260       -3.88890        8.22520
H         -1.33670       -4.72150        9.28690
H         -1.11450       -4.79710        7.52540
H          1.64960       -1.26080        7.20820
H          2.05830       -0.63740        4.85670
H          3.23300       -2.00580       -4.95790
H          3.45420       -3.27870       -3.71980
H          5.60960       -2.09470       -4.19290
H          4.85980       -0.55290       -3.76710
H          5.08500       -1.79460       -2.52830
H         -1.92610        2.21270       -3.20840
H         -3.85000        5.17420       -4.82880
H         -3.47590        3.85970       -3.70190
H         -3.43270        2.24250       -5.61930
H         -4.99450        3.06400       -5.50960
H         -3.81860        3.55780       -6.73210
H          2.46170        3.91410       -4.84620
H          2.34620        2.00550       -3.29260
H          1.86610        6.02990       -6.56080
H          0.73410        7.72070       -7.93850
H         -3.10870        6.36500       -6.59790
H         -1.07180        8.58730       -8.88190
H         -6.57420        9.68740       -6.15750
H         -4.83990       12.12280      -10.24640
H         -8.08430       13.03490       -9.58790
H         -7.00100       15.17440       -8.91970
H         -4.98120       14.54120       -7.38450
H         -5.92550       13.28780       -5.24190
H         -8.52880       13.14950       -5.45570
H         -8.24050       15.51760       -6.60440
H         -9.28150       14.51770       -7.64850
H         -9.00240       11.81630       -7.50570
