219

C          5.14010        4.58600        4.83800
C          5.01600        5.30900        5.99800
C          3.94510        5.19190        6.99310
O          3.11480        4.30310        7.09280
C          4.05540        6.38820        7.85130
C          3.22790        6.75270        8.91020
C          3.57640        7.93610        9.51660
C          4.67040        8.70620        9.10360
C          5.49610        8.36020        8.06010
C          5.15680        7.16130        7.42910
C          5.79600        6.48550        6.30350
C          6.92540        6.91880        5.65260
C          7.57280        8.14750        5.88770
N          8.14670        9.13900        5.97750
C          7.62180        6.21020        4.65530
N          8.27710        5.70580        3.85560
C          4.43350        9.75520       10.16070
C          5.35140        9.74390       11.40790
C          5.82680        8.32230       11.57790
C          4.79060        7.59270       11.96920
C          3.59560        8.50810       12.07110
C          4.28640        9.80750       12.51450
C          3.21350        8.89650       10.62140
C          4.36710        3.54520        4.31840
C          4.43770        3.14070        2.96550
N          5.11320        3.79760        1.96780
C          5.60010        3.05210        0.88070
C          5.46540        3.52290       -0.42130
C          5.92600        2.77790       -1.48920
C          6.52950        1.54570       -1.27070
S          7.14870        0.50210       -2.54640
C          6.68230        1.35490       -4.07970
C          6.68280        1.08090        0.03510
C          6.22750        1.82450        1.09880
C          5.26030        5.19580        1.96630
C          4.22900        6.01890        2.42660
C          4.42610        7.37580        2.53250
C          5.64530        7.94540        2.16160
S          5.82550        9.67960        2.42580
C          7.61880        9.93760        2.32930
C          6.63530        7.14020        1.61580
C          6.44640        5.77430        1.52560
C          3.64280        2.00540        2.74070
S          3.28330        1.07970        1.32290
C          2.09190        0.16160        2.22760
C          2.11230        0.44580        3.59410
N          1.50420       -0.32120        4.55700
C          1.35110       -1.70700        4.39040
C          2.29900       -2.46080        3.69670
C          2.12050       -3.81460        3.52670
C          0.99850       -4.45550        4.05130
S          0.87680       -6.18920        3.75280
C         -0.66530       -6.67120        4.58020
C          0.06420       -3.71330        4.76150
C          0.24090       -2.35380        4.92680
C          1.12320        0.28430        5.76340
C          0.52640        1.54220        5.74760
C          0.21840        2.18190        6.93040
C          0.50160        1.56850        8.14330
S          0.19140        2.35190        9.69250
C          0.43600        4.10100        9.26210
C          1.04530        0.28710        8.16140
C          1.35860       -0.35030        6.98220
C          2.96180        1.55260        3.86480
S          3.24440        2.55480        5.24630
C          1.18160       -0.63160        1.47090
C         -0.14510       -0.87740        1.79850
F         -0.64970       -0.43380        2.96440
C         -1.06830       -1.44410        0.90690
F         -2.32240       -1.62010        1.36430
C         -0.78230       -1.76700       -0.41120
C          0.58960       -1.66120       -0.74600
C          1.54100       -1.08820        0.17260
N          2.70280       -1.04930       -0.44190
O          2.50200       -1.55840       -1.65720
N          1.23350       -1.92490       -1.86350
C         -1.79360       -1.99930       -1.40200
C         -2.98470       -1.29330       -1.53720
N         -3.36670       -0.19790       -0.78440
C         -4.73160       -0.00320       -0.52510
C         -5.28040        1.27920       -0.53710
C         -6.62510        1.45670       -0.30710
C         -7.45440        0.36150       -0.06710
S         -9.16130        0.71490        0.20320
C         -9.94330       -0.92280        0.25050
C         -6.90900       -0.91450       -0.04180
C         -5.55790       -1.09230       -0.26570
C         -2.42090        0.71460       -0.29920
C         -2.57550        1.28220        0.96720
C         -1.61540        2.12930        1.47430
C         -0.47260        2.42780        0.73610
S          0.72450        3.47760        1.50240
C          1.74490        4.04680        0.11260
C         -0.32170        1.88340       -0.53310
C         -1.29310        1.04790       -1.04850
C         -3.72070       -1.77570       -2.64570
S         -5.21230       -1.30950       -3.37090
C         -4.99810       -2.51750       -4.65020
C         -3.76080       -3.18580       -4.54070
N         -3.18100       -4.03190       -5.44260
C         -2.20970       -4.94190       -4.96030
C         -0.95180       -4.99270       -5.54790
C          0.00940       -5.85920       -5.06480
C         -0.28230       -6.68770       -3.98840
S          0.86410       -7.82010       -3.27730
C          2.43250       -7.43670       -4.10720
C         -1.55580       -6.65680       -3.41950
C         -2.51290       -5.79140       -3.89820
C         -3.46180       -4.05560       -6.80970
C         -3.42110       -5.27460       -7.49460
C         -3.74790       -5.33700       -8.82810
C         -4.12870       -4.18790       -9.52190
S         -4.62700       -4.41490      -11.19430
C         -5.00150       -2.74300      -11.78790
C         -4.10820       -2.96420       -8.86350
C         -3.77770       -2.90090       -7.52350
C         -3.08120       -2.77430       -3.36610
S         -1.53140       -3.15660       -2.68630
C         -6.02650       -2.59860       -5.59160
C         -6.28470       -3.66030       -6.43110
C         -5.94300       -5.06050       -6.13250
O         -5.40490       -5.48720       -5.12660
C         -6.51630       -5.85650       -7.23870
C         -6.42010       -7.23200       -7.42600
C         -7.02810       -7.68530       -8.57320
C         -7.71190       -6.83940       -9.45470
C         -7.82330       -5.48100       -9.27700
C         -7.18750       -4.99790       -8.13120
C         -7.03710       -3.62660       -7.65360
C         -7.38030       -2.49030       -8.34680
C         -8.02860       -2.47710       -9.59470
N         -8.53180       -2.38300      -10.62400
C         -7.02990       -1.18610       -7.94570
N         -6.72990       -0.10070       -7.71610
C         -8.08070       -7.96990      -10.38350
C         -7.27070       -8.07680      -11.69210
C         -7.49170       -9.50260      -12.14190
C         -6.82110      -10.29480      -11.31530
C         -6.13820       -9.41730      -10.29080
C         -5.83820       -8.18660      -11.15630
C         -7.30080       -8.91070       -9.40990
H          5.93380        4.90610        4.17520
H          2.39150        6.13900        9.20350
H          6.33310        8.96280        7.74880
H          4.24010       10.76240        9.79690
H          6.12120       10.51090       11.40850
H          6.82300        7.99270       11.34760
H          4.74800        6.53150       12.13090
H          2.76670        8.15030       12.67650
H          3.64420       10.68480       12.44870
H          4.71280        9.73790       13.51400
H          2.22330        9.34420       10.55880
H          4.99260        4.47810       -0.59800
H          5.80220        3.16930       -2.48600
H          7.01380        0.70720       -4.88530
H          7.19090        2.31240       -4.14620
H          5.60370        1.47310       -4.12250
H          7.16660        0.13100        0.19970
H          6.36030        1.46630        2.10840
H          3.29000        5.58280        2.73520
H          3.64310        8.01370        2.91270
H          7.95900        9.84980        1.30150
H          8.12410        9.22840        2.97820
H          7.78770       10.94780        2.68850
H          7.57280        7.55680        1.28730
H          7.23760        5.14830        1.14410
H          3.18090       -1.98570        3.29430
H          2.85340       -4.39620        2.98900
H         -1.50630       -6.14950        4.13310
H         -0.76320       -7.73920        4.41250
H         -0.59440       -6.47040        5.64530
H         -0.81300       -4.17600        5.18350
H         -0.50010       -1.77900        5.46070
H          0.30000        2.01170        4.80180
H         -0.24060        3.15630        6.89750
H          0.65820        4.60880       10.19620
H         -0.46890        4.51680        8.82700
H          1.27330        4.16730        8.57210
H          1.24290       -0.18840        9.10960
H          1.81170       -1.33040        6.99730
H         -4.64710        2.13030       -0.73750
H         -7.05530        2.44610       -0.32240
H         -9.61180       -1.47220        1.12700
H        -11.01040       -0.73500        0.31750
H         -9.71940       -1.46320       -0.66440
H         -7.51970       -1.77950        0.15900
H         -5.13520       -2.08510       -0.22660
H         -3.44290        1.03280        1.55860
H         -1.73260        2.55290        2.45950
H          2.35020        4.85940        0.50310
H          1.10000        4.41470       -0.67960
H          2.38950        3.24400       -0.23680
H          0.54990        2.10120       -1.13000
H         -1.16770        0.63760       -2.03990
H         -0.72410       -4.34410       -6.38110
H          0.97990       -5.87280       -5.53280
H          2.67390       -6.38720       -3.96810
H          2.37380       -7.69580       -5.16040
H          3.17910       -8.05540       -3.61890
H         -1.77890       -7.32100       -2.59900
H         -3.50650       -5.77160       -3.47920
H         -3.15860       -6.17410       -6.95960
H         -3.73280       -6.28310       -9.34680
H         -5.26740       -2.86140      -12.83370
H         -5.84610       -2.33050      -11.24420
H         -4.12190       -2.11220      -11.69980
H         -4.36190       -2.05000       -9.37620
H         -3.77020       -1.94070       -7.03000
H         -6.68230       -1.73680       -5.63470
H         -5.89530       -7.85370       -6.71730
H         -8.35700       -4.84010       -9.95910
H         -9.14660       -8.13900      -10.52470
H         -7.47300       -7.29460      -12.41810
H         -8.13590       -9.78340      -12.95450
H         -6.79430      -11.36880      -11.29870
H         -5.31050       -9.85970       -9.74240
H         -5.51390       -7.31070      -10.59850
H         -5.11870       -8.40130      -11.94450
H         -7.84140       -9.71650       -8.91620
