271

C         -3.50840        0.87630        8.66440
C         -4.55640        0.16010        9.18850
C         -5.36350       -0.84280        8.48750
O         -5.14110       -1.35100        7.40160
C         -6.52160       -1.11790        9.35690
C         -7.58500       -1.97870        9.09560
C         -8.53060       -2.01820       10.09250
C         -8.42860       -1.25560       11.26300
C         -7.38410       -0.40320       11.53420
C         -6.40970       -0.35040       10.53390
C         -5.16390        0.41150       10.47460
C         -4.66840        1.20590       11.47980
C         -3.39260        1.79930       11.49610
N         -2.35970        2.28990       11.62150
C         -5.35220        1.52090       12.67050
N         -5.84380        1.85500       13.65380
C         -9.72250       -1.79290       11.82210
C         -9.60370       -2.86800       12.92290
C        -10.96070       -3.53410       12.92610
C        -11.05760       -4.25740       11.81790
C         -9.76760       -4.09240       11.04730
C         -8.78020       -3.95030       12.21280
C         -9.83600       -2.64450       10.51700
C         -2.91210        0.82280        7.40240
C         -1.94910        1.75920        6.95870
N         -1.54610        2.89060        7.62250
C         -2.43180        3.66670        8.38710
C         -2.00130        4.27410        9.56310
C         -2.89320        4.96340       10.36160
C         -4.23280        5.03580       10.00690
S         -5.46790        5.78780       11.01720
C         -4.70660        5.78380       12.66550
C         -4.65160        4.48980        8.79320
C         -3.76040        3.82380        7.98480
C         -0.19910        3.28220        7.51470
C          0.13670        4.62140        7.32820
C          1.46110        4.99810        7.27110
C          2.46800        4.04650        7.40190
S          4.14700        4.60340        7.35930
C          4.92850        3.51800        8.59370
C          2.13840        2.70590        7.55480
C          0.81280        2.32930        7.61470
C         -1.43760        1.39580        5.70030
S         -0.35780        2.15750        4.58370
C         -0.62840        0.86510        3.42110
C         -1.52360       -0.08620        3.87890
N         -1.96110       -1.20040        3.18270
C         -2.07380       -1.15170        1.78600
C         -1.68050       -2.23550        1.00600
C         -1.68810       -2.15190       -0.36970
C         -2.09420       -0.98000       -0.99270
S         -2.04230       -0.78760       -2.75040
C         -0.61860       -1.82320       -3.19940
C         -2.57290        0.07390       -0.22220
C         -2.56740       -0.01190        1.15360
C         -2.23150       -2.38970        3.87080
C         -3.19640       -3.27230        3.39170
C         -3.43500       -4.47580        4.02430
C         -2.72660       -4.81310        5.16960
S         -2.90600       -6.35080        6.02520
C         -4.47920       -7.00440        5.39740
C         -1.78660       -3.92030        5.67520
C         -1.53990       -2.72660        5.03540
C         -1.98400        0.23140        5.18410
S         -3.19980       -0.44680        6.20940
C         -0.00690        0.97410        2.12240
C          0.94360        0.15380        1.55490
N          1.63450       -0.83480        2.28240
C          1.33640       -2.19920        2.08140
C          1.36070       -2.77280        0.81290
C          1.02450       -4.09870        0.64040
C          0.64730       -4.88180        1.72920
S          0.17230       -6.54830        1.39200
C         -0.57770       -7.10000        2.94930
C          0.65730       -4.32570        3.00180
C          0.99980       -2.99900        3.16920
C          2.56730       -0.42860        3.23330
C          2.71570        0.91440        3.59130
C          3.65930        1.30810        4.51770
C          4.50400        0.37250        5.09240
S          5.73880        0.82890        6.28490
C          6.46700        2.29690        5.48950
C          4.38800       -0.96220        4.72890
C          3.44010       -1.35740        3.81060
C          1.25090        0.57260        0.23840
S          2.28660       -0.01390       -1.01400
C          1.84750        1.32710       -2.05500
C          0.99080        2.21930       -1.43340
N          0.52600        3.41090       -1.97410
C         -0.86820        3.61640       -1.91290
C         -1.42370        4.72400       -1.27390
C         -2.79190        4.86430       -1.21170
C         -3.63150        3.90740       -1.78310
S         -5.36640        4.18610       -1.62050
C         -6.11700        2.74180       -2.42460
C         -3.07850        2.81120       -2.43010
C         -1.70480        2.67080       -2.48960
C          1.38750        4.45360       -2.29890
C          0.93270        5.51170       -3.08920
C          1.74310        6.59490       -3.33470
C          3.03910        6.64290       -2.82410
S          3.98320        8.09460       -3.18850
C          5.49950        7.88760       -2.21490
C          3.51540        5.57050       -2.08540
C          2.69440        4.49140       -1.81940
C          0.61800        1.74390       -0.14910
S         -0.42450        2.33700        1.09030
C          2.24680        1.21050       -3.41990
C          2.50800        0.02440       -4.05800
C          2.68630        0.32560       -5.42620
C          2.91060       -0.48970       -6.55320
C          2.96430       -1.92820       -6.50940
C          3.51390       -2.78120       -7.43260
C          3.36180       -4.13390       -7.09400
C          2.68800       -4.35560       -5.92520
Si         2.23510       -5.97310       -5.06850
C          3.40510       -7.35220       -5.68970
C          2.99760       -7.95070       -7.03140
C          2.45230       -5.68990       -3.18710
C          1.95910       -6.84880       -2.32630
C          0.41120       -6.39950       -5.47840
C         -0.58310       -5.38040       -4.93110
S          2.23440       -2.84170       -5.21440
C          3.05010        0.23140       -7.73850
C          2.95470        1.64910       -7.82680
C          2.72060        2.45920       -6.69050
C          2.70660        3.89810       -6.74080
C          3.16890        4.76960       -5.78690
C          3.11270        6.10980       -6.19600
C          2.58170        6.29740       -7.44200
Si         2.25610        7.91330       -8.36560
C          3.15320        9.33790       -7.45650
C          2.43090        9.87540       -6.22730
C          3.00610        7.79980      -10.12450
C          2.31550        6.80560      -11.05080
C          0.35380        8.14760       -8.43980
C         -0.37090        7.70800       -7.16970
S          2.15600        4.77120       -8.13870
C          2.57200        1.73940       -5.51050
O          2.28410        2.25800       -4.28430
C          3.14540        1.94170       -9.19230
C          3.34350        0.73580       -9.83950
O          3.27550       -0.29400       -8.95730
C          3.52290        0.55010      -11.23150
C          3.85290       -0.59540      -11.89280
C          4.32350       -1.86700      -11.27620
O          4.78730       -2.01460      -10.16880
C          4.25480       -2.86870      -12.35300
C          4.45280       -4.24970      -12.27270
O          4.70340       -4.77130      -11.06020
C          4.89630       -6.15990      -10.93360
C          4.35240       -4.97830      -13.46330
C          4.07320       -4.34230      -14.66050
C          3.87590       -2.97070      -14.74020
C          3.96760       -2.23250      -13.57160
C          3.79690       -0.79960      -13.32720
C          3.62740        0.15440      -14.29640
C          3.60020       -0.11430      -15.68100
N          3.57000       -0.25670      -16.81990
C          3.49370        1.54010      -14.06770
N          3.38110        2.67920      -13.97080
H         -3.09070        1.63610        9.31210
H         -7.62720       -2.54450        8.17800
H         -7.32140        0.18090       12.43720
H        -10.49310       -1.05330       12.03040
H         -9.23500       -2.50280       13.87750
H        -11.70710       -3.37150       13.68130
H        -11.90130       -4.81960       11.46260
H         -9.54850       -4.84410       10.29350
H         -8.70480       -4.86280       12.80190
H         -7.78500       -3.62640       11.91430
H        -10.68330       -2.47280        9.85540
H         -0.97140        4.18100        9.86970
H         -2.53490        5.40970       11.27410
H         -5.51190        5.99520       13.36190
H         -3.94770        6.55780       12.73450
H         -4.29000        4.80180       12.86900
H         -5.68540        4.59040        8.50070
H         -4.09180        3.39300        7.05180
H         -0.64530        5.36020        7.23880
H          1.72890        6.03410        7.13230
H          5.09030        2.52350        8.18790
H          5.88280        3.97720        8.83100
H          4.29970        3.48280        9.47750
H          2.90790        1.95420        7.63470
H          0.55600        1.28950        7.75460
H         -1.35730       -3.14540        1.48400
H         -1.36460       -3.00260       -0.94740
H         -0.90670       -2.86860       -3.24540
H         -0.29580       -1.49090       -4.18080
H          0.17530       -1.66730       -2.47600
H         -2.92890        0.96990       -0.70560
H         -2.93450        0.81380        1.74500
H         -3.76370       -3.01570        2.50970
H         -4.17990       -5.13930        3.61480
H         -5.24860       -6.24380        5.48990
H         -4.71780       -7.85370        6.03000
H         -4.37030       -7.33430        4.36800
H         -1.24530       -4.17900        6.57230
H         -0.80120       -2.05270        5.44040
H          1.64840       -2.18240       -0.04080
H          1.04440       -4.54170       -0.34320
H         -1.02160       -8.06710        2.73420
H          0.18060       -7.21020        3.71900
H         -1.34560       -6.39550        3.25550
H          0.39000       -4.90630        3.86970
H          1.00800       -2.57450        4.16030
H          2.09730        1.67650        3.14520
H          3.72940        2.35210        4.78210
H          5.80550        3.15280        5.58560
H          7.39950        2.49180        6.00940
H          6.65880        2.06960        4.44570
H          5.05630       -1.69010        5.16300
H          3.39480       -2.39440        3.51720
H         -0.77860        5.46360       -0.82390
H         -3.23130        5.71340       -0.71120
H         -5.85190        2.72210       -3.47750
H         -5.80520        1.83100       -1.92150
H         -7.18920        2.87400       -2.31730
H         -3.69280        2.05830       -2.89720
H         -1.27810        1.81580       -2.99070
H         -0.06520        5.48380       -3.49880
H          1.37660        7.41870       -3.92750
H          6.06400        8.80420       -2.35570
H          5.24980        7.76460       -1.16500
H          6.07250        7.04320       -2.58740
H          4.52010        5.56420       -1.69350
H          3.07280        3.67910       -1.21630
H          2.54940       -0.93590       -3.58950
H          4.02920       -2.44740       -8.31360
H          3.74800       -4.93200       -7.70180
H          3.44730       -8.15300       -4.95140
H          4.41770       -6.95550       -5.76950
H          2.02750       -8.43470       -6.95450
H          3.72250       -8.69420       -7.36000
H          2.92910       -7.17970       -7.79480
H          3.50490       -5.50760       -2.96460
H          1.92190       -4.77890       -2.90390
H          0.89590       -7.01880       -2.47580
H          2.12110       -6.64900       -1.26820
H          2.48610       -7.76520       -2.57930
H          0.16490       -7.38500       -5.08020
H          0.28700       -6.46240       -6.56050
H         -0.52660       -5.33790       -3.84600
H         -0.36680       -4.38950       -5.32370
H         -1.60240       -5.64390       -5.20910
H          3.55850        4.44430       -4.83930
H          3.46740        6.92760       -5.59730
H          4.14950        9.00770       -7.16070
H          3.30070       10.16010       -8.15800
H          3.00000       10.68230       -5.76900
H          1.45090       10.26180       -6.49530
H          2.30410        9.09550       -5.48160
H          4.05980        7.52890      -10.04130
H          2.98120        8.78620      -10.58980
H          2.30380        5.81210      -10.60990
H          1.28760        7.10420      -11.23900
H          2.83110        6.74560      -12.00720
H         -0.04630        7.57510       -9.27770
H          0.11740        9.19350       -8.64100
H         -0.03210        8.27960       -6.31020
H         -0.18530        6.65550       -6.96810
H         -1.44550        7.85060       -7.27170
H          3.15490        2.90300       -9.66270
H          3.31460        1.44170      -11.80740
H          4.00270       -6.71860      -11.23050
H          5.75390       -6.50270      -11.52060
H          5.09460       -6.33240       -9.87710
H          4.49210       -6.04780      -13.46180
H          4.00490       -4.93480      -15.56040
H          3.65550       -2.51180      -15.68860
