
  xtb     02072221503D
 energy: -307.937893102386 gnorm: 0.000418457271 xtb: 6.4.1 (unknown)
179200  0     0  0            999 V2000
    8.3086   -3.1379    2.3359 C   0  0  0  0  0  0  0  0  0  0  0  0
    7.4842   -3.7217    3.2417 C   0  0  0  0  0  0  0  0  0  0  0  0
    8.0007   -4.6081    4.3211 C   0  0  0  0  0  0  0  0  0  0  0  0
    9.0980   -5.1115    4.3849 O   0  0  0  0  0  0  0  0  0  0  0  0
    6.9078   -4.6836    5.3144 C   0  0  0  0  0  0  0  0  0  0  0  0
    6.9497   -5.2561    6.5846 C   0  0  0  0  0  0  0  0  0  0  0  0
    5.7825   -5.1209    7.2989 C   0  0  0  0  0  0  0  0  0  0  0  0
    4.6560   -4.4518    6.7998 C   0  0  0  0  0  0  0  0  0  0  0  0
    4.5966   -3.8858    5.5496 C   0  0  0  0  0  0  0  0  0  0  0  0
    5.7669   -4.0330    4.8007 C   0  0  0  0  0  0  0  0  0  0  0  0
    6.0559   -3.5821    3.4459 C   0  0  0  0  0  0  0  0  0  0  0  0
    5.1000   -3.3438    2.4928 C   0  0  0  0  0  0  0  0  0  0  0  0
    3.7174   -3.4936    2.7163 C   0  0  0  0  0  0  0  0  0  0  0  0
    2.5809   -3.6337    2.8092 N   0  0  0  0  0  0  0  0  0  0  0  0
    5.3367   -3.0302    1.1396 C   0  0  0  0  0  0  0  0  0  0  0  0
    5.4086   -2.7874    0.0188 N   0  0  0  0  0  0  0  0  0  0  0  0
    3.8655   -4.6672    8.0656 C   0  0  0  0  0  0  0  0  0  0  0  0
    3.7406   -3.4566    9.0147 C   0  0  0  0  0  0  0  0  0  0  0  0
    3.3539   -4.0743   10.3392 C   0  0  0  0  0  0  0  0  0  0  0  0
    4.4170   -4.7121   10.8123 C   0  0  0  0  0  0  0  0  0  0  0  0
    5.5406   -4.5350    9.8164 C   0  0  0  0  0  0  0  0  0  0  0  0
    5.2128   -3.1293    9.2963 C   0  0  0  0  0  0  0  0  0  0  0  0
    5.1186   -5.4168    8.6218 C   0  0  0  0  0  0  0  0  0  0  0  0
    7.9581   -1.9983    1.5494 C   0  0  0  0  0  0  0  0  0  0  0  0
    7.0958   -0.9969    2.0356 C   0  0  0  0  0  0  0  0  0  0  0  0
    6.5586    0.0428    1.1844 C   0  0  0  0  0  0  0  0  0  0  0  0
    5.7267    0.8480    1.8570 N   0  0  0  0  0  0  0  0  0  0  0  0
    5.6580    0.3753    3.3853 S   0  0  0  0  0  4  0  0  0  0  0  0
    6.6427   -0.8874    3.2880 N   0  0  0  0  0  0  0  0  0  0  0  0
    6.7848    0.0604   -0.2024 C   0  0  0  0  0  0  0  0  0  0  0  0
    7.7520   -0.8440   -0.6563 C   0  0  0  0  0  0  0  0  0  0  0  0
    8.2030   -0.9507   -1.9115 N   0  0  0  0  0  0  0  0  0  0  0  0
    9.2814   -2.1314   -1.9797 S   0  0  0  0  0  0  0  0  0  0  0  0
    9.2445   -2.5898   -0.4429 N   0  0  0  0  0  0  0  0  0  0  0  0
    8.3772   -1.8221    0.2190 C   0  0  0  0  0  0  0  0  0  0  0  0
    5.7813    0.7064   -1.0338 C   0  0  0  0  0  0  0  0  0  0  0  0
    5.0628   -0.1137   -1.9128 C   0  0  0  0  0  0  0  0  0  0  0  0
    3.8117    0.2495   -2.3471 C   0  0  0  0  0  0  0  0  0  0  0  0
    3.1847    1.4223   -1.8961 C   0  0  0  0  0  0  0  0  0  0  0  0
    3.9392    2.3259   -1.1441 C   0  0  0  0  0  0  0  0  0  0  0  0
    3.7163    3.6577   -0.6083 C   0  0  0  0  0  0  0  0  0  0  0  0
    2.6707    4.4596   -0.3228 C   0  0  0  0  0  0  0  0  0  0  0  0
    1.2584    4.1837   -0.2648 C   0  0  0  0  0  0  0  0  0  0  0  0
    0.6828    2.9719    0.2212 C   0  0  0  0  0  0  0  0  0  0  0  0
   -0.6688    3.0076    0.2450 C   0  0  0  0  0  0  0  0  0  0  0  0
   -1.2881    4.5102   -0.3303 S   0  0  0  0  0  0  0  0  0  0  0  0
    0.2953    5.1092   -0.5699 C   0  0  0  0  0  0  0  0  0  0  0  0
    5.0587    4.1375   -0.1621 C   0  0  0  0  0  0  0  0  0  0  0  0
    5.3626    5.2401    0.2374 O   0  0  0  0  0  0  0  0  0  0  0  0
    5.9001    3.0525   -0.2036 N   0  0  0  0  0  0  0  0  0  0  0  0
    7.3034    3.1620    0.1123 C   0  0  0  0  0  0  0  0  0  0  0  0
    8.1796    3.0504   -1.1321 C   0  0  0  0  0  0  0  0  0  0  0  0
    5.2657    1.9786   -0.7910 C   0  0  0  0  0  0  0  0  0  0  0  0
    1.7584    1.5142   -2.1603 C   0  0  0  0  0  0  0  0  0  0  0  0
    0.8766    0.5043   -1.8424 C   0  0  0  0  0  0  0  0  0  0  0  0
    1.2397   -0.6989   -1.2024 N   0  0  0  0  0  0  0  0  0  0  0  0
    1.2640   -0.7284    0.2149 C   0  0  0  0  0  0  0  0  0  0  0  0
    0.2906   -1.4423    0.9078 C   0  0  0  0  0  0  0  0  0  0  0  0
    0.3280   -1.5349    2.2849 C   0  0  0  0  0  0  0  0  0  0  0  0
    1.3396   -0.8990    2.9927 C   0  0  0  0  0  0  0  0  0  0  0  0
    1.5153   -0.9933    4.7469 S   0  0  0  0  0  0  0  0  0  0  0  0
    0.5951   -2.5042    5.1640 C   0  0  0  0  0  0  0  0  0  0  0  0
    2.2836   -0.1433    2.3066 C   0  0  0  0  0  0  0  0  0  0  0  0
    2.2588   -0.0677    0.9296 C   0  0  0  0  0  0  0  0  0  0  0  0
    1.2666   -1.8839   -1.9162 C   0  0  0  0  0  0  0  0  0  0  0  0
    1.7434   -3.0565   -1.3167 C   0  0  0  0  0  0  0  0  0  0  0  0
    1.8139   -4.2279   -2.0315 C   0  0  0  0  0  0  0  0  0  0  0  0
    1.4209   -4.2726   -3.3683 C   0  0  0  0  0  0  0  0  0  0  0  0
    1.5590   -5.8363   -4.1802 S   0  0  0  0  0  0  0  0  0  0  0  0
    0.7323   -5.5730   -5.7755 C   0  0  0  0  0  0  0  0  0  0  0  0
    0.9736   -3.1111   -3.9795 C   0  0  0  0  0  0  0  0  0  0  0  0
    0.8996   -1.9329   -3.2625 C   0  0  0  0  0  0  0  0  0  0  0  0
   -0.4461    0.8297   -2.2170 C   0  0  0  0  0  0  0  0  0  0  0  0
   -1.9631    0.0450   -1.9850 S   0  0  0  0  0  0  0  0  0  0  0  0
   -2.7717    1.3633   -2.8364 C   0  0  0  0  0  0  0  0  0  0  0  0
   -1.8838    2.4241   -3.1498 C   0  0  0  0  0  0  0  0  0  0  0  0
   -2.2628    3.6540   -3.6061 N   0  0  0  0  0  0  0  0  0  0  0  0
   -3.5504    4.1901   -3.3903 C   0  0  0  0  0  0  0  0  0  0  0  0
   -4.1787    4.8880   -4.4159 C   0  0  0  0  0  0  0  0  0  0  0  0
   -5.4759    5.3402   -4.2652 C   0  0  0  0  0  0  0  0  0  0  0  0
   -6.1668    5.0865   -3.0888 C   0  0  0  0  0  0  0  0  0  0  0  0
   -7.8599    5.5091   -2.8374 S   0  0  0  0  0  0  0  0  0  0  0  0
   -8.4860    5.7404   -4.5249 C   0  0  0  0  0  0  0  0  0  0  0  0
   -5.5089    4.4592   -2.0297 C   0  0  0  0  0  0  0  0  0  0  0  0
   -4.2122    4.0244   -2.1722 C   0  0  0  0  0  0  0  0  0  0  0  0
   -1.3140    4.4900   -4.2255 C   0  0  0  0  0  0  0  0  0  0  0  0
   -1.1925    5.8189   -3.8207 C   0  0  0  0  0  0  0  0  0  0  0  0
   -0.2598    6.6364   -4.4148 C   0  0  0  0  0  0  0  0  0  0  0  0
    0.5666    6.1497   -5.4288 C   0  0  0  0  0  0  0  0  0  0  0  0
    1.7262    7.2916   -6.1020 S   0  0  0  0  0  0  0  0  0  0  0  0
    2.6653    6.3094   -7.3049 C   0  0  0  0  0  0  0  0  0  0  0  0
    0.4304    4.8333   -5.8485 C   0  0  0  0  0  0  0  0  0  0  0  0
   -0.5051    4.0108   -5.2498 C   0  0  0  0  0  0  0  0  0  0  0  0
   -0.5572    2.0722   -2.8309 C   0  0  0  0  0  0  0  0  0  0  0  0
    0.9923    2.8503   -2.9708 S   0  0  0  0  0  0  0  0  0  0  0  0
   -4.1100    1.3414   -3.2310 C   0  0  0  0  0  0  0  0  0  0  0  0
   -5.1524    0.5513   -2.8094 C   0  0  0  0  0  0  0  0  0  0  0  0
   -5.0971   -0.4680   -1.7588 C   0  0  0  0  0  0  0  0  0  0  0  0
   -4.1039   -0.9378   -1.2295 O   0  0  0  0  0  0  0  0  0  0  0  0
   -6.4971   -0.8134   -1.4496 C   0  0  0  0  0  0  0  0  0  0  0  0
   -6.9508   -1.7064   -0.4820 C   0  0  0  0  0  0  0  0  0  0  0  0
   -8.3202   -1.8032   -0.4088 C   0  0  0  0  0  0  0  0  0  0  0  0
   -9.1769   -1.0650   -1.2351 C   0  0  0  0  0  0  0  0  0  0  0  0
   -8.7421   -0.1831   -2.1966 C   0  0  0  0  0  0  0  0  0  0  0  0
   -7.3523   -0.0714   -2.2891 C   0  0  0  0  0  0  0  0  0  0  0  0
   -6.5328    0.7461   -3.1819 C   0  0  0  0  0  0  0  0  0  0  0  0
   -7.0122    1.5514   -4.1865 C   0  0  0  0  0  0  0  0  0  0  0  0
   -6.2254    2.2303   -5.1353 C   0  0  0  0  0  0  0  0  0  0  0  0
   -5.6763    2.7980   -5.9718 N   0  0  0  0  0  0  0  0  0  0  0  0
   -8.3747    1.8045   -4.4381 C   0  0  0  0  0  0  0  0  0  0  0  0
   -9.4543    2.0941   -4.7045 N   0  0  0  0  0  0  0  0  0  0  0  0
  -10.4179   -1.6542   -0.6110 C   0  0  0  0  0  0  0  0  0  0  0  0
  -11.1462   -2.7485   -1.4190 C   0  0  0  0  0  0  0  0  0  0  0  0
  -11.9955   -3.4554   -0.3873 C   0  0  0  0  0  0  0  0  0  0  0  0
  -11.1828   -4.1576    0.3919 C   0  0  0  0  0  0  0  0  0  0  0  0
   -9.7704   -3.9364   -0.0995 C   0  0  0  0  0  0  0  0  0  0  0  0
  -10.0343   -3.7893   -1.6036 C   0  0  0  0  0  0  0  0  0  0  0  0
   -9.4620   -2.4802    0.3084 C   0  0  0  0  0  0  0  0  0  0  0  0
    9.3084   -3.5392    2.2244 H   0  0  0  0  0  0  0  0  0  0  0  0
    7.8378   -5.7537    6.9413 H   0  0  0  0  0  0  0  0  0  0  0  0
    3.7381   -3.3504    5.1785 H   0  0  0  0  0  0  0  0  0  0  0  0
    2.9347   -5.2207    7.9550 H   0  0  0  0  0  0  0  0  0  0  0  0
    3.1113   -2.6509    8.6461 H   0  0  0  0  0  0  0  0  0  0  0  0
    2.3643   -4.0325   10.7552 H   0  0  0  0  0  0  0  0  0  0  0  0
    4.4922   -5.3094   11.7020 H   0  0  0  0  0  0  0  0  0  0  0  0
    6.5489   -4.7127   10.1804 H   0  0  0  0  0  0  0  0  0  0  0  0
    5.7790   -2.8386    8.4136 H   0  0  0  0  0  0  0  0  0  0  0  0
    5.3245   -2.3691   10.0676 H   0  0  0  0  0  0  0  0  0  0  0  0
    5.0224   -6.4692    8.8819 H   0  0  0  0  0  0  0  0  0  0  0  0
    5.4676   -1.0773   -2.1742 H   0  0  0  0  0  0  0  0  0  0  0  0
    3.2656   -0.4138   -2.9989 H   0  0  0  0  0  0  0  0  0  0  0  0
    2.9535    5.4616   -0.0109 H   0  0  0  0  0  0  0  0  0  0  0  0
    1.2661    2.1404    0.5716 H   0  0  0  0  0  0  0  0  0  0  0  0
   -1.3467    2.2433    0.5701 H   0  0  0  0  0  0  0  0  0  0  0  0
    0.4377    6.0933   -0.9698 H   0  0  0  0  0  0  0  0  0  0  0  0
    7.5771    2.3992    0.8447 H   0  0  0  0  0  0  0  0  0  0  0  0
    7.4244    4.1481    0.5699 H   0  0  0  0  0  0  0  0  0  0  0  0
    7.9068    3.8194   -1.8512 H   0  0  0  0  0  0  0  0  0  0  0  0
    8.0675    2.0766   -1.6036 H   0  0  0  0  0  0  0  0  0  0  0  0
    9.2222    3.1861   -0.8573 H   0  0  0  0  0  0  0  0  0  0  0  0
   -0.4943   -1.9375    0.3551 H   0  0  0  0  0  0  0  0  0  0  0  0
   -0.4315   -2.1054    2.7938 H   0  0  0  0  0  0  0  0  0  0  0  0
    0.8853   -2.7603    6.1786 H   0  0  0  0  0  0  0  0  0  0  0  0
   -0.4743   -2.3182    5.1248 H   0  0  0  0  0  0  0  0  0  0  0  0
    0.8907   -3.2897    4.4750 H   0  0  0  0  0  0  0  0  0  0  0  0
    3.0531    0.3713    2.8630 H   0  0  0  0  0  0  0  0  0  0  0  0
    3.0358    0.4728    0.4137 H   0  0  0  0  0  0  0  0  0  0  0  0
    2.0685   -3.0402   -0.2881 H   0  0  0  0  0  0  0  0  0  0  0  0
    2.1833   -5.1264   -1.5616 H   0  0  0  0  0  0  0  0  0  0  0  0
    1.3071   -4.8837   -6.3875 H   0  0  0  0  0  0  0  0  0  0  0  0
    0.6992   -6.5473   -6.2530 H   0  0  0  0  0  0  0  0  0  0  0  0
   -0.2766   -5.2069   -5.6098 H   0  0  0  0  0  0  0  0  0  0  0  0
    0.6783   -3.1037   -5.0167 H   0  0  0  0  0  0  0  0  0  0  0  0
    0.5514   -1.0415   -3.7622 H   0  0  0  0  0  0  0  0  0  0  0  0
   -3.6614    5.0490   -5.3490 H   0  0  0  0  0  0  0  0  0  0  0  0
   -5.9441    5.8598   -5.0844 H   0  0  0  0  0  0  0  0  0  0  0  0
   -9.5676    5.7590   -4.4356 H   0  0  0  0  0  0  0  0  0  0  0  0
   -8.1828    4.9001   -5.1422 H   0  0  0  0  0  0  0  0  0  0  0  0
   -8.1324    6.6823   -4.9345 H   0  0  0  0  0  0  0  0  0  0  0  0
   -6.0355    4.3104   -1.0996 H   0  0  0  0  0  0  0  0  0  0  0  0
   -3.7174    3.5267   -1.3530 H   0  0  0  0  0  0  0  0  0  0  0  0
   -1.8295    6.1939   -3.0336 H   0  0  0  0  0  0  0  0  0  0  0  0
   -0.1525    7.6632   -4.1007 H   0  0  0  0  0  0  0  0  0  0  0  0
    3.4203    6.9808   -7.7021 H   0  0  0  0  0  0  0  0  0  0  0  0
    2.0122    5.9763   -8.1063 H   0  0  0  0  0  0  0  0  0  0  0  0
    3.1426    5.4712   -6.8058 H   0  0  0  0  0  0  0  0  0  0  0  0
    1.0398    4.4345   -6.6426 H   0  0  0  0  0  0  0  0  0  0  0  0
   -0.6181    2.9913   -5.5874 H   0  0  0  0  0  0  0  0  0  0  0  0
   -4.3660    2.1024   -3.9560 H   0  0  0  0  0  0  0  0  0  0  0  0
   -6.2570   -2.2514    0.1388 H   0  0  0  0  0  0  0  0  0  0  0  0
   -9.4127    0.3823   -2.8221 H   0  0  0  0  0  0  0  0  0  0  0  0
  -11.0985   -0.9421   -0.1483 H   0  0  0  0  0  0  0  0  0  0  0  0
  -11.6544   -2.3935   -2.3113 H   0  0  0  0  0  0  0  0  0  0  0  0
  -13.0589   -3.3318   -0.2987 H   0  0  0  0  0  0  0  0  0  0  0  0
  -11.4317   -4.7374    1.2615 H   0  0  0  0  0  0  0  0  0  0  0  0
   -9.0250   -4.6643    0.2097 H   0  0  0  0  0  0  0  0  0  0  0  0
   -9.1785   -3.4281   -2.1708 H   0  0  0  0  0  0  0  0  0  0  0  0
  -10.4035   -4.7118   -2.0487 H   0  0  0  0  0  0  0  0  0  0  0  0
   -9.5085   -2.3210    1.3843 H   0  0  0  0  0  0  0  0  0  0  0  0
  1  2  2  0  0  0  0
  2  3  1  0  0  0  0
  3  4  2  0  0  0  0
  3  5  1  0  0  0  0
  5  6  2  0  0  0  0
  6  7  1  0  0  0  0
  7  8  2  0  0  0  0
  8  9  1  0  0  0  0
  9 10  2  0  0  0  0
 10 11  1  0  0  0  0
 11 12  2  0  0  0  0
 12 13  1  0  0  0  0
 13 14  3  0  0  0  0
 12 15  1  0  0  0  0
 15 16  3  0  0  0  0
  8 17  1  0  0  0  0
 17 18  1  0  0  0  0
 18 19  1  0  0  0  0
 19 20  2  0  0  0  0
 20 21  1  0  0  0  0
 21 22  1  0  0  0  0
 21 23  1  0  0  0  0
  1 24  1  0  0  0  0
 24 25  2  0  0  0  0
 25 26  1  0  0  0  0
 26 27  1  0  0  0  0
 27 28  2  0  0  0  0
 28 29  2  0  0  0  0
 26 30  2  0  0  0  0
 30 31  1  0  0  0  0
 31 32  2  0  0  0  0
 32 33  1  0  0  0  0
 33 34  1  0  0  0  0
 34 35  2  0  0  0  0
 30 36  1  0  0  0  0
 36 37  2  0  0  0  0
 37 38  1  0  0  0  0
 38 39  2  0  0  0  0
 39 40  1  0  0  0  0
 40 41  1  0  0  0  0
 41 42  2  0  0  0  0
 42 43  1  0  0  0  0
 43 44  1  0  0  0  0
 44 45  2  0  0  0  0
 45 46  1  0  0  0  0
 46 47  1  0  0  0  0
 41 48  1  0  0  0  0
 48 49  2  0  0  0  0
 48 50  1  0  0  0  0
 50 51  1  0  0  0  0
 51 52  1  0  0  0  0
 50 53  1  0  0  0  0
 39 54  1  0  0  0  0
 54 55  2  0  0  0  0
 55 56  1  0  0  0  0
 56 57  1  0  0  0  0
 57 58  2  0  0  0  0
 58 59  1  0  0  0  0
 59 60  2  0  0  0  0
 60 61  1  0  0  0  0
 61 62  1  0  0  0  0
 60 63  1  0  0  0  0
 63 64  2  0  0  0  0
 56 65  1  0  0  0  0
 65 66  2  0  0  0  0
 66 67  1  0  0  0  0
 67 68  2  0  0  0  0
 68 69  1  0  0  0  0
 69 70  1  0  0  0  0
 68 71  1  0  0  0  0
 71 72  2  0  0  0  0
 55 73  1  0  0  0  0
 73 74  1  0  0  0  0
 74 75  1  0  0  0  0
 75 76  2  0  0  0  0
 76 77  1  0  0  0  0
 77 78  1  0  0  0  0
 78 79  2  0  0  0  0
 79 80  1  0  0  0  0
 80 81  2  0  0  0  0
 81 82  1  0  0  0  0
 82 83  1  0  0  0  0
 81 84  1  0  0  0  0
 84 85  2  0  0  0  0
 77 86  1  0  0  0  0
 86 87  2  0  0  0  0
 87 88  1  0  0  0  0
 88 89  2  0  0  0  0
 89 90  1  0  0  0  0
 90 91  1  0  0  0  0
 89 92  1  0  0  0  0
 92 93  2  0  0  0  0
 76 94  1  0  0  0  0
 94 95  1  0  0  0  0
 75 96  1  0  0  0  0
 96 97  2  0  0  0  0
 97 98  1  0  0  0  0
 98 99  2  0  0  0  0
 98100  1  0  0  0  0
100101  2  0  0  0  0
101102  1  0  0  0  0
102103  2  0  0  0  0
103104  1  0  0  0  0
104105  2  0  0  0  0
105106  1  0  0  0  0
106107  2  0  0  0  0
107108  1  0  0  0  0
108109  3  0  0  0  0
107110  1  0  0  0  0
110111  3  0  0  0  0
103112  1  0  0  0  0
112113  1  0  0  0  0
113114  1  0  0  0  0
114115  2  0  0  0  0
115116  1  0  0  0  0
116117  1  0  0  0  0
116118  1  0  0  0  0
 11  2  1  0  0  0  0
 23 17  1  0  0  0  0
 35 24  1  0  0  0  0
 53 36  1  0  0  0  0
 95 54  1  0  0  0  0
106 97  1  0  0  0  0
118112  1  0  0  0  0
 10  5  1  0  0  0  0
 22 18  1  0  0  0  0
 29 25  1  0  0  0  0
 35 31  1  0  0  0  0
 53 40  2  0  0  0  0
 64 57  1  0  0  0  0
 72 65  1  0  0  0  0
 94 73  2  0  0  0  0
105100  1  0  0  0  0
117113  1  0  0  0  0
 23  7  1  0  0  0  0
 47 43  2  0  0  0  0
 85 78  1  0  0  0  0
 93 86  1  0  0  0  0
118102  1  0  0  0  0
  1119  1  0  0  0  0
  6120  1  0  0  0  0
  9121  1  0  0  0  0
 17122  1  0  0  0  0
 18123  1  0  0  0  0
 19124  1  0  0  0  0
 20125  1  0  0  0  0
 21126  1  0  0  0  0
 22127  1  0  0  0  0
 22128  1  0  0  0  0
 23129  1  0  0  0  0
 37130  1  0  0  0  0
 38131  1  0  0  0  0
 42132  1  0  0  0  0
 44133  1  0  0  0  0
 45134  1  0  0  0  0
 47135  1  0  0  0  0
 51136  1  0  0  0  0
 51137  1  0  0  0  0
 52138  1  0  0  0  0
 52139  1  0  0  0  0
 52140  1  0  0  0  0
 58141  1  0  0  0  0
 59142  1  0  0  0  0
 62143  1  0  0  0  0
 62144  1  0  0  0  0
 62145  1  0  0  0  0
 63146  1  0  0  0  0
 64147  1  0  0  0  0
 66148  1  0  0  0  0
 67149  1  0  0  0  0
 70150  1  0  0  0  0
 70151  1  0  0  0  0
 70152  1  0  0  0  0
 71153  1  0  0  0  0
 72154  1  0  0  0  0
 79155  1  0  0  0  0
 80156  1  0  0  0  0
 83157  1  0  0  0  0
 83158  1  0  0  0  0
 83159  1  0  0  0  0
 84160  1  0  0  0  0
 85161  1  0  0  0  0
 87162  1  0  0  0  0
 88163  1  0  0  0  0
 91164  1  0  0  0  0
 91165  1  0  0  0  0
 91166  1  0  0  0  0
 92167  1  0  0  0  0
 93168  1  0  0  0  0
 96169  1  0  0  0  0
101170  1  0  0  0  0
104171  1  0  0  0  0
112172  1  0  0  0  0
113173  1  0  0  0  0
114174  1  0  0  0  0
115175  1  0  0  0  0
116176  1  0  0  0  0
117177  1  0  0  0  0
117178  1  0  0  0  0
118179  1  0  0  0  0
M  END
