
  xtb     02062209473D
 energy: -348.473705997868 gnorm: 0.000444344004 xtb: 6.4.1 (unknown)
203223  0     0  0            999 V2000
   -5.2606    2.1542   -3.3745 C   0  0  0  0  0  0  0  0  0  0  0  0
   -6.5379    2.0756   -2.8572 C   0  0  0  0  0  0  0  0  0  0  0  0
   -6.8436    1.9012   -1.4291 C   0  0  0  0  0  0  0  0  0  0  0  0
   -6.0502    1.7685   -0.5135 O   0  0  0  0  0  0  0  0  0  0  0  0
   -8.3111    2.0375   -1.3139 C   0  0  0  0  0  0  0  0  0  0  0  0
   -9.0782    1.9305   -0.1586 C   0  0  0  0  0  0  0  0  0  0  0  0
  -10.4325    2.0427   -0.3718 C   0  0  0  0  0  0  0  0  0  0  0  0
  -10.9825    2.2582   -1.6408 C   0  0  0  0  0  0  0  0  0  0  0  0
  -10.2349    2.3866   -2.7878 C   0  0  0  0  0  0  0  0  0  0  0  0
   -8.8587    2.2675   -2.5911 C   0  0  0  0  0  0  0  0  0  0  0  0
   -7.7686    2.2871   -3.5628 C   0  0  0  0  0  0  0  0  0  0  0  0
   -7.9079    2.3216   -4.9302 C   0  0  0  0  0  0  0  0  0  0  0  0
   -6.8458    2.1224   -5.8331 C   0  0  0  0  0  0  0  0  0  0  0  0
   -6.0472    1.9057   -6.6310 N   0  0  0  0  0  0  0  0  0  0  0  0
   -9.1305    2.4625   -5.6109 C   0  0  0  0  0  0  0  0  0  0  0  0
  -10.0855    2.5612   -6.2428 N   0  0  0  0  0  0  0  0  0  0  0  0
  -12.3970    2.2376   -1.1207 C   0  0  0  0  0  0  0  0  0  0  0  0
  -13.2261    0.9498   -1.3494 C   0  0  0  0  0  0  0  0  0  0  0  0
  -12.2417   -0.1900   -1.4438 C   0  0  0  0  0  0  0  0  0  0  0  0
  -11.7340   -0.3848   -0.2338 C   0  0  0  0  0  0  0  0  0  0  0  0
  -12.3594    0.6237    0.6973 C   0  0  0  0  0  0  0  0  0  0  0  0
  -13.7606    0.7315    0.0753 C   0  0  0  0  0  0  0  0  0  0  0  0
  -11.7853    2.0055    0.2969 C   0  0  0  0  0  0  0  0  0  0  0  0
   -4.1193    1.5831   -2.8132 C   0  0  0  0  0  0  0  0  0  0  0  0
   -3.9644    0.5010   -1.9175 C   0  0  0  0  0  0  0  0  0  0  0  0
   -4.9125   -0.4087   -1.5556 N   0  0  0  0  0  0  0  0  0  0  0  0
   -4.6993   -1.2027   -0.4058 C   0  0  0  0  0  0  0  0  0  0  0  0
   -4.7603   -2.5909   -0.5082 C   0  0  0  0  0  0  0  0  0  0  0  0
   -4.5450   -3.3707    0.6056 C   0  0  0  0  0  0  0  0  0  0  0  0
   -4.2752   -2.7814    1.8416 C   0  0  0  0  0  0  0  0  0  0  0  0
   -4.0250   -3.8860    3.1899 S   0  0  0  0  0  0  0  0  0  0  0  0
   -4.0038   -2.8013    4.6423 C   0  0  0  0  0  0  0  0  0  0  0  0
   -4.2262   -1.3966    1.9433 C   0  0  0  0  0  0  0  0  0  0  0  0
   -4.4380   -0.6125    0.8253 C   0  0  0  0  0  0  0  0  0  0  0  0
   -6.0732   -0.6614   -2.2981 C   0  0  0  0  0  0  0  0  0  0  0  0
   -6.0606   -0.6935   -3.6907 C   0  0  0  0  0  0  0  0  0  0  0  0
   -7.2272   -0.8854   -4.4029 C   0  0  0  0  0  0  0  0  0  0  0  0
   -8.4355   -1.0435   -3.7324 C   0  0  0  0  0  0  0  0  0  0  0  0
   -9.9973   -1.1924   -4.5270 S   0  0  0  0  0  0  0  0  0  0  0  0
   -9.6128   -1.1302   -6.2978 C   0  0  0  0  0  0  0  0  0  0  0  0
   -8.4423   -1.0765   -2.3382 C   0  0  0  0  0  0  0  0  0  0  0  0
   -7.2770   -0.8950   -1.6290 C   0  0  0  0  0  0  0  0  0  0  0  0
   -2.6101    0.3705   -1.5356 C   0  0  0  0  0  0  0  0  0  0  0  0
   -1.7676   -0.7118   -0.4736 S   0  0  0  0  0  0  0  0  0  0  0  0
   -0.2355   -0.0051   -0.9415 C   0  0  0  0  0  0  0  0  0  0  0  0
   -0.3792    0.9718   -1.9204 C   0  0  0  0  0  0  0  0  0  0  0  0
    0.7258    1.4866   -2.5999 N   0  0  0  0  0  0  0  0  0  0  0  0
    1.4631    0.5381   -3.3295 C   0  0  0  0  0  0  0  0  0  0  0  0
    0.8052   -0.5490   -3.9047 C   0  0  0  0  0  0  0  0  0  0  0  0
    1.5061   -1.5171   -4.5890 C   0  0  0  0  0  0  0  0  0  0  0  0
    2.8844   -1.4143   -4.7103 C   0  0  0  0  0  0  0  0  0  0  0  0
    3.8278   -2.6629   -5.5496 S   0  0  0  0  0  0  0  0  0  0  0  0
    2.7967   -2.9598   -7.0219 C   0  0  0  0  0  0  0  0  0  0  0  0
    3.5502   -0.3360   -4.1389 C   0  0  0  0  0  0  0  0  0  0  0  0
    2.8475    0.6372   -3.4567 C   0  0  0  0  0  0  0  0  0  0  0  0
    0.8103    2.8589   -2.8368 C   0  0  0  0  0  0  0  0  0  0  0  0
    0.2976    3.7455   -1.8928 C   0  0  0  0  0  0  0  0  0  0  0  0
    0.3196    5.1073   -2.1141 C   0  0  0  0  0  0  0  0  0  0  0  0
    0.8717    5.6108   -3.2834 C   0  0  0  0  0  0  0  0  0  0  0  0
    0.9425    7.3283   -3.6893 S   0  0  0  0  0  0  0  0  0  0  0  0
    0.3491    8.1562   -2.1886 C   0  0  0  0  0  0  0  0  0  0  0  0
    1.4047    4.7291   -4.2211 C   0  0  0  0  0  0  0  0  0  0  0  0
    1.3722    3.3693   -4.0064 C   0  0  0  0  0  0  0  0  0  0  0  0
   -1.7339    1.2121   -2.2127 C   0  0  0  0  0  0  0  0  0  0  0  0
   -2.5548    2.2624   -3.3042 S   0  0  0  0  0  0  0  0  0  0  0  0
    0.9475   -0.2918   -0.2245 C   0  0  0  0  0  0  0  0  0  0  0  0
    1.1311   -1.3048    0.7099 C   0  0  0  0  0  0  0  0  0  0  0  0
    0.2887   -2.4113    0.7703 N   0  0  0  0  0  0  0  0  0  0  0  0
    0.1881   -3.1518   -0.4224 C   0  0  0  0  0  0  0  0  0  0  0  0
    1.3031   -3.2571   -1.2517 C   0  0  0  0  0  0  0  0  0  0  0  0
    1.2310   -3.9243   -2.4551 C   0  0  0  0  0  0  0  0  0  0  0  0
    0.0321   -4.4993   -2.8528 C   0  0  0  0  0  0  0  0  0  0  0  0
   -0.1449   -5.3178   -4.4121 S   0  0  0  0  0  0  0  0  0  0  0  0
    1.5265   -5.9782   -4.7001 C   0  0  0  0  0  0  0  0  0  0  0  0
   -1.0835   -4.4082   -2.0251 C   0  0  0  0  0  0  0  0  0  0  0  0
   -1.0095   -3.7459   -0.8167 C   0  0  0  0  0  0  0  0  0  0  0  0
   -0.0959   -2.9111    2.0128 C   0  0  0  0  0  0  0  0  0  0  0  0
   -0.3393   -4.2691    2.2185 C   0  0  0  0  0  0  0  0  0  0  0  0
   -0.6682   -4.7317    3.4725 C   0  0  0  0  0  0  0  0  0  0  0  0
   -0.7472   -3.8584    4.5540 C   0  0  0  0  0  0  0  0  0  0  0  0
   -1.1644   -4.5603    6.1218 S   0  0  0  0  0  0  0  0  0  0  0  0
   -0.6667   -3.2728    7.3044 C   0  0  0  0  0  0  0  0  0  0  0  0
   -0.5286   -2.5030    4.3509 C   0  0  0  0  0  0  0  0  0  0  0  0
   -0.2161   -2.0357    3.0902 C   0  0  0  0  0  0  0  0  0  0  0  0
    2.3103   -1.1067    1.4574 C   0  0  0  0  0  0  0  0  0  0  0  0
    3.1017   -1.9827    2.7199 S   0  0  0  0  0  0  0  0  0  0  0  0
    4.3962   -0.7974    2.7443 C   0  0  0  0  0  0  0  0  0  0  0  0
    4.2639    0.1685    1.7443 C   0  0  0  0  0  0  0  0  0  0  0  0
    5.2196    1.0924    1.3749 N   0  0  0  0  0  0  0  0  0  0  0  0
    6.5889    0.8242    1.5351 C   0  0  0  0  0  0  0  0  0  0  0  0
    7.1033   -0.4498    1.3086 C   0  0  0  0  0  0  0  0  0  0  0  0
    8.4136   -0.7473    1.6254 C   0  0  0  0  0  0  0  0  0  0  0  0
    9.2384    0.2306    2.1703 C   0  0  0  0  0  0  0  0  0  0  0  0
   10.8744   -0.0607    2.7570 S   0  0  0  0  0  0  0  0  0  0  0  0
   11.0544   -1.8651    2.7007 C   0  0  0  0  0  0  0  0  0  0  0  0
    8.7560    1.5330    2.2961 C   0  0  0  0  0  0  0  0  0  0  0  0
    7.4488    1.8283    1.9835 C   0  0  0  0  0  0  0  0  0  0  0  0
    4.8094    2.2958    0.7802 C   0  0  0  0  0  0  0  0  0  0  0  0
    5.4856    2.8013   -0.3258 C   0  0  0  0  0  0  0  0  0  0  0  0
    5.0786    3.9790   -0.9203 C   0  0  0  0  0  0  0  0  0  0  0  0
    3.9834    4.6704   -0.4177 C   0  0  0  0  0  0  0  0  0  0  0  0
    3.3985    6.1948   -1.0750 S   0  0  0  0  0  0  0  0  0  0  0  0
    4.2661    6.3550   -2.6584 C   0  0  0  0  0  0  0  0  0  0  0  0
    3.3084    4.1705    0.6941 C   0  0  0  0  0  0  0  0  0  0  0  0
    3.7172    2.9993    1.2902 C   0  0  0  0  0  0  0  0  0  0  0  0
    3.0450   -0.0001    1.0502 C   0  0  0  0  0  0  0  0  0  0  0  0
    2.2918    0.8348   -0.2676 S   0  0  0  0  0  0  0  0  0  0  0  0
    5.4662   -0.9316    3.6809 C   0  0  0  0  0  0  0  0  0  0  0  0
    6.1423    0.1615    4.2090 C   0  0  0  0  0  0  0  0  0  0  0  0
    7.3170    0.0190    4.9345 C   0  0  0  0  0  0  0  0  0  0  0  0
    7.9336    1.1629    5.2865 F   0  0  0  0  0  0  0  0  0  0  0  0
    7.9375   -1.2005    5.2044 C   0  0  0  0  0  0  0  0  0  0  0  0
    7.2140   -2.3354    4.7420 C   0  0  0  0  0  0  0  0  0  0  0  0
    5.9732   -2.2097    4.0300 C   0  0  0  0  0  0  0  0  0  0  0  0
    5.4746   -3.3911    3.6803 N   0  0  0  0  0  0  0  0  0  0  0  0
    6.4590   -4.5492    4.2069 S   0  0  0  0  0  0  0  0  0  0  0  0
    7.5764   -3.6065    4.8843 N   0  0  0  0  0  0  0  0  0  0  0  0
    9.2426   -1.3911    5.7398 C   0  0  0  0  0  0  0  0  0  0  0  0
   10.0557   -0.5909    6.4817 C   0  0  0  0  0  0  0  0  0  0  0  0
   11.5281   -0.8604    6.4299 C   0  0  0  0  0  0  0  0  0  0  0  0
   12.0658   -1.8173    5.9205 O   0  0  0  0  0  0  0  0  0  0  0  0
   12.1429    0.3097    7.0666 C   0  0  0  0  0  0  0  0  0  0  0  0
   13.3938    0.7830    7.2964 C   0  0  0  0  0  0  0  0  0  0  0  0
   13.3329    2.2888    8.1349 S   0  0  0  0  0  0  0  0  0  0  0  0
   11.6077    2.2782    8.1858 C   0  0  0  0  0  0  0  0  0  0  0  0
   11.1136    1.1680    7.5763 C   0  0  0  0  0  0  0  0  0  0  0  0
    9.8191    0.5679    7.3156 C   0  0  0  0  0  0  0  0  0  0  0  0
    8.6540    0.9286    7.9421 C   0  0  0  0  0  0  0  0  0  0  0  0
    7.4485    0.2147    7.8317 C   0  0  0  0  0  0  0  0  0  0  0  0
    6.4566   -0.3593    7.7555 N   0  0  0  0  0  0  0  0  0  0  0  0
    8.5948    2.0404    8.8052 C   0  0  0  0  0  0  0  0  0  0  0  0
    8.5331    2.9455    9.5082 N   0  0  0  0  0  0  0  0  0  0  0  0
   -5.1023    2.7317   -4.2777 H   0  0  0  0  0  0  0  0  0  0  0  0
   -8.6164    1.7593    0.8016 H   0  0  0  0  0  0  0  0  0  0  0  0
  -10.6707    2.5613   -3.7574 H   0  0  0  0  0  0  0  0  0  0  0  0
  -12.9821    3.1407   -1.2829 H   0  0  0  0  0  0  0  0  0  0  0  0
  -13.9540    1.0194   -2.1531 H   0  0  0  0  0  0  0  0  0  0  0  0
  -11.9828   -0.6814   -2.3640 H   0  0  0  0  0  0  0  0  0  0  0  0
  -10.9707   -1.0788    0.0679 H   0  0  0  0  0  0  0  0  0  0  0  0
  -12.2995    0.3995    1.7594 H   0  0  0  0  0  0  0  0  0  0  0  0
  -14.3366   -0.1875    0.1735 H   0  0  0  0  0  0  0  0  0  0  0  0
  -14.3407    1.5717    0.4546 H   0  0  0  0  0  0  0  0  0  0  0  0
  -11.9622    2.7647    1.0568 H   0  0  0  0  0  0  0  0  0  0  0  0
   -4.9722   -3.0474   -1.4638 H   0  0  0  0  0  0  0  0  0  0  0  0
   -4.5852   -4.4472    0.5376 H   0  0  0  0  0  0  0  0  0  0  0  0
   -3.1456   -2.1378    4.5935 H   0  0  0  0  0  0  0  0  0  0  0  0
   -4.9359   -2.2472    4.7014 H   0  0  0  0  0  0  0  0  0  0  0  0
   -3.9080   -3.4660    5.4954 H   0  0  0  0  0  0  0  0  0  0  0  0
   -4.0287   -0.9161    2.8874 H   0  0  0  0  0  0  0  0  0  0  0  0
   -4.4295    0.4640    0.8970 H   0  0  0  0  0  0  0  0  0  0  0  0
   -5.1331   -0.5588   -4.2265 H   0  0  0  0  0  0  0  0  0  0  0  0
   -7.1795   -0.8939   -5.4798 H   0  0  0  0  0  0  0  0  0  0  0  0
   -8.9660   -1.9602   -6.5664 H   0  0  0  0  0  0  0  0  0  0  0  0
   -9.1635   -0.1748   -6.5518 H   0  0  0  0  0  0  0  0  0  0  0  0
  -10.5683   -1.2263   -6.8039 H   0  0  0  0  0  0  0  0  0  0  0  0
   -9.3795   -1.2192   -1.8241 H   0  0  0  0  0  0  0  0  0  0  0  0
   -7.2900   -0.9049   -0.5499 H   0  0  0  0  0  0  0  0  0  0  0  0
   -0.2675   -0.6365   -3.8212 H   0  0  0  0  0  0  0  0  0  0  0  0
    0.9699   -2.3440   -5.0269 H   0  0  0  0  0  0  0  0  0  0  0  0
    1.8952   -3.5075   -6.7641 H   0  0  0  0  0  0  0  0  0  0  0  0
    2.5492   -2.0058   -7.4767 H   0  0  0  0  0  0  0  0  0  0  0  0
    3.4054   -3.5511   -7.6986 H   0  0  0  0  0  0  0  0  0  0  0  0
    4.6234   -0.2689   -4.2309 H   0  0  0  0  0  0  0  0  0  0  0  0
    3.3639    1.4752   -3.0130 H   0  0  0  0  0  0  0  0  0  0  0  0
   -0.1250    3.3591   -0.9771 H   0  0  0  0  0  0  0  0  0  0  0  0
   -0.0909    5.7631   -1.3644 H   0  0  0  0  0  0  0  0  0  0  0  0
    0.9707    7.8681   -1.3458 H   0  0  0  0  0  0  0  0  0  0  0  0
    0.4522    9.2196   -2.3810 H   0  0  0  0  0  0  0  0  0  0  0  0
   -0.6957    7.9131   -2.0184 H   0  0  0  0  0  0  0  0  0  0  0  0
    1.8291    5.1256   -5.1313 H   0  0  0  0  0  0  0  0  0  0  0  0
    1.7651    2.6967   -4.7536 H   0  0  0  0  0  0  0  0  0  0  0  0
    2.2409   -2.8136   -0.9519 H   0  0  0  0  0  0  0  0  0  0  0  0
    2.1138   -3.9883   -3.0702 H   0  0  0  0  0  0  0  0  0  0  0  0
    1.4311   -6.6703   -5.5310 H   0  0  0  0  0  0  0  0  0  0  0  0
    1.8576   -6.5056   -3.8110 H   0  0  0  0  0  0  0  0  0  0  0  0
    2.2228   -5.1865   -4.9597 H   0  0  0  0  0  0  0  0  0  0  0  0
   -2.0122   -4.8584   -2.3405 H   0  0  0  0  0  0  0  0  0  0  0  0
   -1.8773   -3.6780   -0.1782 H   0  0  0  0  0  0  0  0  0  0  0  0
   -0.2501   -4.9626    1.3970 H   0  0  0  0  0  0  0  0  0  0  0  0
   -0.8552   -5.7820    3.6327 H   0  0  0  0  0  0  0  0  0  0  0  0
   -1.3602   -2.4368    7.2724 H   0  0  0  0  0  0  0  0  0  0  0  0
    0.3476   -2.9527    7.0869 H   0  0  0  0  0  0  0  0  0  0  0  0
   -0.7060   -3.7410    8.2830 H   0  0  0  0  0  0  0  0  0  0  0  0
   -0.5989   -1.7988    5.1654 H   0  0  0  0  0  0  0  0  0  0  0  0
   -0.0626   -0.9776    2.9371 H   0  0  0  0  0  0  0  0  0  0  0  0
    6.4643   -1.2214    0.9049 H   0  0  0  0  0  0  0  0  0  0  0  0
    8.7794   -1.7457    1.4464 H   0  0  0  0  0  0  0  0  0  0  0  0
   11.9084   -2.0924    3.3323 H   0  0  0  0  0  0  0  0  0  0  0  0
   10.1659   -2.3351    3.1096 H   0  0  0  0  0  0  0  0  0  0  0  0
   11.2409   -2.1912    1.6813 H   0  0  0  0  0  0  0  0  0  0  0  0
    9.4102    2.2986    2.6826 H   0  0  0  0  0  0  0  0  0  0  0  0
    7.0720    2.8307    2.1226 H   0  0  0  0  0  0  0  0  0  0  0  0
    6.3354    2.2638   -0.7202 H   0  0  0  0  0  0  0  0  0  0  0  0
    5.6231    4.3467   -1.7750 H   0  0  0  0  0  0  0  0  0  0  0  0
    4.0984    5.4609   -3.2517 H   0  0  0  0  0  0  0  0  0  0  0  0
    3.8176    7.2108   -3.1535 H   0  0  0  0  0  0  0  0  0  0  0  0
    5.3241    6.5355   -2.4917 H   0  0  0  0  0  0  0  0  0  0  0  0
    2.4664    4.7187    1.0868 H   0  0  0  0  0  0  0  0  0  0  0  0
    3.1982    2.6231    2.1592 H   0  0  0  0  0  0  0  0  0  0  0  0
    5.7718    1.1605    4.0471 H   0  0  0  0  0  0  0  0  0  0  0  0
    9.7063   -2.3239    5.4297 H   0  0  0  0  0  0  0  0  0  0  0  0
   14.3388    0.3515    7.0343 H   0  0  0  0  0  0  0  0  0  0  0  0
   11.0874    3.0924    8.6492 H   0  0  0  0  0  0  0  0  0  0  0  0
  1  2  2  0  0  0  0
  2  3  1  0  0  0  0
  3  4  2  0  0  0  0
  3  5  1  0  0  0  0
  5  6  2  0  0  0  0
  6  7  1  0  0  0  0
  7  8  2  0  0  0  0
  8  9  1  0  0  0  0
  9 10  2  0  0  0  0
 10 11  1  0  0  0  0
 11 12  2  0  0  0  0
 12 13  1  0  0  0  0
 13 14  3  0  0  0  0
 12 15  1  0  0  0  0
 15 16  3  0  0  0  0
  8 17  1  0  0  0  0
 17 18  1  0  0  0  0
 18 19  1  0  0  0  0
 19 20  2  0  0  0  0
 20 21  1  0  0  0  0
 21 22  1  0  0  0  0
 21 23  1  0  0  0  0
  1 24  1  0  0  0  0
 24 25  2  0  0  0  0
 25 26  1  0  0  0  0
 26 27  1  0  0  0  0
 27 28  2  0  0  0  0
 28 29  1  0  0  0  0
 29 30  2  0  0  0  0
 30 31  1  0  0  0  0
 31 32  1  0  0  0  0
 30 33  1  0  0  0  0
 33 34  2  0  0  0  0
 26 35  1  0  0  0  0
 35 36  2  0  0  0  0
 36 37  1  0  0  0  0
 37 38  2  0  0  0  0
 38 39  1  0  0  0  0
 39 40  1  0  0  0  0
 38 41  1  0  0  0  0
 41 42  2  0  0  0  0
 25 43  1  0  0  0  0
 43 44  1  0  0  0  0
 44 45  1  0  0  0  0
 45 46  2  0  0  0  0
 46 47  1  0  0  0  0
 47 48  1  0  0  0  0
 48 49  2  0  0  0  0
 49 50  1  0  0  0  0
 50 51  2  0  0  0  0
 51 52  1  0  0  0  0
 52 53  1  0  0  0  0
 51 54  1  0  0  0  0
 54 55  2  0  0  0  0
 47 56  1  0  0  0  0
 56 57  2  0  0  0  0
 57 58  1  0  0  0  0
 58 59  2  0  0  0  0
 59 60  1  0  0  0  0
 60 61  1  0  0  0  0
 59 62  1  0  0  0  0
 62 63  2  0  0  0  0
 46 64  1  0  0  0  0
 64 65  1  0  0  0  0
 45 66  1  0  0  0  0
 66 67  2  0  0  0  0
 67 68  1  0  0  0  0
 68 69  1  0  0  0  0
 69 70  2  0  0  0  0
 70 71  1  0  0  0  0
 71 72  2  0  0  0  0
 72 73  1  0  0  0  0
 73 74  1  0  0  0  0
 72 75  1  0  0  0  0
 75 76  2  0  0  0  0
 68 77  1  0  0  0  0
 77 78  2  0  0  0  0
 78 79  1  0  0  0  0
 79 80  2  0  0  0  0
 80 81  1  0  0  0  0
 81 82  1  0  0  0  0
 80 83  1  0  0  0  0
 83 84  2  0  0  0  0
 67 85  1  0  0  0  0
 85 86  1  0  0  0  0
 86 87  1  0  0  0  0
 87 88  2  0  0  0  0
 88 89  1  0  0  0  0
 89 90  1  0  0  0  0
 90 91  2  0  0  0  0
 91 92  1  0  0  0  0
 92 93  2  0  0  0  0
 93 94  1  0  0  0  0
 94 95  1  0  0  0  0
 93 96  1  0  0  0  0
 96 97  2  0  0  0  0
 89 98  1  0  0  0  0
 98 99  2  0  0  0  0
 99100  1  0  0  0  0
100101  2  0  0  0  0
101102  1  0  0  0  0
102103  1  0  0  0  0
101104  1  0  0  0  0
104105  2  0  0  0  0
 88106  1  0  0  0  0
106107  1  0  0  0  0
 87108  1  0  0  0  0
108109  2  0  0  0  0
109110  1  0  0  0  0
110111  1  0  0  0  0
110112  2  0  0  0  0
112113  1  0  0  0  0
113114  1  0  0  0  0
114115  2  0  0  0  0
115116  1  0  0  0  0
116117  1  0  0  0  0
112118  1  0  0  0  0
118119  2  0  0  0  0
119120  1  0  0  0  0
120121  2  0  0  0  0
120122  1  0  0  0  0
122123  2  0  0  0  0
123124  1  0  0  0  0
124125  1  0  0  0  0
125126  2  0  0  0  0
126127  1  0  0  0  0
127128  2  0  0  0  0
128129  1  0  0  0  0
129130  3  0  0  0  0
128131  1  0  0  0  0
131132  3  0  0  0  0
 11  2  1  0  0  0  0
 23 17  1  0  0  0  0
 65 24  1  0  0  0  0
107 66  1  0  0  0  0
114108  1  0  0  0  0
127119  1  0  0  0  0
 10  5  1  0  0  0  0
 22 18  1  0  0  0  0
 34 27  1  0  0  0  0
 42 35  1  0  0  0  0
 64 43  2  0  0  0  0
 76 69  1  0  0  0  0
 84 77  1  0  0  0  0
106 85  2  0  0  0  0
117113  2  0  0  0  0
126122  1  0  0  0  0
 23  7  1  0  0  0  0
 55 48  1  0  0  0  0
 63 56  1  0  0  0  0
 97 90  1  0  0  0  0
105 98  1  0  0  0  0
  1133  1  0  0  0  0
  6134  1  0  0  0  0
  9135  1  0  0  0  0
 17136  1  0  0  0  0
 18137  1  0  0  0  0
 19138  1  0  0  0  0
 20139  1  0  0  0  0
 21140  1  0  0  0  0
 22141  1  0  0  0  0
 22142  1  0  0  0  0
 23143  1  0  0  0  0
 28144  1  0  0  0  0
 29145  1  0  0  0  0
 32146  1  0  0  0  0
 32147  1  0  0  0  0
 32148  1  0  0  0  0
 33149  1  0  0  0  0
 34150  1  0  0  0  0
 36151  1  0  0  0  0
 37152  1  0  0  0  0
 40153  1  0  0  0  0
 40154  1  0  0  0  0
 40155  1  0  0  0  0
 41156  1  0  0  0  0
 42157  1  0  0  0  0
 49158  1  0  0  0  0
 50159  1  0  0  0  0
 53160  1  0  0  0  0
 53161  1  0  0  0  0
 53162  1  0  0  0  0
 54163  1  0  0  0  0
 55164  1  0  0  0  0
 57165  1  0  0  0  0
 58166  1  0  0  0  0
 61167  1  0  0  0  0
 61168  1  0  0  0  0
 61169  1  0  0  0  0
 62170  1  0  0  0  0
 63171  1  0  0  0  0
 70172  1  0  0  0  0
 71173  1  0  0  0  0
 74174  1  0  0  0  0
 74175  1  0  0  0  0
 74176  1  0  0  0  0
 75177  1  0  0  0  0
 76178  1  0  0  0  0
 78179  1  0  0  0  0
 79180  1  0  0  0  0
 82181  1  0  0  0  0
 82182  1  0  0  0  0
 82183  1  0  0  0  0
 83184  1  0  0  0  0
 84185  1  0  0  0  0
 91186  1  0  0  0  0
 92187  1  0  0  0  0
 95188  1  0  0  0  0
 95189  1  0  0  0  0
 95190  1  0  0  0  0
 96191  1  0  0  0  0
 97192  1  0  0  0  0
 99193  1  0  0  0  0
100194  1  0  0  0  0
103195  1  0  0  0  0
103196  1  0  0  0  0
103197  1  0  0  0  0
104198  1  0  0  0  0
105199  1  0  0  0  0
109200  1  0  0  0  0
118201  1  0  0  0  0
123202  1  0  0  0  0
125203  1  0  0  0  0
M  END
