253

C         -1.56510        6.64590        3.97050
C         -0.87580        7.77990        3.60930
C          0.12960        7.89860        2.54970
O          0.66350        7.00150        1.91740
C          0.34820        9.34360        2.35060
C          1.22170        9.94780        1.45060
C          1.19790       11.32190        1.48370
C          0.36550       12.04420        2.34780
C         -0.49370       11.46000        3.24890
C         -0.48240       10.06360        3.23290
C         -1.21320        9.10830        4.06190
C         -2.05580        9.43620        5.09700
C         -2.49550       10.74000        5.39240
N         -2.95200       11.75650        5.67470
C         -2.59610        8.52830        6.02730
N         -3.05070        7.87320        6.85620
C          0.86920       13.37560        1.84910
C          1.87640       14.14470        2.73920
C          2.59840       13.10780        3.56350
C          3.38920       12.42200        2.74910
C          3.21690       12.98340        1.35930
C          2.95830       14.46100        1.69420
C          1.80020       12.57000        0.88890
C         -1.43000        5.32690        3.53420
C         -2.38300        4.30430        3.78450
N         -3.64430        4.54310        4.28060
C         -4.29220        5.75570        3.95530
C         -4.95070        6.50270        4.92760
C         -5.47160        7.74600        4.62400
C         -5.33780        8.26440        3.34320
S         -5.87800        9.87320        2.86590
C         -6.31230       10.67700        4.43340
C         -4.74060        7.48640        2.35040
C         -4.23190        6.24360        2.64880
C         -4.26240        3.67310        5.18600
C         -5.65740        3.61890        5.24830
C         -6.28150        2.91320        6.24940
C         -5.53450        2.21690        7.20030
S         -6.44760        1.47570        8.51260
C         -5.19390        0.59380        9.47670
C         -4.15160        2.18680        7.08140
C         -3.52250        2.91500        6.08930
C         -1.90060        3.05650        3.35400
S         -2.54460        1.43620        3.28710
C         -1.12350        0.88800        2.40490
C         -0.18290        1.89720        2.26340
N          1.07440        1.67740        1.71330
C          1.83440        0.60020        2.18620
C          2.68590       -0.09920        1.33070
C          3.44100       -1.14930        1.80670
C          3.36940       -1.51760        3.14970
S          4.37490       -2.87460        3.66150
C          3.91760       -3.12830        5.40250
C          2.51910       -0.82700        4.00390
C          1.75500        0.21560        3.52180
C          1.64970        2.69070        0.93800
C          2.99450        3.03130        1.07230
C          3.50060        4.11760        0.39280
C          2.67730        4.88220       -0.42840
S          3.38070        6.30940       -1.19310
C          1.91450        7.34480       -1.46150
C          1.35820        4.49930       -0.62450
C          0.85100        3.41070        0.05340
C         -0.63450        3.12860        2.78000
S         -0.01330        4.72910        2.68020
C         -0.96430       -0.31400        1.62650
C         -0.79020       -1.65820        1.90720
N         -1.08540       -2.26480        3.11140
C         -0.56990       -3.55170        3.36880
C         -1.41790       -4.61440        3.66530
C         -0.91210       -5.88390        3.86510
C          0.45620       -6.10750        3.79070
S          1.20750       -7.69170        3.99400
C         -0.18550       -8.81090        4.29910
C          1.31070       -5.03870        3.53350
C          0.80190       -3.77910        3.30790
C         -2.21880       -1.87440        3.84420
C         -2.19640       -2.00600        5.23230
C         -3.32120       -1.72600        5.97210
C         -4.49440       -1.30970        5.34400
S         -5.89510       -1.06470        6.38190
C         -7.13230       -0.31540        5.29420
C         -4.51380       -1.15480        3.96610
C         -3.38300       -1.43500        3.22300
C         -0.31080       -2.35670        0.76350
S          0.25100       -3.96750        0.44110
C          0.47280       -3.58250       -1.26040
C          0.08450       -2.28310       -1.55910
N          0.00550       -1.69040       -2.81870
C         -0.80750       -2.22490       -3.81640
C         -0.58830       -1.89880       -5.15520
C         -1.29230       -2.52010       -6.16500
C         -2.22980       -3.49800       -5.86330
S         -3.11260       -4.42830       -7.07850
C         -2.46520       -3.81810       -8.65940
C         -2.49370       -3.79250       -4.52800
C         -1.80330       -3.15950       -3.51820
C          0.60890       -0.42870       -2.95630
C          1.89660       -0.23300       -2.46690
C          2.53330        0.98300       -2.62000
C          1.89000        2.02270       -3.27680
S          2.63100        3.58330       -3.62210
C          4.35550        3.36820       -3.11450
C          0.58300        1.84340       -3.72820
C         -0.05540        0.63490       -3.56580
C         -0.27030       -1.58640       -0.38490
S         -0.70590        0.04590       -0.08880
C          1.01660       -4.54930       -2.14270
C          1.54550       -5.79400       -1.82450
N          1.82030       -6.22020       -0.51160
C          1.16680       -7.39430       -0.08850
C          1.85880       -8.55130        0.25300
C          1.18440       -9.67200        0.69770
C         -0.19980       -9.65810        0.78820
S         -1.16980      -11.01110        1.38950
C          0.03960      -12.33960        1.64170
C         -0.90080       -8.51760        0.40270
C         -0.22590       -7.39960       -0.03370
C          3.04690       -5.81790        0.03150
C          3.43550       -6.23210        1.30360
C          4.64350       -5.83970        1.84710
C          5.49320       -5.00390        1.13820
S          7.07780       -4.46300        1.70210
C          7.23210       -5.20900        3.34680
C          5.09660       -4.55450       -0.11660
C          3.89760       -4.95450       -0.66390
C          1.95990       -6.48580       -2.98260
S          2.59780       -8.05580       -3.34370
C          2.69360       -7.66010       -5.06300
C          2.24670       -6.37650       -5.32260
N          2.21490       -5.73600       -6.56930
C          1.22740       -6.12920       -7.48980
C          0.07400       -6.78150       -7.06730
C         -0.91490       -7.12660       -7.96820
C         -0.76860       -6.81260       -9.31120
S         -1.99900       -7.13200      -10.53700
C         -3.41070       -7.75420       -9.57940
C          0.40160       -6.18980       -9.74590
C          1.39170       -5.85750       -8.84900
C          2.64920       -4.39770       -6.52400
C          1.96170       -3.35850       -7.14110
C          2.35170       -2.04450       -6.96010
C          3.42800       -1.74030       -6.14010
S          3.94850       -0.09940       -5.74370
C          2.71790        0.96680       -6.54280
C          4.15790       -2.78050       -5.56740
C          3.78310       -4.08880       -5.76700
C          1.82880       -5.73670       -4.14100
S          1.15070       -4.18590       -3.84990
C          3.22720       -8.60020       -5.98130
C          3.66260       -9.88240       -5.71330
C          4.18240      -10.53310       -6.83130
C          4.14810       -9.75400       -7.96590
C          4.58920      -10.10200       -9.24070
N          4.95660      -10.39800      -10.28840
S          3.45940       -8.18680       -7.65290
H         -2.36630        6.79790        4.68110
H          1.85550        9.35800        0.80750
H         -1.12430       12.02810        3.91260
H          0.12310       14.03110        1.40420
H          1.44860       14.98040        3.28650
H          2.42180       12.94660        4.61090
H          4.00530       11.57270        2.97960
H          4.01060       12.76190        0.65050
H          2.58880       15.03940        0.84840
H          3.82860       14.95390        2.12480
H          1.66430       12.70280       -0.18290
H         -5.01840        6.13220        5.93850
H         -5.95110        8.30930        5.40730
H         -7.17470       10.19010        4.87920
H         -5.45770       10.66930        5.10370
H         -6.56200       11.70080        4.17280
H         -4.67520        7.87740        1.34670
H         -3.75550        5.65440        1.87950
H         -6.24580        4.16000        4.52250
H         -7.35850        2.90690        6.32160
H         -4.47460        1.29750        9.88520
H         -5.73390        0.10730       10.28280
H         -4.71750       -0.15280        8.84820
H         -3.54610        1.62640        7.77470
H         -2.44390        2.92910        6.04590
H          2.74230        0.19110        0.29230
H          4.09190       -1.70340        1.14710
H          4.19860       -2.26170        5.99390
H          2.85450       -3.33840        5.47960
H          4.48450       -3.99340        5.73340
H          2.44200       -1.08780        5.04700
H          1.09950        0.74870        4.19450
H          3.62870        2.46550        1.73860
H          4.53320        4.40700        0.52040
H          1.30270        7.31300       -0.56400
H          1.36350        6.99690       -2.33080
H          2.28170        8.35080       -1.64230
H          0.71800        5.04120       -1.30060
H         -0.17770        3.11550       -0.09410
H         -2.48410       -4.45010        3.72070
H         -1.59930       -6.68970        4.06500
H         -0.84970       -8.81920        3.44000
H          0.25430       -9.79430        4.43300
H         -0.70710       -8.51750        5.20540
H          2.37530       -5.20160        3.49330
H          1.46070       -2.95960        3.07280
H         -1.29320       -2.34650        5.71630
H         -3.31140       -1.84080        7.04540
H         -6.71280        0.56850        4.82200
H         -7.47340       -1.03960        4.55990
H         -7.95360       -0.03220        5.94530
H         -5.40590       -0.83400        3.45370
H         -3.41670       -1.34020        2.14800
H          0.17610       -1.18110       -5.40640
H         -1.08320       -2.24490       -7.18590
H         -1.39780       -4.00990       -8.72040
H         -2.97890       -4.38360       -9.43080
H         -2.68980       -2.76150       -8.77000
H         -3.24330       -4.53230       -4.29120
H         -2.01640       -3.40710       -2.48910
H          2.40770       -1.05250       -1.98200
H          3.53640        1.09970       -2.24340
H          4.79380        2.53390       -3.65520
H          4.40720        3.22380       -2.03890
H          4.85480        4.29490       -3.37970
H          0.07980        2.66590       -4.21360
H         -1.06890        0.50300       -3.91460
H          2.93470       -8.57710        0.16920
H          1.75330      -10.54760        0.96480
H          0.75480      -12.05560        2.40840
H          0.53660      -12.56850        0.70360
H         -0.53530      -13.19830        1.97430
H         -1.97910       -8.51880        0.45940
H         -0.77090       -6.51420       -0.32360
H          2.78970       -6.87710        1.87770
H          4.90420       -6.19780        2.83010
H          8.19880       -4.89080        3.72410
H          6.44130       -4.83400        3.98930
H          7.20310       -6.29200        3.26960
H          5.74870       -3.89450       -0.66880
H          3.63340       -4.59330       -1.64610
H         -0.06720       -7.00340       -6.01960
H         -1.80030       -7.61790       -7.60060
H         -3.16980       -8.72050       -9.14620
H         -4.22040       -7.86460      -10.29390
H         -3.68600       -7.03470       -8.81340
H          0.51980       -5.96950      -10.79580
H          2.29690       -5.37700       -9.18810
H          1.09460       -3.57310       -7.74600
H          1.79000       -1.26610       -7.45190
H          1.72710        0.73930       -6.15990
H          2.98530        1.98280       -6.26850
H          2.76740        0.85110       -7.62160
H          5.01680       -2.54640       -4.95730
H          4.35300       -4.88610       -5.31270
H          3.60000      -10.31930       -4.73250
H          4.57120      -11.53580       -6.82510
