
  xtb     02132202583D
 energy: -334.303415469524 gnorm: 0.000926808357 xtb: 6.4.1 (unknown)
202223  0     0  0            999 V2000
   -5.5065   -4.5926   -3.3316 C   0  0  0  0  0  0  0  0  0  0  0  0
   -6.3504   -5.4681   -2.6847 C   0  0  0  0  0  0  0  0  0  0  0  0
   -6.2061   -5.8723   -1.2771 C   0  0  0  0  0  0  0  0  0  0  0  0
   -5.3771   -5.4791   -0.4765 O   0  0  0  0  0  0  0  0  0  0  0  0
   -7.1907   -6.9560   -1.0702 C   0  0  0  0  0  0  0  0  0  0  0  0
   -7.4374   -7.6552    0.1073 C   0  0  0  0  0  0  0  0  0  0  0  0
   -8.4374   -8.5936    0.0027 C   0  0  0  0  0  0  0  0  0  0  0  0
   -9.1366   -8.8267   -1.1874 C   0  0  0  0  0  0  0  0  0  0  0  0
   -8.8998   -8.1474   -2.3592 C   0  0  0  0  0  0  0  0  0  0  0  0
   -7.8893   -7.1880   -2.2710 C   0  0  0  0  0  0  0  0  0  0  0  0
   -7.3933   -6.2555   -3.2788 C   0  0  0  0  0  0  0  0  0  0  0  0
   -7.9421   -6.0404   -4.5201 C   0  0  0  0  0  0  0  0  0  0  0  0
   -9.0080   -6.7779   -5.0669 C   0  0  0  0  0  0  0  0  0  0  0  0
   -9.8802   -7.3235   -5.5795 N   0  0  0  0  0  0  0  0  0  0  0  0
   -7.5677   -4.9815   -5.3697 C   0  0  0  0  0  0  0  0  0  0  0  0
   -7.3669   -4.1113   -6.0936 N   0  0  0  0  0  0  0  0  0  0  0  0
   -9.9895   -9.9074   -0.5708 C   0  0  0  0  0  0  0  0  0  0  0  0
   -9.6082  -11.3641   -0.9084 C   0  0  0  0  0  0  0  0  0  0  0  0
  -10.2757  -12.1741    0.1793 C   0  0  0  0  0  0  0  0  0  0  0  0
   -9.6170  -11.9521    1.3095 C   0  0  0  0  0  0  0  0  0  0  0  0
   -8.4927  -10.9888    1.0043 C   0  0  0  0  0  0  0  0  0  0  0  0
   -8.1528  -11.4245   -0.4268 C   0  0  0  0  0  0  0  0  0  0  0  0
   -9.2119   -9.6455    0.7589 C   0  0  0  0  0  0  0  0  0  0  0  0
   -4.7545   -3.5773   -2.7338 C   0  0  0  0  0  0  0  0  0  0  0  0
   -4.9351   -2.8625   -1.5319 C   0  0  0  0  0  0  0  0  0  0  0  0
   -6.0281   -2.8987   -0.7120 N   0  0  0  0  0  0  0  0  0  0  0  0
   -5.8778   -2.5353    0.6417 C   0  0  0  0  0  0  0  0  0  0  0  0
   -4.8257   -3.0447    1.3945 C   0  0  0  0  0  0  0  0  0  0  0  0
   -4.6671   -2.6746    2.7154 C   0  0  0  0  0  0  0  0  0  0  0  0
   -5.5622   -1.7881    3.2999 C   0  0  0  0  0  0  0  0  0  0  0  0
   -5.4546   -1.2284    4.9687 S   0  0  0  0  0  0  0  0  0  0  0  0
   -3.9051   -1.9539    5.5755 C   0  0  0  0  0  0  0  0  0  0  0  0
   -6.6322   -1.2973    2.5523 C   0  0  0  0  0  0  0  0  0  0  0  0
   -6.7914   -1.6667    1.2358 C   0  0  0  0  0  0  0  0  0  0  0  0
   -7.3021   -3.2735   -1.1544 C   0  0  0  0  0  0  0  0  0  0  0  0
   -8.1240   -4.0455   -0.3292 C   0  0  0  0  0  0  0  0  0  0  0  0
   -9.3486   -4.4825   -0.7805 C   0  0  0  0  0  0  0  0  0  0  0  0
   -9.7909   -4.1554   -2.0619 C   0  0  0  0  0  0  0  0  0  0  0  0
  -11.3283   -4.8506   -2.5614 S   0  0  0  0  0  0  0  0  0  0  0  0
  -11.5650   -4.2496   -4.2563 C   0  0  0  0  0  0  0  0  0  0  0  0
   -9.0065   -3.3294   -2.8599 C   0  0  0  0  0  0  0  0  0  0  0  0
   -7.7758   -2.8971   -2.4094 C   0  0  0  0  0  0  0  0  0  0  0  0
   -3.8610   -1.9611   -1.3277 C   0  0  0  0  0  0  0  0  0  0  0  0
   -3.4978   -0.7794   -0.1105 S   0  0  0  0  0  0  0  0  0  0  0  0
   -2.0595   -0.3020   -0.9810 C   0  0  0  0  0  0  0  0  0  0  0  0
   -1.9095   -0.9647   -2.1893 C   0  0  0  0  0  0  0  0  0  0  0  0
   -0.9634   -0.6643   -3.1518 N   0  0  0  0  0  0  0  0  0  0  0  0
   -0.4202   -1.6945   -3.9295 C   0  0  0  0  0  0  0  0  0  0  0  0
   -0.1059   -1.4754   -5.2671 C   0  0  0  0  0  0  0  0  0  0  0  0
    0.4114   -2.4927   -6.0448 C   0  0  0  0  0  0  0  0  0  0  0  0
    0.6144   -3.7521   -5.4971 C   0  0  0  0  0  0  0  0  0  0  0  0
    1.2552   -5.1332   -6.3909 S   0  0  0  0  0  0  0  0  0  0  0  0
    1.5036   -4.4936   -8.0717 C   0  0  0  0  0  0  0  0  0  0  0  0
    0.3082   -3.9726   -4.1559 C   0  0  0  0  0  0  0  0  0  0  0  0
   -0.1977   -2.9563   -3.3778 C   0  0  0  0  0  0  0  0  0  0  0  0
   -0.5396    0.6615   -3.3228 C   0  0  0  0  0  0  0  0  0  0  0  0
   -1.4544    1.7088   -3.2415 C   0  0  0  0  0  0  0  0  0  0  0  0
   -1.0341    3.0220   -3.3138 C   0  0  0  0  0  0  0  0  0  0  0  0
    0.3131    3.3127   -3.4828 C   0  0  0  0  0  0  0  0  0  0  0  0
    0.9751    4.9483   -3.5357 S   0  0  0  0  0  0  0  0  0  0  0  0
   -0.4996    6.0081   -3.6267 C   0  0  0  0  0  0  0  0  0  0  0  0
    1.2269    2.2677   -3.6061 C   0  0  0  0  0  0  0  0  0  0  0  0
    0.8083    0.9581   -3.5293 C   0  0  0  0  0  0  0  0  0  0  0  0
   -2.9340   -1.9272   -2.3599 C   0  0  0  0  0  0  0  0  0  0  0  0
   -3.3385   -3.0120   -3.6346 S   0  0  0  0  0  0  0  0  0  0  0  0
   -1.2007    0.7426   -0.4761 C   0  0  0  0  0  0  0  0  0  0  0  0
   -1.7004    1.9726   -0.0036 C   0  0  0  0  0  0  0  0  0  0  0  0
   -2.9598    2.3882    0.1816 N   0  0  0  0  0  0  0  0  0  0  0  0
   -2.8344    3.6294    0.5605 N   0  0  0  0  0  0  0  0  0  0  0  0
   -3.9797    4.4496    0.8339 C   0  0  0  0  0  0  0  0  0  0  0  0
   -4.2888    5.3468   -0.3607 C   0  0  0  0  0  0  0  0  0  0  0  0
   -1.6213    4.1022    0.6375 N   0  0  0  0  0  0  0  0  0  0  0  0
   -0.8378    3.0728    0.2828 C   0  0  0  0  0  0  0  0  0  0  0  0
    0.5659    2.9884    0.1548 C   0  0  0  0  0  0  0  0  0  0  0  0
    1.0332    1.7508   -0.2462 C   0  0  0  0  0  0  0  0  0  0  0  0
    0.1791    0.6705   -0.5370 C   0  0  0  0  0  0  0  0  0  0  0  0
    0.7579   -0.4835   -0.9223 F   0  0  0  0  0  0  0  0  0  0  0  0
    2.3342    1.5474   -0.4912 F   0  0  0  0  0  0  0  0  0  0  0  0
    1.4170    4.1549    0.3596 C   0  0  0  0  0  0  0  0  0  0  0  0
    1.0439    5.3862   -0.1475 C   0  0  0  0  0  0  0  0  0  0  0  0
    1.9050    6.4768   -0.1184 C   0  0  0  0  0  0  0  0  0  0  0  0
    3.1724    6.3857    0.4322 C   0  0  0  0  0  0  0  0  0  0  0  0
    3.5189    5.1816    1.1117 C   0  0  0  0  0  0  0  0  0  0  0  0
    4.5872    5.1396    1.9150 N   0  0  0  0  0  0  0  0  0  0  0  0
    4.9200    4.0190    2.5080 C   0  0  0  0  0  0  0  0  0  0  0  0
    5.9996    4.0952    3.4950 C   0  0  0  0  0  0  0  0  0  0  0  0
    7.0620    4.9697    3.2739 C   0  0  0  0  0  0  0  0  0  0  0  0
    8.0896    5.0696    4.1881 C   0  0  0  0  0  0  0  0  0  0  0  0
    8.0856    4.3088    5.3516 C   0  0  0  0  0  0  0  0  0  0  0  0
    9.2417    4.3773    6.3060 C   0  0  0  0  0  0  0  0  0  0  0  0
   10.3661    3.4480    5.8431 C   0  0  0  0  0  0  0  0  0  0  0  0
    7.0109    3.4585    5.5832 C   0  0  0  0  0  0  0  0  0  0  0  0
    5.9765    3.3528    4.6744 C   0  0  0  0  0  0  0  0  0  0  0  0
    4.1768    2.8218    2.2375 C   0  0  0  0  0  0  0  0  0  0  0  0
    3.0337    2.8992    1.6046 N   0  0  0  0  0  0  0  0  0  0  0  0
    2.6562    4.0548    1.0401 C   0  0  0  0  0  0  0  0  0  0  0  0
    4.6142    1.4890    2.6524 C   0  0  0  0  0  0  0  0  0  0  0  0
    3.6693    0.5419    3.0406 C   0  0  0  0  0  0  0  0  0  0  0  0
    4.0663   -0.7237    3.4218 C   0  0  0  0  0  0  0  0  0  0  0  0
    5.4088   -1.0835    3.4072 C   0  0  0  0  0  0  0  0  0  0  0  0
    5.8450   -2.4412    3.8756 C   0  0  0  0  0  0  0  0  0  0  0  0
    6.1693   -2.4080    5.3710 C   0  0  0  0  0  0  0  0  0  0  0  0
    6.3451   -0.1443    2.9895 C   0  0  0  0  0  0  0  0  0  0  0  0
    5.9593    1.1268    2.6152 C   0  0  0  0  0  0  0  0  0  0  0  0
    4.0887    7.4916    0.4090 C   0  0  0  0  0  0  0  0  0  0  0  0
    5.4344    7.3604    0.3051 C   0  0  0  0  0  0  0  0  0  0  0  0
    6.1315    6.1206   -0.1377 C   0  0  0  0  0  0  0  0  0  0  0  0
    5.6436    5.1188   -0.6121 O   0  0  0  0  0  0  0  0  0  0  0  0
    7.5741    6.4135   -0.0202 C   0  0  0  0  0  0  0  0  0  0  0  0
    8.6250    5.5320   -0.2691 C   0  0  0  0  0  0  0  0  0  0  0  0
    9.8709    6.0833   -0.0962 C   0  0  0  0  0  0  0  0  0  0  0  0
   10.0602    7.4192    0.2855 C   0  0  0  0  0  0  0  0  0  0  0  0
    9.0346    8.3018    0.5220 C   0  0  0  0  0  0  0  0  0  0  0  0
    7.7543    7.7592    0.3580 C   0  0  0  0  0  0  0  0  0  0  0  0
    6.4445    8.3846    0.5162 C   0  0  0  0  0  0  0  0  0  0  0  0
    6.2223    9.6987    0.8323 C   0  0  0  0  0  0  0  0  0  0  0  0
    4.9552   10.3038    0.9711 C   0  0  0  0  0  0  0  0  0  0  0  0
    3.9698   10.8797    1.0999 N   0  0  0  0  0  0  0  0  0  0  0  0
    7.2367   10.6552    1.0484 C   0  0  0  0  0  0  0  0  0  0  0  0
    8.0040   11.4904    1.2284 N   0  0  0  0  0  0  0  0  0  0  0  0
   11.5640    7.2957    0.2640 C   0  0  0  0  0  0  0  0  0  0  0  0
   12.2666    7.1639    1.6318 C   0  0  0  0  0  0  0  0  0  0  0  0
   13.6217    6.5887    1.2882 C   0  0  0  0  0  0  0  0  0  0  0  0
   13.4437    5.3245    0.9262 C   0  0  0  0  0  0  0  0  0  0  0  0
   11.9652    5.0237    1.0194 C   0  0  0  0  0  0  0  0  0  0  0  0
   11.5885    5.9150    2.2092 C   0  0  0  0  0  0  0  0  0  0  0  0
   11.3528    5.8070   -0.1614 C   0  0  0  0  0  0  0  0  0  0  0  0
   -5.3697   -4.7043   -4.4011 H   0  0  0  0  0  0  0  0  0  0  0  0
   -6.8805   -7.4428    1.0067 H   0  0  0  0  0  0  0  0  0  0  0  0
   -9.4440   -8.3353   -3.2698 H   0  0  0  0  0  0  0  0  0  0  0  0
  -11.0635   -9.7322   -0.5899 H   0  0  0  0  0  0  0  0  0  0  0  0
   -9.8097  -11.6614   -1.9339 H   0  0  0  0  0  0  0  0  0  0  0  0
  -11.1630  -12.7614    0.0313 H   0  0  0  0  0  0  0  0  0  0  0  0
   -9.8442  -12.3168    2.2942 H   0  0  0  0  0  0  0  0  0  0  0  0
   -7.6774  -10.9453    1.7218 H   0  0  0  0  0  0  0  0  0  0  0  0
   -7.7480  -12.4347   -0.4646 H   0  0  0  0  0  0  0  0  0  0  0  0
   -7.4838  -10.7440   -0.9501 H   0  0  0  0  0  0  0  0  0  0  0  0
   -9.7689   -9.2954    1.6264 H   0  0  0  0  0  0  0  0  0  0  0  0
   -4.1523   -3.7554    0.9419 H   0  0  0  0  0  0  0  0  0  0  0  0
   -3.8466   -3.0908    3.2764 H   0  0  0  0  0  0  0  0  0  0  0  0
   -3.9826   -3.0370    5.5964 H   0  0  0  0  0  0  0  0  0  0  0  0
   -3.7813   -1.5754    6.5855 H   0  0  0  0  0  0  0  0  0  0  0  0
   -3.0770   -1.6268    4.9538 H   0  0  0  0  0  0  0  0  0  0  0  0
   -7.3296   -0.6182    3.0181 H   0  0  0  0  0  0  0  0  0  0  0  0
   -7.6174   -1.2804    0.6573 H   0  0  0  0  0  0  0  0  0  0  0  0
   -7.7808   -4.3176    0.6571 H   0  0  0  0  0  0  0  0  0  0  0  0
   -9.9701   -5.1046   -0.1551 H   0  0  0  0  0  0  0  0  0  0  0  0
  -12.5009   -4.6878   -4.5885 H   0  0  0  0  0  0  0  0  0  0  0  0
  -11.6410   -3.1663   -4.2602 H   0  0  0  0  0  0  0  0  0  0  0  0
  -10.7572   -4.5948   -4.8946 H   0  0  0  0  0  0  0  0  0  0  0  0
   -9.3339   -3.0256   -3.8409 H   0  0  0  0  0  0  0  0  0  0  0  0
   -7.1730   -2.2683   -3.0472 H   0  0  0  0  0  0  0  0  0  0  0  0
   -0.2724   -0.5009   -5.7020 H   0  0  0  0  0  0  0  0  0  0  0  0
    0.6422   -2.2888   -7.0778 H   0  0  0  0  0  0  0  0  0  0  0  0
    1.8842   -5.3308   -8.6485 H   0  0  0  0  0  0  0  0  0  0  0  0
    0.5563   -4.1612   -8.4860 H   0  0  0  0  0  0  0  0  0  0  0  0
    2.2355   -3.6912   -8.0608 H   0  0  0  0  0  0  0  0  0  0  0  0
    0.4803   -4.9499   -3.7321 H   0  0  0  0  0  0  0  0  0  0  0  0
   -0.4093   -3.1286   -2.3337 H   0  0  0  0  0  0  0  0  0  0  0  0
   -2.5040    1.4928   -3.1044 H   0  0  0  0  0  0  0  0  0  0  0  0
   -1.7693    3.8072   -3.2366 H   0  0  0  0  0  0  0  0  0  0  0  0
   -1.0998    5.7328   -4.4886 H   0  0  0  0  0  0  0  0  0  0  0  0
   -0.1235    7.0192   -3.7469 H   0  0  0  0  0  0  0  0  0  0  0  0
   -1.0764    5.9386   -2.7087 H   0  0  0  0  0  0  0  0  0  0  0  0
    2.2728    2.4977   -3.7376 H   0  0  0  0  0  0  0  0  0  0  0  0
    1.5251    0.1542   -3.5977 H   0  0  0  0  0  0  0  0  0  0  0  0
   -4.8129    3.7762    1.0401 H   0  0  0  0  0  0  0  0  0  0  0  0
   -3.7572    5.0566    1.7139 H   0  0  0  0  0  0  0  0  0  0  0  0
   -5.1591    5.9601   -0.1464 H   0  0  0  0  0  0  0  0  0  0  0  0
   -4.4947    4.7442   -1.2423 H   0  0  0  0  0  0  0  0  0  0  0  0
   -3.4435    5.9995   -0.5648 H   0  0  0  0  0  0  0  0  0  0  0  0
    0.0793    5.4829   -0.6180 H   0  0  0  0  0  0  0  0  0  0  0  0
    1.6057    7.3997   -0.5934 H   0  0  0  0  0  0  0  0  0  0  0  0
    7.0705    5.5591    2.3702 H   0  0  0  0  0  0  0  0  0  0  0  0
    8.9069    5.7529    4.0050 H   0  0  0  0  0  0  0  0  0  0  0  0
    9.6198    5.4005    6.3555 H   0  0  0  0  0  0  0  0  0  0  0  0
    8.9183    4.0825    7.3059 H   0  0  0  0  0  0  0  0  0  0  0  0
   10.7036    3.7292    4.8478 H   0  0  0  0  0  0  0  0  0  0  0  0
   11.2107    3.5025    6.5259 H   0  0  0  0  0  0  0  0  0  0  0  0
   10.0143    2.4194    5.8065 H   0  0  0  0  0  0  0  0  0  0  0  0
    6.9804    2.8751    6.4926 H   0  0  0  0  0  0  0  0  0  0  0  0
    5.1398    2.7042    4.8877 H   0  0  0  0  0  0  0  0  0  0  0  0
    2.6263    0.8199    3.0452 H   0  0  0  0  0  0  0  0  0  0  0  0
    3.3252   -1.4477    3.7300 H   0  0  0  0  0  0  0  0  0  0  0  0
    6.7318   -2.7572    3.3228 H   0  0  0  0  0  0  0  0  0  0  0  0
    5.0517   -3.1690    3.6953 H   0  0  0  0  0  0  0  0  0  0  0  0
    6.9646   -1.6927    5.5694 H   0  0  0  0  0  0  0  0  0  0  0  0
    6.4906   -3.3891    5.7131 H   0  0  0  0  0  0  0  0  0  0  0  0
    5.2923   -2.1109    5.9419 H   0  0  0  0  0  0  0  0  0  0  0  0
    7.3904   -0.4165    2.9528 H   0  0  0  0  0  0  0  0  0  0  0  0
    6.6979    1.8372    2.2740 H   0  0  0  0  0  0  0  0  0  0  0  0
    3.6489    8.4739    0.5200 H   0  0  0  0  0  0  0  0  0  0  0  0
    8.4313    4.5139   -0.5688 H   0  0  0  0  0  0  0  0  0  0  0  0
    9.1985    9.3283    0.8038 H   0  0  0  0  0  0  0  0  0  0  0  0
   12.0846    7.9641   -0.4190 H   0  0  0  0  0  0  0  0  0  0  0  0
   12.2569    8.0660    2.2375 H   0  0  0  0  0  0  0  0  0  0  0  0
   14.5325    7.1581    1.2887 H   0  0  0  0  0  0  0  0  0  0  0  0
   14.1762    4.6273    0.5639 H   0  0  0  0  0  0  0  0  0  0  0  0
   11.6804    3.9759    1.0680 H   0  0  0  0  0  0  0  0  0  0  0  0
   10.5152    6.0215    2.3534 H   0  0  0  0  0  0  0  0  0  0  0  0
   12.0541    5.5850    3.1369 H   0  0  0  0  0  0  0  0  0  0  0  0
   11.7321    5.4832   -1.1289 H   0  0  0  0  0  0  0  0  0  0  0  0
  1  2  2  0  0  0  0
  2  3  1  0  0  0  0
  3  4  2  0  0  0  0
  3  5  1  0  0  0  0
  5  6  2  0  0  0  0
  6  7  1  0  0  0  0
  7  8  2  0  0  0  0
  8  9  1  0  0  0  0
  9 10  2  0  0  0  0
 10 11  1  0  0  0  0
 11 12  2  0  0  0  0
 12 13  1  0  0  0  0
 13 14  3  0  0  0  0
 12 15  1  0  0  0  0
 15 16  3  0  0  0  0
  8 17  1  0  0  0  0
 17 18  1  0  0  0  0
 18 19  1  0  0  0  0
 19 20  2  0  0  0  0
 20 21  1  0  0  0  0
 21 22  1  0  0  0  0
 21 23  1  0  0  0  0
  1 24  1  0  0  0  0
 24 25  2  0  0  0  0
 25 26  1  0  0  0  0
 26 27  1  0  0  0  0
 27 28  2  0  0  0  0
 28 29  1  0  0  0  0
 29 30  2  0  0  0  0
 30 31  1  0  0  0  0
 31 32  1  0  0  0  0
 30 33  1  0  0  0  0
 33 34  2  0  0  0  0
 26 35  1  0  0  0  0
 35 36  2  0  0  0  0
 36 37  1  0  0  0  0
 37 38  2  0  0  0  0
 38 39  1  0  0  0  0
 39 40  1  0  0  0  0
 38 41  1  0  0  0  0
 41 42  2  0  0  0  0
 25 43  1  0  0  0  0
 43 44  1  0  0  0  0
 44 45  1  0  0  0  0
 45 46  2  0  0  0  0
 46 47  1  0  0  0  0
 47 48  1  0  0  0  0
 48 49  2  0  0  0  0
 49 50  1  0  0  0  0
 50 51  2  0  0  0  0
 51 52  1  0  0  0  0
 52 53  1  0  0  0  0
 51 54  1  0  0  0  0
 54 55  2  0  0  0  0
 47 56  1  0  0  0  0
 56 57  2  0  0  0  0
 57 58  1  0  0  0  0
 58 59  2  0  0  0  0
 59 60  1  0  0  0  0
 60 61  1  0  0  0  0
 59 62  1  0  0  0  0
 62 63  2  0  0  0  0
 46 64  1  0  0  0  0
 64 65  1  0  0  0  0
 45 66  1  0  0  0  0
 66 67  1  0  0  0  0
 67 68  2  0  0  0  0
 68 69  1  0  0  0  0
 69 70  1  0  0  0  0
 70 71  1  0  0  0  0
 69 72  1  0  0  0  0
 72 73  2  0  0  0  0
 73 74  1  0  0  0  0
 74 75  2  0  0  0  0
 75 76  1  0  0  0  0
 76 77  1  0  0  0  0
 75 78  1  0  0  0  0
 74 79  1  0  0  0  0
 79 80  2  0  0  0  0
 80 81  1  0  0  0  0
 81 82  2  0  0  0  0
 82 83  1  0  0  0  0
 83 84  2  0  0  0  0
 84 85  1  0  0  0  0
 85 86  1  0  0  0  0
 86 87  2  0  0  0  0
 87 88  1  0  0  0  0
 88 89  2  0  0  0  0
 89 90  1  0  0  0  0
 90 91  1  0  0  0  0
 89 92  1  0  0  0  0
 92 93  2  0  0  0  0
 85 94  2  0  0  0  0
 94 95  1  0  0  0  0
 95 96  2  0  0  0  0
 94 97  1  0  0  0  0
 97 98  2  0  0  0  0
 98 99  1  0  0  0  0
 99100  2  0  0  0  0
100101  1  0  0  0  0
101102  1  0  0  0  0
100103  1  0  0  0  0
103104  2  0  0  0  0
 82105  1  0  0  0  0
105106  2  0  0  0  0
106107  1  0  0  0  0
107108  2  0  0  0  0
107109  1  0  0  0  0
109110  2  0  0  0  0
110111  1  0  0  0  0
111112  2  0  0  0  0
112113  1  0  0  0  0
113114  2  0  0  0  0
114115  1  0  0  0  0
115116  2  0  0  0  0
116117  1  0  0  0  0
117118  3  0  0  0  0
116119  1  0  0  0  0
119120  3  0  0  0  0
112121  1  0  0  0  0
121122  1  0  0  0  0
122123  1  0  0  0  0
123124  2  0  0  0  0
124125  1  0  0  0  0
125126  1  0  0  0  0
125127  1  0  0  0  0
 11  2  1  0  0  0  0
 23 17  1  0  0  0  0
 65 24  1  0  0  0  0
 76 66  2  0  0  0  0
 96 79  1  0  0  0  0
104 97  1  0  0  0  0
115106  1  0  0  0  0
127121  1  0  0  0  0
 10  5  1  0  0  0  0
 22 18  1  0  0  0  0
 34 27  1  0  0  0  0
 42 35  1  0  0  0  0
 64 43  2  0  0  0  0
 73 67  1  0  0  0  0
 96 83  1  0  0  0  0
114109  1  0  0  0  0
126122  1  0  0  0  0
 23  7  1  0  0  0  0
 55 48  1  0  0  0  0
 63 56  1  0  0  0  0
 93 86  1  0  0  0  0
127111  1  0  0  0  0
  1128  1  0  0  0  0
  6129  1  0  0  0  0
  9130  1  0  0  0  0
 17131  1  0  0  0  0
 18132  1  0  0  0  0
 19133  1  0  0  0  0
 20134  1  0  0  0  0
 21135  1  0  0  0  0
 22136  1  0  0  0  0
 22137  1  0  0  0  0
 23138  1  0  0  0  0
 28139  1  0  0  0  0
 29140  1  0  0  0  0
 32141  1  0  0  0  0
 32142  1  0  0  0  0
 32143  1  0  0  0  0
 33144  1  0  0  0  0
 34145  1  0  0  0  0
 36146  1  0  0  0  0
 37147  1  0  0  0  0
 40148  1  0  0  0  0
 40149  1  0  0  0  0
 40150  1  0  0  0  0
 41151  1  0  0  0  0
 42152  1  0  0  0  0
 49153  1  0  0  0  0
 50154  1  0  0  0  0
 53155  1  0  0  0  0
 53156  1  0  0  0  0
 53157  1  0  0  0  0
 54158  1  0  0  0  0
 55159  1  0  0  0  0
 57160  1  0  0  0  0
 58161  1  0  0  0  0
 61162  1  0  0  0  0
 61163  1  0  0  0  0
 61164  1  0  0  0  0
 62165  1  0  0  0  0
 63166  1  0  0  0  0
 70167  1  0  0  0  0
 70168  1  0  0  0  0
 71169  1  0  0  0  0
 71170  1  0  0  0  0
 71171  1  0  0  0  0
 80172  1  0  0  0  0
 81173  1  0  0  0  0
 87174  1  0  0  0  0
 88175  1  0  0  0  0
 90176  1  0  0  0  0
 90177  1  0  0  0  0
 91178  1  0  0  0  0
 91179  1  0  0  0  0
 91180  1  0  0  0  0
 92181  1  0  0  0  0
 93182  1  0  0  0  0
 98183  1  0  0  0  0
 99184  1  0  0  0  0
101185  1  0  0  0  0
101186  1  0  0  0  0
102187  1  0  0  0  0
102188  1  0  0  0  0
102189  1  0  0  0  0
103190  1  0  0  0  0
104191  1  0  0  0  0
105192  1  0  0  0  0
110193  1  0  0  0  0
113194  1  0  0  0  0
121195  1  0  0  0  0
122196  1  0  0  0  0
123197  1  0  0  0  0
124198  1  0  0  0  0
125199  1  0  0  0  0
126200  1  0  0  0  0
126201  1  0  0  0  0
127202  1  0  0  0  0
M  END
