237

C         -5.83580       -2.29890       -2.42980
C         -6.46940       -1.27610       -1.74620
C         -5.82510        0.01410       -1.47420
O         -4.77650        0.44610       -1.92860
C         -6.63110        0.65980       -0.42480
C         -6.37910        1.88600        0.18260
C         -7.29040        2.22210        1.15470
C         -8.35900        1.39060        1.51080
C         -8.62490        0.18170        0.90710
C         -7.71860       -0.17140       -0.09390
C         -7.65670       -1.36040       -0.94390
C         -8.61940       -2.33540       -1.04300
C         -9.80200       -2.37510       -0.28130
N        -10.78440       -2.47040        0.30670
C         -8.57120       -3.38260       -1.97890
N         -8.63150       -4.23730       -2.74640
C         -8.83070        2.33100        2.59210
C         -8.47200        1.98360        4.05900
C         -7.19960        1.17360        4.01840
C         -6.21150        1.98480        3.66540
C         -6.79930        3.35810        3.45790
C         -7.91260        3.34060        4.51700
C         -7.65740        3.27210        2.17300
C         -4.77130       -2.08540       -3.30430
C         -4.45760       -0.92310       -4.04970
N         -5.37460       -0.06120       -4.53380
C         -5.03130        1.18280       -5.12800
C         -5.23280        1.34090       -6.49230
C         -5.02230        2.56680       -7.09330
C         -4.64000        3.65410       -6.31970
S         -4.44510        5.27980       -6.96900
C         -4.30990        5.02280       -8.76010
C         -4.43790        3.49300       -4.95120
C         -4.61130        2.26160       -4.35790
C         -6.75940       -0.32320       -4.43710
C         -7.28740       -1.50970       -4.93350
C         -8.62880       -1.79600       -4.78810
C         -9.46210       -0.89950       -4.12650
S        -11.16490       -1.19800       -3.80100
C        -11.42470       -2.91360       -4.33190
C         -8.94400        0.31490       -3.67960
C         -7.60650        0.60710       -3.84100
C         -3.07210       -0.87020       -4.31870
S         -1.98430        0.41360       -4.72720
C         -0.60210       -0.56430       -4.26280
C         -0.97740       -1.86490       -3.91990
N         -0.09740       -2.86790       -3.47480
C          0.39950       -2.84040       -2.18320
C          0.11360       -1.76930       -1.32850
C          0.73600       -1.65620       -0.10650
C          1.61760       -2.63770        0.33220
S          2.47170       -2.35410        1.86170
C          3.97620       -3.35770        1.68930
C          1.78030       -3.78200       -0.43830
C          1.18720       -3.87830       -1.68300
C          0.29660       -3.82750       -4.43740
C         -0.65690       -4.56740       -5.12570
C         -0.28010       -5.49060       -6.08420
C          1.06360       -5.69190       -6.36360
S          1.67130       -6.84680       -7.55230
C          0.18460       -7.73220       -8.10210
C          2.02240       -4.94050       -5.68700
C          1.64330       -4.01220       -4.74370
C         -2.37310       -2.00540       -3.92070
S         -3.41580       -3.23300       -3.28750
C          0.58990        0.08670       -3.81070
C          0.52040        1.23230       -3.01710
N         -0.46460        2.20950       -3.08330
C         -0.56160        3.03230       -4.20940
C          0.14200        2.75150       -5.38290
C          0.03980        3.57820       -6.47960
C         -0.75690        4.71670       -6.43860
S         -0.82070        5.71400       -7.89870
C         -1.39290        7.32190       -7.27650
C         -1.46870        4.99810       -5.28300
C         -1.38020        4.15970       -4.18960
C         -0.99710        2.62570       -1.83140
C         -0.62760        3.83080       -1.24490
C         -1.15700        4.21000       -0.02620
C         -2.05960        3.38000        0.62650
S         -2.83730        3.79180        2.15510
C         -1.95460        5.27850        2.70910
C         -2.41460        2.16210        0.04960
C         -1.88930        1.78840       -1.16900
C          1.57650        1.24920       -2.08460
S          1.77750        2.06750       -0.58560
C          3.20270        1.09360       -0.22400
C          3.60320        0.32570       -1.32320
N          4.83070       -0.27200       -1.47090
C          6.00320        0.30120       -0.95410
C          7.07630       -0.53190       -0.62860
C          8.24240       -0.00290       -0.12800
C          8.36880        1.37040        0.06570
S          9.90050        1.95580        0.71780
C          9.44860        3.55680        1.44440
C          7.31600        2.20570       -0.27890
C          6.14600        1.67610       -0.78670
C          5.00610       -1.34920       -2.36760
C          4.29510       -2.53080       -2.19530
C          4.54250       -3.61320       -3.01110
C          5.48430       -3.52540       -4.03470
S          5.72630       -4.97930       -5.00220
C          6.86930       -4.45630       -6.31060
C          6.17560       -2.33530       -4.22610
C          5.94250       -1.25950       -3.39250
C          2.57340        0.31050       -2.30550
S          2.14310       -0.72160       -3.63650
C          3.55970        1.05650        1.15010
C          2.69340        1.42000        2.15420
C          3.17890        1.18600        3.45150
C          2.50420        1.36900        4.67290
C          1.08690        1.69510        4.71640
S          0.44960        3.00780        5.66160
C         -1.18770        2.60180        5.26830
C         -2.33850        3.33340        5.86570
C         -2.78950        2.65430        7.16120
C         -1.22040        1.51020        4.45410
Cl        -2.65630        0.77530        3.88180
C          0.06430        1.00040        4.13050
Cl         0.27300       -0.41190        3.17580
C          3.22810        1.13550        5.83250
C          4.57670        0.68320        5.81470
C          5.22930        0.41440        4.58330
C          6.57630       -0.11110        4.54650
C          7.13190       -1.08840        5.32520
C          8.48290       -1.34150        5.02080
C          8.97010       -0.55900        4.01810
C         10.35890       -0.49660        3.48600
C         11.13110        0.66750        4.11060
S          7.74660        0.50710        3.41320
C          4.50630        0.68500        3.43560
S          5.05640        0.42350        1.79820
C          5.08580        0.56530        7.11220
C          4.17270        0.86310        8.11290
S          2.61700        1.32530        7.44930
C          4.52010        0.77660        9.47220
C          3.77320        0.98740       10.60190
C          2.35480        1.38080       10.64600
O          1.60870        1.59910        9.71140
C          2.00320        1.46270       12.07610
C          0.78990        1.78660       12.65240
C          0.69470        1.79670       14.03470
C          1.80920        1.48480       14.80490
Cl         1.67250        1.50270       16.52230
C          3.03650        1.15700       14.23640
C          3.12950        1.14700       12.85490
C          4.25140        0.84720       11.96290
C          5.51200        0.49850       12.37610
C          6.60790        0.19940       11.53990
N          7.55490       -0.05830       10.94210
C          5.90150        0.38560       13.72760
N          6.29220        0.27370       14.80140
H         -6.07300       -3.32640       -2.17980
H         -5.53310        2.49120       -0.10550
H         -9.45260       -0.44880        1.18790
H         -9.84850        2.70420        2.49430
H         -9.29170        1.56040        4.63380
H         -7.15980        0.11370        4.18950
H         -5.18160        1.74550        3.48120
H         -6.09550        4.18620        3.47710
H         -8.62350        4.15970        4.41450
H         -7.52540        3.31410        5.53460
H         -7.91330        4.25190        1.77380
H         -5.56670        0.50090       -7.08370
H         -5.18360        2.66580       -8.15450
H         -4.01530        5.98160       -9.17500
H         -5.26880        4.72370       -9.17340
H         -3.53790        4.28570       -8.95850
H         -4.16490        4.35000       -4.35770
H         -4.44780        2.12380       -3.30010
H         -6.64100       -2.22000       -5.42700
H         -9.00980       -2.72370       -5.18040
H        -10.70480       -3.56470       -3.84380
H        -11.35610       -2.98270       -5.41380
H        -12.43000       -3.16540       -4.00870
H         -9.60090        1.01760       -3.19020
H         -7.20750        1.54550       -3.48620
H         -0.58240       -1.00240       -1.62880
H          0.54620       -0.79290        0.51200
H          4.63810       -3.02870        2.48500
H          4.43650       -3.16850        0.72420
H          3.74760       -4.41220        1.81460
H          2.39030       -4.59990       -0.08620
H          1.34400       -4.76550       -2.27670
H         -1.70480       -4.43540       -4.90650
H         -1.04770       -6.04830       -6.59600
H          0.53690       -8.49750       -8.78660
H         -0.30480       -8.19560       -7.25050
H         -0.48500       -7.05360       -8.62270
H          3.06600       -5.09350       -5.91250
H          2.38990       -3.41980       -4.23950
H          0.78520        1.88740       -5.44160
H          0.58950        3.35050       -7.38010
H         -1.25230        8.02240       -8.09380
H         -0.78420        7.61480       -6.42650
H         -2.44450        7.27010       -7.00910
H         -2.10730        5.86440       -5.22470
H         -1.95250        4.39000       -3.30510
H          0.07720        4.47680       -1.74780
H         -0.85430        5.15210        0.40110
H         -0.89490        5.06130        2.80620
H         -2.36990        5.52060        3.68200
H         -2.13150        6.10080        2.02180
H         -3.11250        1.51610        0.55960
H         -2.19580        0.85760       -1.62050
H          6.98090       -1.59920       -0.75750
H          9.06580       -0.65120        0.12890
H         10.28840        3.84850        2.06740
H          8.55680        3.43100        2.05090
H          9.29820        4.29960        0.66620
H          7.39650        3.27480       -0.16520
H          5.33970        2.34050       -1.05920
H          3.55730       -2.59510       -1.41270
H          4.01990       -4.54430       -2.85530
H          6.97810       -5.31840       -6.96140
H          6.44000       -3.62750       -6.86560
H          7.83310       -4.19320       -5.88430
H          6.90500       -2.23490       -5.01300
H          6.49700       -0.34290       -3.53020
H          1.71310        1.81700        1.96120
H         -2.04290        4.36190        6.07930
H         -3.16400        3.33730        5.15040
H         -3.61710        3.20330        7.60250
H         -3.11560        1.63800        6.95690
H         -1.96860        2.62040        7.87370
H          6.57570       -1.63820        6.06360
H          9.07490       -2.08120        5.53020
H         10.86720       -1.43670        3.71000
H         10.33540       -0.36040        2.40330
H         12.14140        0.70320        3.71190
H         10.63460        1.60740        3.88240
H         11.18280        0.55480        5.19100
H          6.10040        0.28540        7.33410
H          5.55240        0.48340        9.62120
H         -0.05870        2.02340       12.02970
H         -0.23580        2.04370       14.52070
H          3.87340        0.92130       14.87240
