194

C          0.85440       -7.02260        0.05390
C          0.98000       -8.04390       -0.85930
C          1.72210       -8.01160       -2.12050
O          2.21510       -7.04160       -2.67640
C          1.76570       -9.40310       -2.60870
C          2.39440       -9.87910       -3.75740
C          2.24820      -11.23090       -3.95840
C          1.53530      -12.05450       -3.07840
C          0.92020      -11.60130       -1.93520
C          1.05370      -10.22810       -1.71480
C          0.52630       -9.39590       -0.63520
C         -0.26470       -9.84420        0.39510
C         -0.57540      -11.19550        0.64570
N         -0.85740      -12.26730        0.94870
C         -0.91220       -9.03620        1.34790
N         -1.51380       -8.47130        2.14970
C          1.78500      -13.29110       -3.90500
C          0.61020      -13.78440       -4.77610
C          1.27110      -14.67660       -5.80170
C          1.94950      -13.89890       -6.63560
C          1.75780      -12.46770       -6.18800
C          0.32590      -12.55120       -5.64350
C          2.58200      -12.37290       -4.88650
C          1.30830       -5.70550        0.02040
C          1.21870       -4.81790        1.12280
N          0.88660       -5.15060        2.40860
C          0.38390       -4.13840        3.25350
C          0.97010       -3.90190        4.49160
C          0.53700       -2.85760        5.28540
C         -0.49540       -2.03660        4.85110
S         -1.08820       -0.63670        5.74700
C          0.03760       -0.51850        7.16850
C         -1.12170       -2.30590        3.63570
C         -0.68880       -3.34640        2.84430
C          1.15950       -6.40960        2.97240
C          0.25400       -6.97210        3.86640
C          0.46120       -8.24360        4.36500
C          1.56840       -8.97620        3.96070
S          1.85160      -10.64970        4.44080
C          0.18610      -11.23410        4.86740
C          2.51810       -8.38270        3.12860
C          2.32440       -7.10820        2.64860
C          1.53820       -3.50670        0.73130
S          1.62020       -1.99870        1.57590
C          2.04450       -1.16500        0.08040
C          2.26940       -2.05560       -0.96880
N          2.79110       -1.77220       -2.21000
C          3.73750       -0.78340       -2.44410
C          3.87670       -0.24020       -3.72170
C          4.80040        0.75300       -3.97550
C          5.61590        1.22520       -2.95550
S          6.81170        2.50930       -3.14770
C          6.82640        2.82980       -4.93430
C          5.50130        0.66870       -1.68270
C          4.58350       -0.32460       -1.43200
C          2.33280       -2.58840       -3.26820
C          3.22470       -3.33710       -4.02740
C          2.75100       -4.23220       -4.96430
C          1.38260       -4.38590       -5.14880
S          0.72060       -5.58440       -6.26460
C          1.90890       -6.94410       -6.04600
C          0.49190       -3.58830       -4.43880
C          0.96420       -2.69670       -3.50030
C          1.92790       -3.38280       -0.59400
S          1.93400       -4.90240       -1.42270
C          1.88870        0.25830        0.09680
C          1.86990        0.93740        1.31920
O          2.28190        0.27690        2.46290
C          3.69280        0.15890        2.60680
C          4.39900        1.50650        2.65290
C          1.38410        2.25170        1.46250
O          1.28700        2.83160        2.69130
C          0.53560        2.16900        3.71100
C          0.92340        2.78260        5.04380
C          1.03800        3.03180        0.35430
C          1.18720        2.42280       -0.91720
C          1.55280        1.03340       -1.04290
N          1.48630        0.61720       -2.30300
S          1.05860        1.84740       -3.24600
N          0.91030        2.96870       -2.09890
C          0.44410        4.32490        0.51320
C          0.08660        5.22240       -0.45650
C         -0.64410        6.32910        0.02980
C         -1.17580        7.41570       -0.70670
C         -0.83290        7.60930       -2.09630
C          0.38290        7.35230       -2.67380
C          0.47760        7.59110       -4.05750
C         -0.67530        8.03570       -4.63810
S         -0.97850        8.45090       -6.30980
C          0.27710        7.45790       -7.19610
C          0.03620        5.96840       -7.05180
Se        -2.06640        8.22560       -3.39420
C         -2.04470        8.24910       -0.01360
C         -2.37250        8.08420        1.36350
C         -1.73980        7.06540        2.12930
C         -2.01600        6.87170        3.52700
C         -2.36340        7.80200        4.47670
C         -2.67710        7.30810        5.75180
C         -2.60630        5.94580        5.87910
S         -2.93800        5.07060        7.34860
C         -2.79470        3.35290        6.72630
C         -2.98370        2.35410        7.84830
Se        -2.03300        5.13740        4.27970
C         -0.89430        6.21960        1.41880
S         -0.05140        4.85820        2.10080
C         -3.37110        8.97240        1.77960
C         -3.78450        9.85740        0.80370
S         -2.91310        9.58220       -0.70930
C         -4.76280       10.86320        0.78850
C         -5.57600       11.36640        1.77860
C         -5.54230       11.06990        3.22330
O         -4.79300       10.34480        3.84060
C         -6.62050       11.89670        3.82150
C         -7.25080       12.65410        2.82140
C         -8.29840       13.50190        3.14070
C         -8.69880       13.57590        4.46710
F         -9.70950       14.38570        4.79540
C         -8.08200       12.83220        5.47000
F         -8.49900       12.93120        6.73620
C         -7.02530       11.98090        5.14150
F         -6.43780       11.26960        6.10030
C         -6.61150       12.35170        1.53870
C         -6.98000       12.91480        0.34250
C         -8.00760       13.87140        0.19960
N         -8.82580       14.65260        0.00380
C         -6.42050       12.65080       -0.92680
N         -6.04890       12.51550       -2.00540
H          0.33390       -7.28030        0.96700
H          2.94400       -9.21860       -4.40950
H          0.38250      -12.24780       -1.26210
H          2.31200      -14.10030       -3.40330
H         -0.22130      -14.20880       -4.22020
H          1.22430      -15.74960       -5.78240
H          2.58250      -14.19250       -7.45240
H          1.97150      -11.69390       -6.92080
H         -0.40100      -12.75820       -6.42710
H          0.01320      -11.67430       -5.07960
H          3.64200      -12.56910       -5.03770
H          1.78490       -4.52830        4.82320
H          1.02430       -2.68940        6.23180
H         -0.06840       -1.39310        7.80340
H          1.05920       -0.40280        6.81890
H         -0.26940        0.36740        7.71580
H         -1.94260       -1.68210        3.31720
H         -1.16790       -3.54660        1.89780
H         -0.63120       -6.42290        4.14710
H         -0.26510       -8.66300        5.04100
H          0.24960      -12.31750        4.88740
H         -0.10700      -10.86410        5.84570
H         -0.51370      -10.91860        4.09940
H          3.40170       -8.94040        2.85890
H          3.05580       -6.65860        1.99370
H          3.23340       -0.58510       -4.51660
H          4.86590        1.15680       -4.97300
H          7.05430        1.91380       -5.47120
H          5.87400        3.24680       -5.24880
H          7.61630        3.55720       -5.09340
H          6.15050        1.02210       -0.89580
H          4.53000       -0.76190       -0.44720
H          4.28660       -3.23320       -3.86080
H          3.45050       -4.82230       -5.53410
H          2.77780       -6.79800       -6.68180
H          1.38860       -7.85160       -6.33750
H          2.18510       -6.98090       -4.99590
H         -0.56760       -3.69430       -4.61360
H          0.28370       -2.09050       -2.92140
H          3.81740       -0.38240        3.54760
H          4.10480       -0.45340        1.79400
H          3.94410        2.14690        3.40460
H          4.33140        2.00630        1.68820
H          5.44700        1.35900        2.89830
H         -0.53580        2.33270        3.52050
H          0.73340        1.09530        3.70420
H          0.69930        3.84760        5.03950
H          0.36500        2.29750        5.83890
H          1.98700        2.65210        5.22530
H          0.29420        5.04730       -1.49490
H          1.23720        7.04010       -2.09720
H          1.39760        7.44520       -4.59670
H          0.17250        7.77510       -8.23330
H          1.26110        7.75420       -6.83510
H         -0.95150        5.70900       -7.42550
H          0.78120        5.41700       -7.62220
H          0.10120        5.66520       -6.00880
H         -2.35860        8.85970        4.27870
H         -2.96610        7.94940        6.56600
H         -3.55380        3.22650        5.95010
H         -1.80150        3.26030        6.27610
H         -3.97010        2.46110        8.29260
H         -2.23880        2.50880        8.62580
H         -2.88390        1.34440        7.45510
H         -3.81720        8.95670        2.75480
H         -4.89170       11.30540       -0.19210
H         -8.81490       14.10310        2.41160
