182

C          1.77460       -4.83670        4.84180
C          1.00290       -5.93060        5.10590
C          0.04450       -6.56140        4.18810
O         -0.29050       -6.17280        3.08200
C         -0.42430       -7.78400        4.86630
C         -1.32030       -8.73060        4.37290
C         -1.59560       -9.75250        5.24920
C         -1.00520       -9.84320        6.51660
C         -0.10970       -8.92590        7.01090
C          0.16790       -7.86550        6.14320
C          1.01020       -6.69080        6.34100
C          1.59790       -6.32130        7.52270
C          2.27010       -5.10250        7.75230
N          2.79880       -4.12180        8.03400
C          1.56570       -7.08780        8.70630
N          1.59410       -7.66100        9.70080
C         -1.74730      -11.11070        6.86090
C         -2.94580      -10.96070        7.82160
C         -3.75420      -12.21730        7.59440
C         -4.32160      -12.12120        6.39880
C         -3.90470      -10.79830        5.79720
C         -3.81790       -9.94650        7.07050
C         -2.41380      -11.00370        5.45170
C          1.74310       -3.93530        3.76250
C          2.51240       -2.77950        3.75900
C          2.19880       -1.89510        2.73060
C          2.86230       -0.60710        2.49020
C          3.44770       -0.38100        1.23570
O          3.35870       -1.42020        0.36190
C          4.09010       -1.39380       -0.84700
C          5.58100       -1.63870       -0.64430
C          4.06420        0.83720        0.97520
C          4.11380        1.80070        1.96500
C          3.57320        1.57870        3.21660
C          2.93650        0.37150        3.48950
O          2.35290        0.06460        4.67680
C          2.48930        0.97640        5.75400
C          1.80890        0.37840        6.97550
C          1.18780       -2.38950        1.91950
S          0.65870       -3.96220        2.39780
C          0.46750       -1.56850        0.96900
C         -0.38170       -0.56170        1.37900
N         -0.69760       -0.32410        2.71790
C         -1.10040       -1.43470        3.48030
C         -0.51800       -1.72760        4.71220
C         -0.89460       -2.85810        5.40360
C         -1.85460       -3.72070        4.87850
S         -2.22940       -5.16530        5.82670
C         -3.38330       -6.07940        4.76750
C         -2.44870       -3.42480        3.66070
C         -2.07220       -2.28970        2.96990
C         -0.48870        0.92970        3.27600
C         -1.10500        1.28600        4.47460
C         -0.88940        2.52530        5.04390
C         -0.06810        3.44890        4.41280
S          0.31620        5.04980        5.06340
C         -0.77120        5.20430        6.50840
C          0.52620        3.11150        3.19980
C          0.32580        1.86980        2.64050
C         -0.89750        0.15610        0.27750
S         -2.03940        1.43750        0.10720
C         -1.85600        1.39240       -1.64820
C         -0.98060        0.39340       -2.06060
N         -0.65860        0.07160       -3.36880
C         -1.62400       -0.18140       -4.34420
C         -2.94810       -0.44630       -3.99690
C         -3.89210       -0.71470       -4.96570
C         -3.52880       -0.74910       -6.30550
S         -4.66840       -1.10950       -7.60170
C         -6.22820       -0.46460       -6.92620
C         -2.20540       -0.50520       -6.65800
C         -1.27060       -0.19750       -5.69550
C          0.70820       -0.15020       -3.62550
C          1.62930        0.81210       -3.22530
C          2.97860        0.64190       -3.46810
C          3.42660       -0.50610       -4.10810
S          5.12430       -0.85160       -4.44440
C          5.98600        0.67960       -3.98190
C          2.50650       -1.47910       -4.49610
C          1.16140       -1.30570       -4.26010
C         -0.43710       -0.29790       -0.94810
S          0.61730       -1.66210       -0.76660
C         -2.52590        2.38920       -2.39780
C         -3.56610        3.17870       -1.93960
C         -3.95960        4.17730       -2.82220
C         -5.04600        5.15380       -2.50230
C         -4.48440        6.35850       -1.74190
C         -3.20480        4.18630       -3.99770
S         -2.03270        2.87970       -3.98680
C         -3.22720        5.20970       -4.96030
C         -2.50650        5.37540       -6.10840
C         -2.27040        6.74730       -6.62100
O         -2.86210        7.75600       -6.30160
C         -1.12070        6.62460       -7.54110
C         -0.43220        7.65700       -8.17400
C          0.63040        7.23550       -8.93710
C          0.98810        5.88700       -9.06320
C          0.30920        4.85550       -8.45770
C         -0.77630        5.26350       -7.67950
C         -1.74270        4.46830       -6.92370
C         -2.07010        3.15570       -7.16300
C         -1.35260        2.32430       -8.04050
N         -0.77310        1.62400       -8.74260
C         -3.25680        2.59350       -6.65660
N         -4.26450        2.16300       -6.31130
C          2.16470        6.19960       -9.95480
C          3.56010        6.15910       -9.29650
C          4.43030        6.95440      -10.24270
C          4.08870        8.23150      -10.12800
C          2.98220        8.32060       -9.10210
C          3.40020        7.18130       -8.16360
C          1.76250        7.70300       -9.81850
H          2.50340       -4.55880        5.59380
H         -1.74330       -8.63590        3.38460
H          0.34240       -9.01270        7.98460
H         -1.13040      -11.97980        7.08050
H         -2.67890      -10.72770        8.84870
H         -3.78500      -13.04330        8.28030
H         -4.92010      -12.85120        5.88600
H         -4.51400      -10.41980        4.98030
H         -3.34250       -8.97690        6.93090
H         -4.79000       -9.81020        7.54160
H         -2.25010      -11.80520        4.73380
H          3.25260       -2.57440        4.51140
H          3.65680       -2.20380       -1.44020
H          3.91060       -0.45450       -1.38140
H          6.07170       -1.70060       -1.61170
H          6.03390       -0.83970       -0.06140
H          5.72940       -2.57610       -0.11460
H          4.50670        1.04350        0.01450
H          4.59320        2.74590        1.75850
H          3.63880        2.35230        3.96280
H          2.02470        1.93630        5.49400
H          3.55500        1.14190        5.96210
H          0.73410        0.32480        6.82350
H          2.18840       -0.62260        7.16400
H          2.00910        1.00130        7.84280
H          0.26050       -1.08820        5.09460
H         -0.43150       -3.09550        6.34980
H         -4.31140       -5.52460        4.66380
H         -3.57140       -7.02030        5.27570
H         -2.91660       -6.26170        3.80370
H         -3.19830       -4.06790        3.23140
H         -2.52770       -2.06960        2.01560
H         -1.75950        0.58350        4.96830
H         -1.37230        2.75600        5.98000
H         -0.61620        6.21090        6.88410
H         -0.49050        4.48100        7.26880
H         -1.80640        5.07810        6.20520
H          1.16320        3.83040        2.70750
H          0.82090        1.61960        1.71470
H         -3.24170       -0.45390       -2.95780
H         -4.90850       -0.91190       -4.66540
H         -6.64950       -1.16100       -6.20680
H         -6.90000       -0.36070       -7.77230
H         -6.03030        0.50450       -6.47950
H         -1.92120       -0.53170       -7.69810
H         -0.25920        0.03390       -5.99280
H          1.28060        1.70770       -2.73130
H          3.66390        1.41740       -3.16390
H          7.02420        0.52380       -4.25790
H          5.57830        1.51620       -4.54140
H          5.91390        0.84520       -2.91090
H          2.86420       -2.37300       -4.98310
H          0.45370       -2.06210       -4.56220
H         -4.02100        3.01730       -0.97770
H         -5.53930        5.48840       -3.41510
H         -5.79060        4.65460       -1.87910
H         -5.28600        7.04840       -1.49070
H         -3.74990        6.88660       -2.34530
H         -4.00280        6.03420       -0.82220
H         -3.80050        6.08720       -4.67740
H         -0.73820        8.68430       -8.05270
H          0.58940        3.81970       -8.55920
H          2.14670        5.74240      -10.94220
H          3.90870        5.16490       -9.02980
H          5.14140        6.51450      -10.91710
H          4.45760        9.07120      -10.68720
H          2.80440        9.29620       -8.65760
H          2.64440        6.91340       -7.42750
H          4.34290        7.38870       -7.65950
H          1.47450        8.24760      -10.71570
