
  xtb     02162216443D
 energy: -351.962659672694 gnorm: 0.000447606930 xtb: 6.4.1 (unknown)
206229  0     0  0            999 V2000
    7.0322   -4.2636   -3.7679 C   0  0  0  0  0  0  0  0  0  0  0  0
    7.9960   -4.6458   -2.8609 C   0  0  0  0  0  0  0  0  0  0  0  0
    8.4788   -3.8582   -1.7279 C   0  0  0  0  0  0  0  0  0  0  0  0
    8.1059   -2.7492   -1.3725 O   0  0  0  0  0  0  0  0  0  0  0  0
    9.5677   -4.6355   -1.1134 C   0  0  0  0  0  0  0  0  0  0  0  0
   10.3081   -4.2954    0.0164 C   0  0  0  0  0  0  0  0  0  0  0  0
   11.2579   -5.2268    0.3618 C   0  0  0  0  0  0  0  0  0  0  0  0
   11.4582   -6.4070   -0.3649 C   0  0  0  0  0  0  0  0  0  0  0  0
   10.7325   -6.7547   -1.4806 C   0  0  0  0  0  0  0  0  0  0  0  0
    9.7578   -5.8232   -1.8479 C   0  0  0  0  0  0  0  0  0  0  0  0
    8.7796   -5.8564   -2.9366 C   0  0  0  0  0  0  0  0  0  0  0  0
    8.6234   -6.8874   -3.8321 C   0  0  0  0  0  0  0  0  0  0  0  0
    7.6043   -6.9864   -4.7992 C   0  0  0  0  0  0  0  0  0  0  0  0
    6.7887   -7.1661   -5.5899 N   0  0  0  0  0  0  0  0  0  0  0  0
    9.4512   -8.0266   -3.8879 C   0  0  0  0  0  0  0  0  0  0  0  0
   10.0924   -8.9730   -4.0016 N   0  0  0  0  0  0  0  0  0  0  0  0
   12.5561   -6.8817    0.5546 C   0  0  0  0  0  0  0  0  0  0  0  0
   12.1748   -7.9784    1.5714 C   0  0  0  0  0  0  0  0  0  0  0  0
   13.2615   -7.8940    2.6189 C   0  0  0  0  0  0  0  0  0  0  0  0
   13.0719   -6.7760    3.3079 C   0  0  0  0  0  0  0  0  0  0  0  0
   11.8538   -6.0857    2.7377 C   0  0  0  0  0  0  0  0  0  0  0  0
   11.0226   -7.3099    2.3327 C   0  0  0  0  0  0  0  0  0  0  0  0
   12.3320   -5.5651    1.3657 C   0  0  0  0  0  0  0  0  0  0  0  0
    6.1481   -3.1875   -3.7329 C   0  0  0  0  0  0  0  0  0  0  0  0
    5.1858   -2.9333   -4.7420 C   0  0  0  0  0  0  0  0  0  0  0  0
    5.1040   -3.5666   -5.9536 N   0  0  0  0  0  0  0  0  0  0  0  0
    6.2335   -3.9361   -6.7003 C   0  0  0  0  0  0  0  0  0  0  0  0
    7.3902   -3.1608   -6.6717 C   0  0  0  0  0  0  0  0  0  0  0  0
    8.5011   -3.5289   -7.4034 C   0  0  0  0  0  0  0  0  0  0  0  0
    8.4684   -4.6744   -8.1897 C   0  0  0  0  0  0  0  0  0  0  0  0
    9.8208   -5.2461   -9.1656 S   0  0  0  0  0  0  0  0  0  0  0  0
   11.1768   -4.1118   -8.7497 C   0  0  0  0  0  0  0  0  0  0  0  0
    7.3030   -5.4370   -8.2396 C   0  0  0  0  0  0  0  0  0  0  0  0
    6.1979   -5.0775   -7.5020 C   0  0  0  0  0  0  0  0  0  0  0  0
    3.8227   -3.7551   -6.5078 C   0  0  0  0  0  0  0  0  0  0  0  0
    2.7913   -4.2355   -5.7066 C   0  0  0  0  0  0  0  0  0  0  0  0
    1.5158   -4.3848   -6.2129 C   0  0  0  0  0  0  0  0  0  0  0  0
    1.2539   -4.0610   -7.5379 C   0  0  0  0  0  0  0  0  0  0  0  0
   -0.3336   -4.1824   -8.2890 S   0  0  0  0  0  0  0  0  0  0  0  0
   -1.4014   -4.8101   -6.9620 C   0  0  0  0  0  0  0  0  0  0  0  0
    2.2935   -3.6059   -8.3500 C   0  0  0  0  0  0  0  0  0  0  0  0
    3.5641   -3.4533   -7.8438 C   0  0  0  0  0  0  0  0  0  0  0  0
    4.2755   -1.9445   -4.3261 C   0  0  0  0  0  0  0  0  0  0  0  0
    2.8866   -1.2055   -5.0569 S   0  0  0  0  0  0  0  0  0  0  0  0
    2.6717   -0.1923   -3.6408 C   0  0  0  0  0  0  0  0  0  0  0  0
    3.5922   -0.4580   -2.6370 C   0  0  0  0  0  0  0  0  0  0  0  0
    3.5529    0.0578   -1.3530 N   0  0  0  0  0  0  0  0  0  0  0  0
    2.3342    0.3076   -0.7099 C   0  0  0  0  0  0  0  0  0  0  0  0
    1.2126   -0.4809   -0.9570 C   0  0  0  0  0  0  0  0  0  0  0  0
   -0.0199   -0.1470   -0.4296 C   0  0  0  0  0  0  0  0  0  0  0  0
   -0.1478    0.9711    0.3814 C   0  0  0  0  0  0  0  0  0  0  0  0
   -1.6827    1.5504    1.0346 S   0  0  0  0  0  0  0  0  0  0  0  0
   -2.9059    0.3653    0.4101 C   0  0  0  0  0  0  0  0  0  0  0  0
    0.9891    1.7097    0.7064 C   0  0  0  0  0  0  0  0  0  0  0  0
    2.2128    1.3896    0.1648 C   0  0  0  0  0  0  0  0  0  0  0  0
    4.7614    0.1639   -0.6457 C   0  0  0  0  0  0  0  0  0  0  0  0
    5.9017    0.6394   -1.2877 C   0  0  0  0  0  0  0  0  0  0  0  0
    7.1212    0.6374   -0.6419 C   0  0  0  0  0  0  0  0  0  0  0  0
    7.2146    0.1619    0.6581 C   0  0  0  0  0  0  0  0  0  0  0  0
    8.7572    0.0501    1.5108 S   0  0  0  0  0  0  0  0  0  0  0  0
    9.8981   -0.3075    0.1399 C   0  0  0  0  0  0  0  0  0  0  0  0
    6.0648   -0.2432    1.3286 C   0  0  0  0  0  0  0  0  0  0  0  0
    4.8477   -0.2455    0.6838 C   0  0  0  0  0  0  0  0  0  0  0  0
    4.5303   -1.4353   -3.0599 C   0  0  0  0  0  0  0  0  0  0  0  0
    5.9487   -2.1129   -2.3467 S   0  0  0  0  0  0  0  0  0  0  0  0
    1.5391    0.6791   -3.5711 C   0  0  0  0  0  0  0  0  0  0  0  0
    0.2593    0.3701   -3.9179 C   0  0  0  0  0  0  0  0  0  0  0  0
   -0.6855    1.3348   -3.4909 C   0  0  0  0  0  0  0  0  0  0  0  0
   -2.0856    1.2125   -3.4917 C   0  0  0  0  0  0  0  0  0  0  0  0
   -2.7320    0.1387   -4.2219 C   0  0  0  0  0  0  0  0  0  0  0  0
   -3.9311   -0.8868   -3.4887 S   0  0  0  0  0  0  0  0  0  0  0  0
   -4.1535   -1.7998   -4.9431 C   0  0  0  0  0  0  0  0  0  0  0  0
   -5.1662   -2.8881   -5.0187 C   0  0  0  0  0  0  0  0  0  0  0  0
   -6.5740   -2.3113   -5.1837 C   0  0  0  0  0  0  0  0  0  0  0  0
   -3.3464   -1.3205   -5.9312 C   0  0  0  0  0  0  0  0  0  0  0  0
   -3.3094   -1.9436   -7.5312 Cl  0  0  0  0  0  0  0  0  0  0  0  0
   -2.5286   -0.2319   -5.5235 C   0  0  0  0  0  0  0  0  0  0  0  0
   -1.4529    0.5638   -6.5991 Cl  0  0  0  0  0  0  0  0  0  0  0  0
   -2.7922    2.1313   -2.7264 C   0  0  0  0  0  0  0  0  0  0  0  0
   -2.1724    3.2040   -2.0410 C   0  0  0  0  0  0  0  0  0  0  0  0
   -0.7827    3.3955   -2.1397 C   0  0  0  0  0  0  0  0  0  0  0  0
   -0.0963    4.4864   -1.4740 C   0  0  0  0  0  0  0  0  0  0  0  0
   -0.3844    4.8743    0.1966 S   0  0  0  0  0  0  0  0  0  0  0  0
    0.8229    6.1132    0.2064 C   0  0  0  0  0  0  0  0  0  0  0  0
    1.1553    6.8553    1.4533 C   0  0  0  0  0  0  0  0  0  0  0  0
    2.1141    6.0443    2.3285 C   0  0  0  0  0  0  0  0  0  0  0  0
    1.4028    6.2151   -1.0222 C   0  0  0  0  0  0  0  0  0  0  0  0
    0.8831    5.3006   -1.9767 C   0  0  0  0  0  0  0  0  0  0  0  0
    1.3878    5.3122   -3.6141 Cl  0  0  0  0  0  0  0  0  0  0  0  0
    2.6410    7.3392   -1.4064 Cl  0  0  0  0  0  0  0  0  0  0  0  0
   -0.0688    2.4284   -2.8389 C   0  0  0  0  0  0  0  0  0  0  0  0
    1.6632    2.2745   -2.8584 S   0  0  0  0  0  0  0  0  0  0  0  0
   -3.1061    3.9400   -1.2695 C   0  0  0  0  0  0  0  0  0  0  0  0
   -4.3761    3.4556   -1.3250 C   0  0  0  0  0  0  0  0  0  0  0  0
   -4.5073    2.0999   -2.4290 S   0  0  0  0  0  0  0  0  0  0  0  0
   -5.5179    3.8587   -0.5336 C   0  0  0  0  0  0  0  0  0  0  0  0
   -5.3035    4.5237    0.6724 C   0  0  0  0  0  0  0  0  0  0  0  0
   -6.4004    4.8253    1.4594 C   0  0  0  0  0  0  0  0  0  0  0  0
   -6.4435    5.4203    2.6951 N   0  0  0  0  0  0  0  0  0  0  0  0
   -5.3127    5.9563    3.4055 C   0  0  0  0  0  0  0  0  0  0  0  0
   -5.0286    7.4025    3.0030 C   0  0  0  0  0  0  0  0  0  0  0  0
   -7.7546    5.4847    3.1004 C   0  0  0  0  0  0  0  0  0  0  0  0
   -8.5851    4.9002    2.1066 C   0  0  0  0  0  0  0  0  0  0  0  0
   -7.7156    4.4796    1.0537 C   0  0  0  0  0  0  0  0  0  0  0  0
   -7.9152    3.8290   -0.1602 C   0  0  0  0  0  0  0  0  0  0  0  0
   -6.8218    3.5217   -0.9359 C   0  0  0  0  0  0  0  0  0  0  0  0
   -9.9615    4.8403    2.3015 C   0  0  0  0  0  0  0  0  0  0  0  0
  -10.4905    5.3075    3.4818 C   0  0  0  0  0  0  0  0  0  0  0  0
   -9.6688    5.8617    4.4807 C   0  0  0  0  0  0  0  0  0  0  0  0
   -8.2927    5.9930    4.2660 C   0  0  0  0  0  0  0  0  0  0  0  0
  -10.1956    6.3477    5.7303 C   0  0  0  0  0  0  0  0  0  0  0  0
  -11.2019    5.8229    6.4733 C   0  0  0  0  0  0  0  0  0  0  0  0
  -11.7935    4.4641    6.3206 C   0  0  0  0  0  0  0  0  0  0  0  0
  -11.6583    3.6807    5.4073 O   0  0  0  0  0  0  0  0  0  0  0  0
  -12.5315    4.2140    7.5740 C   0  0  0  0  0  0  0  0  0  0  0  0
  -13.1885    3.0367    7.9259 C   0  0  0  0  0  0  0  0  0  0  0  0
  -13.7731    3.0718    9.1683 C   0  0  0  0  0  0  0  0  0  0  0  0
  -13.7086    4.1956   10.0044 C   0  0  0  0  0  0  0  0  0  0  0  0
  -13.0692    5.3641    9.6684 C   0  0  0  0  0  0  0  0  0  0  0  0
  -12.4671    5.3496    8.4057 C   0  0  0  0  0  0  0  0  0  0  0  0
  -11.7019    6.3836    7.7209 C   0  0  0  0  0  0  0  0  0  0  0  0
  -11.5449    7.6774    8.1404 C   0  0  0  0  0  0  0  0  0  0  0  0
  -12.0653    8.1952    9.3452 C   0  0  0  0  0  0  0  0  0  0  0  0
  -12.4546    8.6811   10.3098 N   0  0  0  0  0  0  0  0  0  0  0  0
  -10.8717    8.6867    7.4186 C   0  0  0  0  0  0  0  0  0  0  0  0
  -10.3555    9.5675    6.8926 N   0  0  0  0  0  0  0  0  0  0  0  0
  -14.4893    3.5208   11.1040 C   0  0  0  0  0  0  0  0  0  0  0  0
  -13.7003    2.9904   12.3268 C   0  0  0  0  0  0  0  0  0  0  0  0
  -12.3031    2.6939   11.8413 C   0  0  0  0  0  0  0  0  0  0  0  0
  -12.3663    1.6318   11.0494 C   0  0  0  0  0  0  0  0  0  0  0  0
  -13.8077    1.1907   10.9854 C   0  0  0  0  0  0  0  0  0  0  0  0
  -14.2682    1.5642   12.4034 C   0  0  0  0  0  0  0  0  0  0  0  0
  -14.5637    2.2706   10.1719 C   0  0  0  0  0  0  0  0  0  0  0  0
    6.9120   -4.9046   -4.6316 H   0  0  0  0  0  0  0  0  0  0  0  0
   10.1156   -3.3801    0.5536 H   0  0  0  0  0  0  0  0  0  0  0  0
   10.8995   -7.6680   -2.0264 H   0  0  0  0  0  0  0  0  0  0  0  0
   13.5262   -7.0499    0.0908 H   0  0  0  0  0  0  0  0  0  0  0  0
   11.9880   -8.9565    1.1367 H   0  0  0  0  0  0  0  0  0  0  0  0
   14.0619   -8.6045    2.7114 H   0  0  0  0  0  0  0  0  0  0  0  0
   13.6824   -6.3658    4.0909 H   0  0  0  0  0  0  0  0  0  0  0  0
   11.3746   -5.3399    3.3662 H   0  0  0  0  0  0  0  0  0  0  0  0
   10.1586   -7.0749    1.7140 H   0  0  0  0  0  0  0  0  0  0  0  0
   10.7049   -7.8948    3.1944 H   0  0  0  0  0  0  0  0  0  0  0  0
   13.1532   -4.8547    1.4427 H   0  0  0  0  0  0  0  0  0  0  0  0
    7.4205   -2.2650   -6.0690 H   0  0  0  0  0  0  0  0  0  0  0  0
    9.3806   -2.9069   -7.3591 H   0  0  0  0  0  0  0  0  0  0  0  0
   11.3728   -4.1449   -7.6819 H   0  0  0  0  0  0  0  0  0  0  0  0
   12.0406   -4.4803   -9.2941 H   0  0  0  0  0  0  0  0  0  0  0  0
   10.9383   -3.1043   -9.0784 H   0  0  0  0  0  0  0  0  0  0  0  0
    7.2821   -6.3258   -8.8499 H   0  0  0  0  0  0  0  0  0  0  0  0
    5.3082   -5.6857   -7.5295 H   0  0  0  0  0  0  0  0  0  0  0  0
    2.9936   -4.4939   -4.6773 H   0  0  0  0  0  0  0  0  0  0  0  0
    0.7394   -4.7564   -5.5643 H   0  0  0  0  0  0  0  0  0  0  0  0
   -1.0548   -5.7862   -6.6354 H   0  0  0  0  0  0  0  0  0  0  0  0
   -2.3891   -4.8988   -7.4035 H   0  0  0  0  0  0  0  0  0  0  0  0
   -1.4310   -4.1008   -6.1398 H   0  0  0  0  0  0  0  0  0  0  0  0
    2.0843   -3.3625   -9.3801 H   0  0  0  0  0  0  0  0  0  0  0  0
    4.3613   -3.0887   -8.4735 H   0  0  0  0  0  0  0  0  0  0  0  0
    1.3010   -1.3568   -1.5824 H   0  0  0  0  0  0  0  0  0  0  0  0
   -0.8701   -0.7668   -0.6653 H   0  0  0  0  0  0  0  0  0  0  0  0
   -3.8704    0.7419    0.7369 H   0  0  0  0  0  0  0  0  0  0  0  0
   -2.8752    0.3296   -0.6748 H   0  0  0  0  0  0  0  0  0  0  0  0
   -2.7267   -0.6156    0.8406 H   0  0  0  0  0  0  0  0  0  0  0  0
    0.8907    2.5548    1.3695 H   0  0  0  0  0  0  0  0  0  0  0  0
    3.0807    1.9907    0.3895 H   0  0  0  0  0  0  0  0  0  0  0  0
    5.8288    1.0030   -2.3024 H   0  0  0  0  0  0  0  0  0  0  0  0
    7.9935    0.9998   -1.1614 H   0  0  0  0  0  0  0  0  0  0  0  0
   10.1573    0.6059   -0.3881 H   0  0  0  0  0  0  0  0  0  0  0  0
   10.7912   -0.7306    0.5901 H   0  0  0  0  0  0  0  0  0  0  0  0
    9.4226   -1.0266   -0.5215 H   0  0  0  0  0  0  0  0  0  0  0  0
    6.1425   -0.5862    2.3488 H   0  0  0  0  0  0  0  0  0  0  0  0
    3.9623   -0.5955    1.1936 H   0  0  0  0  0  0  0  0  0  0  0  0
   -0.0065   -0.5690   -4.3689 H   0  0  0  0  0  0  0  0  0  0  0  0
   -4.9279   -3.5267   -5.8710 H   0  0  0  0  0  0  0  0  0  0  0  0
   -5.1263   -3.4884   -4.1076 H   0  0  0  0  0  0  0  0  0  0  0  0
   -7.3027   -3.1151   -5.2426 H   0  0  0  0  0  0  0  0  0  0  0  0
   -6.8216   -1.6748   -4.3374 H   0  0  0  0  0  0  0  0  0  0  0  0
   -6.6336   -1.7192   -6.0933 H   0  0  0  0  0  0  0  0  0  0  0  0
    1.6200    7.8049    1.1824 H   0  0  0  0  0  0  0  0  0  0  0  0
    0.2396    7.0589    2.0113 H   0  0  0  0  0  0  0  0  0  0  0  0
    1.6563    5.1004    2.6153 H   0  0  0  0  0  0  0  0  0  0  0  0
    3.0329    5.8348    1.7866 H   0  0  0  0  0  0  0  0  0  0  0  0
    2.3599    6.6004    3.2290 H   0  0  0  0  0  0  0  0  0  0  0  0
   -2.8299    4.7956   -0.6835 H   0  0  0  0  0  0  0  0  0  0  0  0
   -4.3006    4.7554    0.9923 H   0  0  0  0  0  0  0  0  0  0  0  0
   -5.5191    5.8983    4.4772 H   0  0  0  0  0  0  0  0  0  0  0  0
   -4.4422    5.3291    3.1943 H   0  0  0  0  0  0  0  0  0  0  0  0
   -4.8156    7.4620    1.9383 H   0  0  0  0  0  0  0  0  0  0  0  0
   -4.1724    7.7829    3.5533 H   0  0  0  0  0  0  0  0  0  0  0  0
   -5.8900    8.0305    3.2180 H   0  0  0  0  0  0  0  0  0  0  0  0
   -8.9108    3.5613   -0.4787 H   0  0  0  0  0  0  0  0  0  0  0  0
   -6.9533    3.0075   -1.8767 H   0  0  0  0  0  0  0  0  0  0  0  0
  -10.6019    4.4246    1.5392 H   0  0  0  0  0  0  0  0  0  0  0  0
  -11.5554    5.2789    3.6387 H   0  0  0  0  0  0  0  0  0  0  0  0
   -7.6734    6.4460    5.0261 H   0  0  0  0  0  0  0  0  0  0  0  0
   -9.6670    7.2021    6.1388 H   0  0  0  0  0  0  0  0  0  0  0  0
  -13.2113    2.1942    7.2525 H   0  0  0  0  0  0  0  0  0  0  0  0
  -13.0231    6.2183   10.3233 H   0  0  0  0  0  0  0  0  0  0  0  0
  -15.4230    4.0011   11.3897 H   0  0  0  0  0  0  0  0  0  0  0  0
  -13.7778    3.6093   13.2166 H   0  0  0  0  0  0  0  0  0  0  0  0
  -11.4477    3.3021   12.0707 H   0  0  0  0  0  0  0  0  0  0  0  0
  -11.5745    1.1755   10.4845 H   0  0  0  0  0  0  0  0  0  0  0  0
  -13.9832    0.1705   10.6542 H   0  0  0  0  0  0  0  0  0  0  0  0
  -13.7899    0.9613   13.1738 H   0  0  0  0  0  0  0  0  0  0  0  0
  -15.3494    1.5338   12.5308 H   0  0  0  0  0  0  0  0  0  0  0  0
  -15.5465    1.9340    9.8479 H   0  0  0  0  0  0  0  0  0  0  0  0
  1  2  2  0  0  0  0
  2  3  1  0  0  0  0
  3  4  2  0  0  0  0
  3  5  1  0  0  0  0
  5  6  2  0  0  0  0
  6  7  1  0  0  0  0
  7  8  2  0  0  0  0
  8  9  1  0  0  0  0
  9 10  2  0  0  0  0
 10 11  1  0  0  0  0
 11 12  2  0  0  0  0
 12 13  1  0  0  0  0
 13 14  3  0  0  0  0
 12 15  1  0  0  0  0
 15 16  3  0  0  0  0
  8 17  1  0  0  0  0
 17 18  1  0  0  0  0
 18 19  1  0  0  0  0
 19 20  2  0  0  0  0
 20 21  1  0  0  0  0
 21 22  1  0  0  0  0
 21 23  1  0  0  0  0
  1 24  1  0  0  0  0
 24 25  2  0  0  0  0
 25 26  1  0  0  0  0
 26 27  1  0  0  0  0
 27 28  2  0  0  0  0
 28 29  1  0  0  0  0
 29 30  2  0  0  0  0
 30 31  1  0  0  0  0
 31 32  1  0  0  0  0
 30 33  1  0  0  0  0
 33 34  2  0  0  0  0
 26 35  1  0  0  0  0
 35 36  2  0  0  0  0
 36 37  1  0  0  0  0
 37 38  2  0  0  0  0
 38 39  1  0  0  0  0
 39 40  1  0  0  0  0
 38 41  1  0  0  0  0
 41 42  2  0  0  0  0
 25 43  1  0  0  0  0
 43 44  1  0  0  0  0
 44 45  1  0  0  0  0
 45 46  2  0  0  0  0
 46 47  1  0  0  0  0
 47 48  1  0  0  0  0
 48 49  2  0  0  0  0
 49 50  1  0  0  0  0
 50 51  2  0  0  0  0
 51 52  1  0  0  0  0
 52 53  1  0  0  0  0
 51 54  1  0  0  0  0
 54 55  2  0  0  0  0
 47 56  1  0  0  0  0
 56 57  2  0  0  0  0
 57 58  1  0  0  0  0
 58 59  2  0  0  0  0
 59 60  1  0  0  0  0
 60 61  1  0  0  0  0
 59 62  1  0  0  0  0
 62 63  2  0  0  0  0
 46 64  1  0  0  0  0
 64 65  1  0  0  0  0
 45 66  1  0  0  0  0
 66 67  2  0  0  0  0
 67 68  1  0  0  0  0
 68 69  2  0  0  0  0
 69 70  1  0  0  0  0
 70 71  1  0  0  0  0
 71 72  1  0  0  0  0
 72 73  1  0  0  0  0
 73 74  1  0  0  0  0
 72 75  2  0  0  0  0
 75 76  1  0  0  0  0
 75 77  1  0  0  0  0
 77 78  1  0  0  0  0
 69 79  1  0  0  0  0
 79 80  2  0  0  0  0
 80 81  1  0  0  0  0
 81 82  1  0  0  0  0
 82 83  1  0  0  0  0
 83 84  1  0  0  0  0
 84 85  1  0  0  0  0
 85 86  1  0  0  0  0
 84 87  2  0  0  0  0
 87 88  1  0  0  0  0
 88 89  1  0  0  0  0
 87 90  1  0  0  0  0
 81 91  2  0  0  0  0
 91 92  1  0  0  0  0
 80 93  1  0  0  0  0
 93 94  2  0  0  0  0
 94 95  1  0  0  0  0
 94 96  1  0  0  0  0
 96 97  2  0  0  0  0
 97 98  1  0  0  0  0
 98 99  1  0  0  0  0
 99100  1  0  0  0  0
100101  1  0  0  0  0
 99102  1  0  0  0  0
102103  2  0  0  0  0
103104  1  0  0  0  0
104105  1  0  0  0  0
105106  2  0  0  0  0
103107  1  0  0  0  0
107108  2  0  0  0  0
108109  1  0  0  0  0
109110  2  0  0  0  0
109111  1  0  0  0  0
111112  2  0  0  0  0
112113  1  0  0  0  0
113114  2  0  0  0  0
113115  1  0  0  0  0
115116  2  0  0  0  0
116117  1  0  0  0  0
117118  2  0  0  0  0
118119  1  0  0  0  0
119120  2  0  0  0  0
120121  1  0  0  0  0
121122  2  0  0  0  0
122123  1  0  0  0  0
123124  3  0  0  0  0
122125  1  0  0  0  0
125126  3  0  0  0  0
118127  1  0  0  0  0
127128  1  0  0  0  0
128129  1  0  0  0  0
129130  2  0  0  0  0
130131  1  0  0  0  0
131132  1  0  0  0  0
131133  1  0  0  0  0
 11  2  1  0  0  0  0
 23 17  1  0  0  0  0
 65 24  1  0  0  0  0
 92 66  1  0  0  0  0
106 96  1  0  0  0  0
121112  1  0  0  0  0
133127  1  0  0  0  0
 10  5  1  0  0  0  0
 22 18  1  0  0  0  0
 34 27  1  0  0  0  0
 42 35  1  0  0  0  0
 64 43  2  0  0  0  0
 91 68  1  0  0  0  0
104 98  2  0  0  0  0
120115  1  0  0  0  0
132128  1  0  0  0  0
 23  7  1  0  0  0  0
 55 48  1  0  0  0  0
 63 56  1  0  0  0  0
 77 70  2  0  0  0  0
 95 79  1  0  0  0  0
110102  1  0  0  0  0
133117  1  0  0  0  0
 88 82  2  0  0  0  0
  1134  1  0  0  0  0
  6135  1  0  0  0  0
  9136  1  0  0  0  0
 17137  1  0  0  0  0
 18138  1  0  0  0  0
 19139  1  0  0  0  0
 20140  1  0  0  0  0
 21141  1  0  0  0  0
 22142  1  0  0  0  0
 22143  1  0  0  0  0
 23144  1  0  0  0  0
 28145  1  0  0  0  0
 29146  1  0  0  0  0
 32147  1  0  0  0  0
 32148  1  0  0  0  0
 32149  1  0  0  0  0
 33150  1  0  0  0  0
 34151  1  0  0  0  0
 36152  1  0  0  0  0
 37153  1  0  0  0  0
 40154  1  0  0  0  0
 40155  1  0  0  0  0
 40156  1  0  0  0  0
 41157  1  0  0  0  0
 42158  1  0  0  0  0
 49159  1  0  0  0  0
 50160  1  0  0  0  0
 53161  1  0  0  0  0
 53162  1  0  0  0  0
 53163  1  0  0  0  0
 54164  1  0  0  0  0
 55165  1  0  0  0  0
 57166  1  0  0  0  0
 58167  1  0  0  0  0
 61168  1  0  0  0  0
 61169  1  0  0  0  0
 61170  1  0  0  0  0
 62171  1  0  0  0  0
 63172  1  0  0  0  0
 67173  1  0  0  0  0
 73174  1  0  0  0  0
 73175  1  0  0  0  0
 74176  1  0  0  0  0
 74177  1  0  0  0  0
 74178  1  0  0  0  0
 85179  1  0  0  0  0
 85180  1  0  0  0  0
 86181  1  0  0  0  0
 86182  1  0  0  0  0
 86183  1  0  0  0  0
 93184  1  0  0  0  0
 97185  1  0  0  0  0
100186  1  0  0  0  0
100187  1  0  0  0  0
101188  1  0  0  0  0
101189  1  0  0  0  0
101190  1  0  0  0  0
105191  1  0  0  0  0
106192  1  0  0  0  0
107193  1  0  0  0  0
108194  1  0  0  0  0
110195  1  0  0  0  0
111196  1  0  0  0  0
116197  1  0  0  0  0
119198  1  0  0  0  0
127199  1  0  0  0  0
128200  1  0  0  0  0
129201  1  0  0  0  0
130202  1  0  0  0  0
131203  1  0  0  0  0
132204  1  0  0  0  0
132205  1  0  0  0  0
133206  1  0  0  0  0
M  END
