225

C         -4.21530        6.94630        0.86160
C         -5.29610        7.46440        0.18970
C         -5.84050        7.00540       -1.09340
O         -5.30220        6.29000       -1.92170
C         -7.17310        7.62060       -1.21760
C         -8.10220        7.41290       -2.23300
C         -9.25620        8.14610       -2.09080
C         -9.47300        9.01580       -1.01430
C         -8.56940        9.21770        0.00270
C         -7.38740        8.48450       -0.12440
C         -6.20640        8.44490        0.73560
C         -6.01270        9.21620        1.85600
C         -4.81730        9.29880        2.59330
N         -3.87540        9.46710        3.23210
C         -6.97710       10.07200        2.42320
N         -7.70380       10.77120        2.97420
C        -10.83150        9.43160       -1.52030
C        -10.94950       10.81190       -2.21290
C         -9.58950       11.12120       -2.78780
C         -9.38420       10.29780       -3.80720
C        -10.60170        9.41670       -3.93970
C        -11.69600       10.39840       -3.49130
C        -10.58980        8.46190       -2.72000
C         -3.37120        5.88320        0.53090
C         -2.43230        5.31290        1.42300
N         -2.27780        5.65090        2.75060
C         -3.38690        5.94140        3.56130
C         -3.31070        6.92940        4.53890
C         -4.43130        7.28260        5.26540
C         -5.64920        6.66810        5.00970
S         -7.15800        7.13160        5.79860
C         -6.81830        8.81900        6.37630
C         -5.71110        5.62710        4.08310
C         -4.59100        5.25760        3.37530
C         -0.98910        5.64970        3.29820
C          0.08200        6.14560        2.55730
C          1.35130        6.18370        3.09560
C          1.57080        5.72890        4.38920
S          3.16580        5.75250        5.15570
C          3.94940        7.20070        4.38210
C          0.50830        5.21340        5.12660
C         -0.75990        5.17520        4.58960
C         -1.70540        4.28140        0.80870
S         -0.43270        3.21630        1.32520
C         -0.59450        2.30700       -0.16320
C         -1.43240        2.92520       -1.08910
N         -1.56810        2.59310       -2.41730
C         -0.53860        1.97970       -3.13790
C         -0.84110        1.03390       -4.11630
C          0.16110        0.29920       -4.71540
C          1.48600        0.50280       -4.35130
S          2.81260       -0.48470       -4.97350
C          1.98790       -2.07030       -5.29620
C          1.80110        1.51820       -3.45340
C          0.80100        2.25350       -2.85690
C         -2.79220        2.90710       -3.04270
C         -3.99380        2.52400       -2.45020
C         -5.19240        2.94360       -2.98560
C         -5.20440        3.75440       -4.11470
S         -6.76550        4.33960       -4.69700
C         -6.31340        5.96830       -5.37140
C         -4.01100        4.07430       -4.74900
C         -2.81020        3.65210       -4.21610
C         -2.08960        4.03610       -0.50390
S         -3.34630        5.08860       -1.04190
C          0.09750        1.06190       -0.27790
C         -0.35540       -0.00820       -1.03560
F         -1.58240        0.01910       -1.58790
C          0.37170       -1.19300       -1.14600
F         -0.15120       -2.17990       -1.89840
C          1.53460       -1.42230       -0.43460
C          2.02010       -0.35930        0.37460
N          3.18260       -0.49050        1.03730
C          3.59850        0.48780        1.80520
C          4.92570        0.29890        2.47770
C          4.78140       -0.17630        3.92590
C          2.81740        1.66680        1.96970
N          1.70860        1.81890        1.28830
C          1.29130        0.84860        0.46720
C          3.22320        2.82840        2.82150
C          4.00020        3.84060        1.97610
C          2.14980       -2.73010       -0.37120
C          2.41330       -3.43270        0.79180
N          2.09490       -3.02090        2.07510
C          0.98450       -2.20500        2.32590
C         -0.20940       -2.38330        1.62400
C         -1.25500       -1.50360        1.79200
C         -1.14260       -0.42680        2.66980
S         -2.50670        0.69190        2.72010
C         -2.12580        1.79440        4.11010
C          0.01390       -0.28610        3.42420
C          1.06020       -1.17290        3.25810
C          2.92030       -3.44400        3.12420
C          2.36700       -3.85830        4.33390
C          3.17870       -4.36710        5.32550
C          4.54660       -4.47690        5.11740
S          5.58270       -5.24340        6.34140
C          4.77140       -6.87390        6.38630
C          5.11170       -4.00990        3.94140
C          4.30360       -3.49090        2.95060
C          2.98330       -4.69830        0.49920
S          3.60680       -5.97470        1.47900
C          3.99460       -6.90720        0.03460
C          3.71200       -6.19130       -1.15490
N          4.02800       -6.61160       -2.42300
C          3.23780       -6.20560       -3.50940
C          3.83180       -5.87400       -4.72350
C          3.06120       -5.49010       -5.80290
C          1.67890       -5.42220       -5.68160
S          0.59650       -4.91440       -6.97750
C          1.69270       -4.70790       -8.41100
C          1.08050       -5.75660       -4.46810
C          1.84800       -6.15070       -3.39580
C          5.16750       -7.40150       -2.67150
C          6.36100       -7.15570       -1.98890
C          7.43260       -8.00290       -2.14740
C          7.34750       -9.09840       -3.00820
S          8.74600      -10.17070       -3.06920
C          8.09590      -11.67210       -3.85350
C          6.19520       -9.28740       -3.75840
C          5.11010       -8.44960       -3.58470
C          3.12170       -4.94810       -0.86130
S          2.53750       -3.62730       -1.82070
C          4.48510       -8.21440        0.05580
C          5.05820       -8.93720        1.07490
C          5.33160       -8.46840        2.44010
O          4.86830       -7.48550        2.99670
C          6.27060       -9.43960        3.01710
C          6.90380       -9.43230        4.24310
C          7.76050      -10.47350        4.56630
C          7.97840      -11.51570        3.66420
O          8.78940      -12.57100        3.89100
C          9.48510      -12.65700        5.11300
C          7.33750      -11.52060        2.41440
C          6.49110      -10.48280        2.09540
C          5.69780      -10.21870        0.89560
C          5.59640      -11.05380       -0.18910
C          6.34530      -12.23390       -0.36550
N          6.92900      -13.19140       -0.61510
C          4.72150      -10.87580       -1.27700
N          4.02220      -10.83520       -2.18920
H         -4.01090        7.38520        1.82970
H         -7.90310        6.72110       -3.03580
H         -8.75510        9.88240        0.83010
H        -11.67100        9.22620       -0.85910
H        -11.39840       11.58810       -1.59900
H         -8.91360       11.84480       -2.37080
H         -8.50170       10.19670       -4.41190
H        -10.73530        8.92270       -4.89870
H        -11.83090       11.22570       -4.18660
H        -12.65510        9.92000       -3.29790
H        -11.27150        7.62270       -2.84330
H         -2.37930        7.44630        4.70870
H         -4.34720        8.06320        6.00310
H         -7.78470        9.24220        6.63180
H         -6.36530        9.39280        5.57320
H         -6.18120        8.79790        7.25580
H         -6.65090        5.12170        3.92250
H         -4.64660        4.45990        2.64920
H         -0.08920        6.51810        1.55860
H          2.16230        6.57680        2.50400
H          3.24440        8.02590        4.37480
H          4.80360        7.44500        5.00580
H          4.28680        6.96860        3.37590
H          0.68890        4.84920        6.12630
H         -1.58320        4.78740        5.17050
H         -1.87360        0.84220       -4.36590
H         -0.10150       -0.45030       -5.44450
H          2.78100       -2.80810       -5.36660
H          1.33560       -2.31640       -4.46420
H          1.43150       -2.02960       -6.22800
H          2.83590        1.70780       -3.21280
H          1.05510        3.02480       -2.14520
H         -3.97340        1.91510       -1.55870
H         -6.12650        2.66940       -2.52070
H         -5.81670        5.86230       -6.33140
H         -7.24380        6.51200       -5.50550
H         -5.67750        6.47170       -4.64900
H         -4.00710        4.66820       -5.64920
H         -1.87840        3.91960       -4.69310
H          5.48360        1.23610        2.45710
H          5.48080       -0.45220        1.91490
H          4.17310        0.50950        4.51130
H          4.32390       -1.16150        3.95600
H          5.76260       -0.24590        4.38890
H          3.83330        2.50970        3.66420
H          2.31810        3.30720        3.19790
H          3.36060        4.23440        1.19030
H          4.33860        4.65820        2.60560
H          4.87060        3.37890        1.51430
H         -0.30850       -3.21350        0.94040
H         -2.17150       -1.63490        1.23700
H         -1.24130        2.38520        3.88670
H         -1.99790        1.21040        5.01680
H         -2.98920        2.44590        4.20910
H          0.12490        0.52300        4.12810
H          1.96100       -1.04600        3.83890
H          1.29850       -3.79750        4.48010
H          2.74460       -4.69890        6.25640
H          3.80640       -6.79960        6.87840
H          4.65780       -7.22500        5.36420
H          5.42350       -7.52990        6.95440
H          6.17970       -4.07030        3.80360
H          4.73110       -3.12770        2.02820
H          4.90660       -5.91310       -4.82050
H          3.55400       -5.23880       -6.72820
H          2.39690       -3.89990       -8.23380
H          1.04120       -4.45190       -9.24090
H          2.20580       -5.64150       -8.62100
H          0.00620       -5.71040       -4.38170
H          1.37470       -6.43260       -2.46780
H          6.42810       -6.31690       -1.31240
H          8.34870       -7.83450       -1.60260
H          7.92290      -11.50150       -4.91220
H          8.86590      -12.42590       -3.72230
H          7.18760      -11.98450       -3.34690
H          6.11390      -10.10270       -4.45780
H          4.20080       -8.63110       -4.13600
H          4.46030       -8.70930       -0.90620
H          6.73950       -8.62170        4.93570
H          8.25640      -10.46410        5.52370
H         10.06120      -13.57890        5.05660
H          8.79790      -12.71140        5.96310
H         10.16710      -11.81170        5.24650
H          7.53850      -12.34040        1.74510
