197

C          6.82350        4.43130        1.63780
C          7.39810        4.90020        0.50740
C          6.97360        4.63730       -0.90020
O          5.90440        4.23540       -1.30280
C          8.16550        4.91520       -1.72110
C          8.30720        4.67380       -3.08610
C          9.56210        4.93830       -3.57430
C         10.60690        5.41810       -2.76980
C         10.47730        5.68240       -1.42870
C          9.20630        5.41240       -0.90990
C          8.71300        5.53040        0.45300
C          9.32260        6.19070        1.48320
C          8.75110        6.38100        2.76100
N          8.34110        6.60010        3.81050
C         10.57900        6.82600        1.38460
N         11.59640        7.35700        1.36750
C         11.59920        5.39060       -3.90480
C         12.61450        4.22000       -3.93080
C         11.96210        3.07270       -3.19950
C         10.96950        2.62080       -3.95430
C         10.93720        3.45240       -5.21370
C         12.43520        3.75080       -5.38310
C         10.43560        4.85850       -4.79970
C          5.55390        3.76050        1.74790
C          5.41670        2.69320        2.62090
F          6.47610        2.29860        3.35030
C          4.24810        1.93300        2.69280
F          4.23120        0.86970        3.51480
C          3.17220        2.17720        1.85880
C          3.23970        3.32720        1.02500
N          2.18200        3.65600        0.25950
C          2.22240        4.75790       -0.44560
C          1.04700        5.03850       -1.33180
C          1.33700        4.59440       -2.76750
C          3.33150        5.64920       -0.33520
N          4.37600        5.32480        0.38010
C          4.39520        4.14610        1.01840
C          3.34740        7.02300       -0.93290
C          2.69810        8.02420        0.02650
C          2.04640        1.27170        1.77700
C          1.55830        0.69420        0.62040
N          2.08910        0.81680       -0.65200
C          1.17010        0.82270       -1.71290
C         -0.02880        1.52520       -1.57690
C         -0.98520        1.47090       -2.56480
C         -0.76560        0.71710       -3.71540
S         -2.07080        0.68760       -4.90270
C         -1.65060       -0.72340       -5.96370
C          0.44290        0.05100       -3.87410
C          1.40030        0.09980       -2.87910
C          3.46450        0.91730       -0.87070
C          4.37190        0.30810       -0.00360
C          5.73200        0.47560       -0.16870
C          6.21560        1.23020       -1.22800
S          7.93720        1.54420       -1.48830
C          8.65550        1.32000        0.16500
C          5.32040        1.76500       -2.14870
C          3.96290        1.62400       -1.96490
C          0.43320       -0.11920        0.90830
S         -0.62000       -1.09040       -0.05340
C         -1.55770       -1.51800        1.36680
C         -1.05410       -0.96140        2.52820
N         -1.63730       -1.03300        3.78120
C         -1.71150        0.14680        4.53560
C         -1.50210        0.13430        5.91530
C         -1.56510        1.30450        6.63610
C         -1.82790        2.51770        6.00130
S         -1.88170        3.94860        7.03350
C         -2.05100        5.32560        5.86220
C         -2.03800        2.53550        4.62990
C         -1.98460        1.35920        3.90760
C         -2.01750       -2.25380        4.35120
C         -3.15730       -2.32170        5.14730
C         -3.48110       -3.48440        5.81590
C         -2.66770       -4.60280        5.69440
S         -2.92710       -6.09990        6.59380
C         -4.64250       -5.96620        7.16820
C         -1.55540       -4.55280        4.85670
C         -1.23370       -3.39380        4.18680
C          0.09030       -0.16550        2.24770
S          1.17580        0.77080        3.21370
C         -2.79730       -2.18720        1.08650
C         -3.64730       -1.84360        0.06910
C         -4.75330       -2.72060        0.15060
C         -5.94670       -2.82850       -0.58580
C         -6.29060       -2.02380       -1.72940
C         -7.54160       -1.81950       -2.25110
C         -7.50930       -1.02980       -3.41290
F         -8.63350       -0.70270       -4.07920
C         -6.26950       -0.62860       -3.81560
C         -5.90720        0.23830       -4.96920
C         -5.64100        1.67600       -4.51860
S         -5.08710       -1.22850       -2.70700
C         -6.77940       -3.85310       -0.14560
C         -6.46320       -4.77000        0.88890
C         -5.25760       -4.66200        1.61560
C         -4.84090       -5.66690        2.56040
S         -3.17760       -6.17910        2.59910
C         -3.52520       -7.45500        3.71230
C         -2.49190       -8.43210        4.15190
C         -2.08550       -9.35900        3.00510
C         -4.85250       -7.43250        4.03130
C         -5.60930       -6.43430        3.39380
F         -5.40750       -8.30330        4.89750
C         -4.45610       -3.59120        1.23160
O         -3.27400       -3.24080        1.79990
C         -7.51650       -5.71790        0.87510
C         -8.37710       -5.34380       -0.13000
O         -7.94650       -4.19490       -0.72540
C         -9.58150       -5.93330       -0.60230
C        -10.20780       -5.62130       -1.76530
C        -11.66030       -5.92930       -1.95520
O        -12.31070       -6.71480       -1.30840
C        -12.09300       -5.02170       -3.03100
C        -13.38490       -4.77380       -3.50720
O        -14.39320       -5.46610       -2.95660
C        -15.70950       -5.24570       -3.40600
C        -13.51980       -3.81570       -4.52010
C        -12.41830       -3.13980       -5.01490
C        -11.13330       -3.38820       -4.55170
C        -10.98030       -4.34130       -3.56120
C         -9.77460       -4.83680       -2.90380
C         -8.50940       -4.78000       -3.42100
C         -7.41940       -5.50550       -2.89250
N         -6.51920       -6.11940       -2.53160
C         -8.14860       -4.06980       -4.58380
N         -7.77210       -3.50610       -5.51040
H          7.39090        4.47620        2.56120
H          7.48530        4.29120       -3.66950
H         11.28750        6.04250       -0.81610
H         12.05460        6.34270       -4.16900
H         13.61810        4.48660       -3.61050
H         12.24340        2.75530       -2.21240
H         10.24960        1.85910       -3.71860
H         10.41380        3.01840       -6.06150
H         13.01860        2.86050       -5.61240
H         12.64310        4.52670       -6.11870
H         10.13000        5.46090       -5.65280
H          0.18970        4.48170       -0.95390
H          0.80840        6.10220       -1.31700
H          2.25070        5.05220       -3.13990
H          0.51240        4.87490       -3.41830
H          1.44950        3.51440       -2.80620
H          4.38900        7.30500       -1.08940
H          2.83090        7.03540       -1.89200
H          3.23810        8.03740        0.96990
H          2.72250        9.02280       -0.40240
H          1.66230        7.75790        0.22720
H         -0.19640        2.10520       -0.68250
H         -1.91640        2.00540       -2.45650
H         -2.51470       -0.88360       -6.60110
H         -1.47810       -1.59990       -5.34660
H         -0.78420       -0.49220       -6.57680
H          0.64680       -0.52300       -4.76360
H          2.32850       -0.43860       -2.99980
H          4.01070       -0.30650        0.80730
H          6.40510        0.00230        0.52900
H          9.64400        1.76720        0.12070
H          8.04520        1.83680        0.89970
H          8.74260        0.26380        0.40280
H          5.69780        2.31110       -2.99730
H          3.28050        2.07960       -2.66510
H         -1.28030       -0.79660        6.41430
H         -1.39830        1.29700        7.70220
H         -3.01000        5.27110        5.35500
H         -1.22690        5.31110        5.15520
H         -2.00540        6.22770        6.46430
H         -2.25320        3.45440        4.10910
H         -2.16260        1.38120        2.84220
H         -3.78040       -1.44650        5.25900
H         -4.35950       -3.50060        6.44100
H         -5.28390       -5.69700        6.33440
H         -4.90740       -6.95410        7.53220
H         -4.71760       -5.24270        7.97500
H         -0.93000       -5.42650        4.75870
H         -0.36050       -3.35710        3.55330
H         -3.49850       -1.04100       -0.62250
H         -8.45090       -2.18810       -1.81590
H         -5.01030       -0.15320       -5.45220
H         -6.72960        0.21840       -5.68680
H         -6.51940        2.09040       -4.02900
H         -4.80480        1.69900       -3.82420
H         -5.39310        2.29490       -5.37630
H         -2.90040       -9.01690        4.97810
H         -1.61230       -7.89820        4.51670
H         -2.94680       -9.91510        2.64240
H         -1.33390      -10.06630        3.34540
H         -1.67490       -8.78070        2.18050
H         -6.65830       -6.28400        3.56850
H         -7.61480       -6.59280        1.48290
H        -10.08170       -6.62710        0.06100
H        -16.02410       -4.21130       -3.23550
H        -16.33320       -5.91410       -2.81530
H        -15.81830       -5.49190       -4.46690
H        -14.49360       -3.58860       -4.92440
H        -12.56490       -2.39730       -5.78470
H        -10.29490       -2.83640       -4.94290
