162

C         -2.72890       -3.51770       -7.13030
C         -1.64120       -4.22400       -7.57470
C         -0.28620       -4.16910       -7.01120
O          0.12870       -3.43870       -6.12770
C          0.49990       -5.19110       -7.72130
C          1.83560       -5.51900       -7.49930
C          2.30300       -6.52740       -8.30690
C          1.50140       -7.16100       -9.26570
C          0.18470       -6.84070       -9.49910
C         -0.31330       -5.81720       -8.68640
C         -1.64380       -5.21110       -8.63800
C         -2.68370       -5.52020       -9.47700
C         -3.95770       -4.91460       -9.47310
N         -5.01740       -4.47700       -9.55080
C         -2.62630       -6.49330      -10.49660
N         -2.65990       -7.26960      -11.34220
C          2.61310       -8.08340       -9.70160
C          2.54760       -9.53580       -9.18350
C          3.96040      -10.04530       -9.35590
C          4.71980       -9.44420       -8.44890
C          3.83290       -8.51810       -7.64830
C          2.52750       -9.32380       -7.66410
C          3.50700       -7.37540       -8.63340
C         -2.83280       -2.57640       -6.09420
C         -4.04760       -2.01780       -5.69890
C         -3.95780       -1.13460       -4.63090
C         -5.12150       -0.49480       -4.00000
C         -5.96380        0.32680       -4.75870
O         -5.58520        0.50090       -6.05290
C         -6.43150        1.19200       -6.95020
C         -7.63230        0.35620       -7.38290
C         -7.06090        0.92630       -4.14760
C         -7.30880        0.69540       -2.80770
C         -6.49800       -0.13030       -2.05190
C         -5.39790       -0.73580       -2.64720
O         -4.53990       -1.57820       -2.01600
C         -4.57130       -1.66310       -0.60370
C         -3.30220       -2.37660       -0.16290
C         -2.63820       -0.97680       -4.20660
S         -1.53560       -1.95790       -5.11120
C         -2.11330       -0.17630       -3.15670
C         -0.83090       -0.26330       -2.68260
C         -0.56460        0.57270       -1.57960
C          0.64100        0.70870       -0.85840
C          1.82240       -0.06860       -1.16970
C          3.12900        0.32700       -1.10220
C          4.02800       -0.70000       -1.45910
Cl         5.73300       -0.45910       -1.48190
C          3.43580       -1.88750       -1.77830
C          4.05490       -3.15370       -2.25660
C          3.80630       -3.35450       -3.75390
S          1.71950       -1.74210       -1.64500
C          0.63150        1.61650        0.19550
C         -0.52050        2.35260        0.57270
C         -1.72060        2.23870       -0.16600
C         -2.89990        3.00020        0.18460
S         -4.48960        2.28760        0.08650
C         -5.24920        3.73850        0.63880
C         -6.72230        3.80630        0.84090
C         -7.11220        3.27840        2.22380
C         -4.30750        4.69750        0.87810
C         -2.98090        4.29200        0.62310
Cl        -4.69640        6.27610        1.43610
C         -1.70300        1.34530       -1.22890
S         -3.04490        1.02180       -2.29360
C         -0.30540        3.09260        1.75190
C          0.96200        2.98220        2.26380
S          1.95910        1.92440        1.27800
C          1.50820        3.56570        3.45260
C          0.87970        4.41780        4.36260
C         -0.45230        5.07430        4.37170
O         -1.33570        5.09290        3.54620
N         -0.55110        5.75350        5.57520
C         -1.71020        6.53760        5.94470
C         -1.66100        7.92660        5.31900
C          0.57410        5.63080        6.36110
O          0.71790        6.10080        7.46320
C          1.51430        4.81150        5.56900
C          2.77670        4.44020        5.97110
C          3.48840        3.66000        5.02270
C          2.85700        3.23370        3.80540
N          3.68770        2.51520        3.05860
S          5.11080        2.40090        3.79530
N          4.75350        3.26260        5.10220
C          3.35630        4.82990        7.23480
C          3.97940        3.95660        8.05320
C          3.90860        2.47450        7.89430
O          3.28630        1.85420        7.05980
C          4.66400        1.91760        9.02640
C          4.90160        0.56840        9.28420
C          5.63070        0.33500       10.42400
C          6.08670        1.36850       11.25560
C          5.85760        2.70170       11.01660
C          5.12000        2.96380        9.85660
C          4.71320        4.23960        9.27950
C          5.01990        5.48040        9.76400
C          4.69960        6.70160        9.12940
N          4.51510        7.73540        8.66670
C          5.73010        5.71980       10.96050
N          6.29400        5.98540       11.92430
C          6.73720        0.41090       12.22170
C          6.00490        0.12440       13.55600
C          4.53630        0.35380       13.29750
C          4.10600       -0.62340       12.51070
C          5.27610       -1.53160       12.22280
C          6.04440       -1.41220       13.54860
C          6.23080       -0.73940       11.29530
H         -3.67540       -3.71400       -7.61950
H          2.41580       -5.00120       -6.75150
H         -0.41450       -7.33660      -10.24400
H          2.90110       -8.01780      -10.74900
H          1.75370      -10.13810       -9.61650
H          4.26250      -10.72580      -10.13020
H          5.78270       -9.52210       -8.31430
H          4.20990       -8.19330       -6.68220
H          2.61580      -10.26090       -7.11700
H          1.66090       -8.77220       -7.30410
H          4.39140       -6.83680       -8.96880
H         -4.97720       -2.27460       -6.17530
H         -6.75280        2.14970       -6.52320
H         -5.79280        1.39880       -7.81340
H         -8.22650        0.91270       -8.10230
H         -8.25620        0.10270       -6.52910
H         -7.29190       -0.56620       -7.84670
H         -7.72090        1.57580       -4.69870
H         -8.16240        1.16600       -2.34280
H         -6.72810       -0.30100       -1.01340
H         -5.45770       -2.22590       -0.27980
H         -4.61030       -0.65600       -0.16790
H         -2.42810       -1.80260       -0.45980
H         -3.29990       -2.49430        0.91680
H         -3.24550       -3.35540       -0.63090
H         -0.11460       -0.92970       -3.12530
H          3.44640        1.32070       -0.84810
H          3.63330       -3.99790       -1.70580
H          5.12830       -3.11380       -2.06130
H          2.73890       -3.39410       -3.96050
H          4.26350       -4.28370       -4.08540
H          4.23760       -2.53280       -4.32090
H         -7.04170        4.84600        0.74450
H         -7.22030        3.21400        0.07070
H         -6.62980        3.86700        3.00030
H         -8.18890        3.33890        2.35920
H         -6.80300        2.24130        2.33270
H         -2.13900        4.94870        0.73460
H         -1.07340        3.67070        2.22520
H         -1.71200        6.60590        7.03490
H         -2.59850        6.00100        5.60190
H         -2.52990        8.49940        5.63010
H         -1.66360        7.84850        4.23440
H         -0.76300        8.45190        5.63590
H          3.24210        5.87000        7.51030
H          4.53090       -0.19470        8.61780
H          6.21310        3.48330       11.66690
H          7.81110        0.52480       12.35390
H          6.42560        0.63260       14.41920
H          3.99170        1.20760       13.65580
H          3.13000       -0.74900       12.07990
H          5.03330       -2.53150       11.87280
H          5.50660       -1.85110       14.38750
H          7.05320       -1.82040       13.50400
H          6.97420       -1.37780       10.82190
