
  xtb     02052208573D
 energy: -358.229592082672 gnorm: 0.000969543093 xtb: 6.4.1 (unknown)
215237  0     0  0            999 V2000
   -4.1459    5.6819   -1.2578 C   0  0  0  0  0  0  0  0  0  0  0  0
   -3.3778    6.3935   -2.1269 C   0  0  0  0  0  0  0  0  0  0  0  0
   -2.2756    5.7724   -2.9121 C   0  0  0  0  0  0  0  0  0  0  0  0
   -1.9395    4.6059   -2.9130 O   0  0  0  0  0  0  0  0  0  0  0  0
   -1.7840    6.8299   -3.8054 C   0  0  0  0  0  0  0  0  0  0  0  0
   -0.7263    6.7300   -4.7070 C   0  0  0  0  0  0  0  0  0  0  0  0
   -0.4338    7.9015   -5.3603 C   0  0  0  0  0  0  0  0  0  0  0  0
   -1.1561    9.0849   -5.1494 C   0  0  0  0  0  0  0  0  0  0  0  0
   -2.2185    9.1917   -4.2842 C   0  0  0  0  0  0  0  0  0  0  0  0
   -2.5258    8.0114   -3.5993 C   0  0  0  0  0  0  0  0  0  0  0  0
   -3.5411    7.7567   -2.5841 C   0  0  0  0  0  0  0  0  0  0  0  0
   -4.4148    8.6704   -2.0542 C   0  0  0  0  0  0  0  0  0  0  0  0
   -4.5402   10.0047   -2.4912 C   0  0  0  0  0  0  0  0  0  0  0  0
   -4.6984   11.0965   -2.8087 N   0  0  0  0  0  0  0  0  0  0  0  0
   -5.2924    8.3888   -0.9867 C   0  0  0  0  0  0  0  0  0  0  0  0
   -6.0100    8.2223   -0.1058 N   0  0  0  0  0  0  0  0  0  0  0  0
   -0.3144    9.8661   -6.1270 C   0  0  0  0  0  0  0  0  0  0  0  0
   -0.9336   10.1322   -7.5155 C   0  0  0  0  0  0  0  0  0  0  0  0
    0.2572   10.4737   -8.3818 C   0  0  0  0  0  0  0  0  0  0  0  0
    0.9483    9.3578   -8.5758 C   0  0  0  0  0  0  0  0  0  0  0  0
    0.2355    8.2427   -7.8455 C   0  0  0  0  0  0  0  0  0  0  0  0
   -1.2177    8.7074   -8.0085 C   0  0  0  0  0  0  0  0  0  0  0  0
    0.4949    8.5493   -6.3557 C   0  0  0  0  0  0  0  0  0  0  0  0
   -3.6025    4.5363   -0.6053 C   0  0  0  0  0  0  0  0  0  0  0  0
   -2.3530    4.5034    0.0006 C   0  0  0  0  0  0  0  0  0  0  0  0
   -1.5649    5.6453    0.2229 N   0  0  0  0  0  0  0  0  0  0  0  0
   -0.5253    6.0228   -0.6327 C   0  0  0  0  0  0  0  0  0  0  0  0
    0.2960    5.0740   -1.2322 C   0  0  0  0  0  0  0  0  0  0  0  0
    1.2864    5.4583   -2.1153 C   0  0  0  0  0  0  0  0  0  0  0  0
    1.4732    6.8006   -2.4112 C   0  0  0  0  0  0  0  0  0  0  0  0
    2.6827    7.3973   -3.5529 S   0  0  0  0  0  0  0  0  0  0  0  0
    3.3739    5.8839   -4.2810 C   0  0  0  0  0  0  0  0  0  0  0  0
    0.6715    7.7578   -1.7941 C   0  0  0  0  0  0  0  0  0  0  0  0
   -0.3183    7.3742   -0.9180 C   0  0  0  0  0  0  0  0  0  0  0  0
   -1.8297    6.3696    1.3942 C   0  0  0  0  0  0  0  0  0  0  0  0
   -3.1287    6.5159    1.8820 C   0  0  0  0  0  0  0  0  0  0  0  0
   -3.3659    7.2297    3.0361 C   0  0  0  0  0  0  0  0  0  0  0  0
   -2.3136    7.7958    3.7468 C   0  0  0  0  0  0  0  0  0  0  0  0
   -2.7155    8.6661    5.2325 S   0  0  0  0  0  0  0  0  0  0  0  0
   -1.1657    8.5879    6.1759 C   0  0  0  0  0  0  0  0  0  0  0  0
   -1.0183    7.6580    3.2668 C   0  0  0  0  0  0  0  0  0  0  0  0
   -0.7808    6.9492    2.1073 C   0  0  0  0  0  0  0  0  0  0  0  0
   -2.1054    3.2393    0.5682 C   0  0  0  0  0  0  0  0  0  0  0  0
   -0.7027    2.4855    1.2262 S   0  0  0  0  0  0  0  0  0  0  0  0
   -1.5623    0.9558    1.3591 C   0  0  0  0  0  0  0  0  0  0  0  0
   -2.8663    1.0365    0.9047 C   0  0  0  0  0  0  0  0  0  0  0  0
   -3.7771   -0.0074    0.8702 N   0  0  0  0  0  0  0  0  0  0  0  0
   -3.3448   -1.3083    0.5874 C   0  0  0  0  0  0  0  0  0  0  0  0
   -3.8514   -2.3953    1.2941 C   0  0  0  0  0  0  0  0  0  0  0  0
   -3.3513   -3.6649    1.0779 C   0  0  0  0  0  0  0  0  0  0  0  0
   -2.3170   -3.8617    0.1727 C   0  0  0  0  0  0  0  0  0  0  0  0
   -1.5352   -5.4305   -0.0661 S   0  0  0  0  0  0  0  0  0  0  0  0
   -1.7214   -6.2185    1.5631 C   0  0  0  0  0  0  0  0  0  0  0  0
   -1.8657   -2.7933   -0.5948 C   0  0  0  0  0  0  0  0  0  0  0  0
   -2.3869   -1.5328   -0.4016 C   0  0  0  0  0  0  0  0  0  0  0  0
   -5.1303    0.2590    1.1184 C   0  0  0  0  0  0  0  0  0  0  0  0
   -6.1244   -0.4575    0.4505 C   0  0  0  0  0  0  0  0  0  0  0  0
   -7.4522   -0.1809    0.6811 C   0  0  0  0  0  0  0  0  0  0  0  0
   -7.8246    0.8227    1.5747 C   0  0  0  0  0  0  0  0  0  0  0  0
   -9.5570    1.0892    1.7788 S   0  0  0  0  0  0  0  0  0  0  0  0
   -9.6508    2.5849    2.8037 C   0  0  0  0  0  0  0  0  0  0  0  0
   -6.8396    1.5332    2.2457 C   0  0  0  0  0  0  0  0  0  0  0  0
   -5.5060    1.2501    2.0209 C   0  0  0  0  0  0  0  0  0  0  0  0
   -3.1599    2.3449    0.4459 C   0  0  0  0  0  0  0  0  0  0  0  0
   -4.5063    3.0577   -0.3687 S   0  0  0  0  0  0  0  0  0  0  0  0
   -0.7933   -0.2243    1.6682 C   0  0  0  0  0  0  0  0  0  0  0  0
   -0.8330   -1.0861    2.7463 C   0  0  0  0  0  0  0  0  0  0  0  0
   -1.5957   -0.8406    3.8719 N   0  0  0  0  0  0  0  0  0  0  0  0
   -1.7978    0.5070    4.2420 C   0  0  0  0  0  0  0  0  0  0  0  0
   -0.7283    1.4017    4.2566 C   0  0  0  0  0  0  0  0  0  0  0  0
   -0.9285    2.7164    4.6078 C   0  0  0  0  0  0  0  0  0  0  0  0
   -2.1989    3.1680    4.9618 C   0  0  0  0  0  0  0  0  0  0  0  0
   -2.3132    4.8698    5.4019 S   0  0  0  0  0  0  0  0  0  0  0  0
   -4.0802    5.1396    5.7045 C   0  0  0  0  0  0  0  0  0  0  0  0
   -3.2633    2.2757    4.9651 C   0  0  0  0  0  0  0  0  0  0  0  0
   -3.0612    0.9546    4.6075 C   0  0  0  0  0  0  0  0  0  0  0  0
   -1.9752   -1.8572    4.7527 C   0  0  0  0  0  0  0  0  0  0  0  0
   -2.0259   -1.6224    6.1285 C   0  0  0  0  0  0  0  0  0  0  0  0
   -2.3875   -2.6311    6.9915 C   0  0  0  0  0  0  0  0  0  0  0  0
   -2.7018   -3.9017    6.5112 C   0  0  0  0  0  0  0  0  0  0  0  0
   -3.1398   -5.1156    7.7163 S   0  0  0  0  0  0  0  0  0  0  0  0
   -3.1891   -6.6651    6.7709 C   0  0  0  0  0  0  0  0  0  0  0  0
   -2.6690   -4.1353    5.1448 C   0  0  0  0  0  0  0  0  0  0  0  0
   -2.3120   -3.1203    4.2775 C   0  0  0  0  0  0  0  0  0  0  0  0
    0.0842   -2.1568    2.5599 C   0  0  0  0  0  0  0  0  0  0  0  0
    0.5000   -3.5743    3.4538 S   0  0  0  0  0  0  0  0  0  0  0  0
    1.7057   -4.0357    2.2391 C   0  0  0  0  0  0  0  0  0  0  0  0
    1.7325   -3.1470    1.1639 C   0  0  0  0  0  0  0  0  0  0  0  0
    2.4444   -3.2454   -0.0103 N   0  0  0  0  0  0  0  0  0  0  0  0
    2.6039   -2.0546   -0.7594 C   0  0  0  0  0  0  0  0  0  0  0  0
    2.0241   -1.9488   -2.0206 C   0  0  0  0  0  0  0  0  0  0  0  0
    2.0064   -0.7339   -2.6740 C   0  0  0  0  0  0  0  0  0  0  0  0
    2.5765    0.3837   -2.0756 C   0  0  0  0  0  0  0  0  0  0  0  0
    2.3974    1.9974   -2.7779 S   0  0  0  0  0  0  0  0  0  0  0  0
    0.6857    1.9126   -3.3985 C   0  0  0  0  0  0  0  0  0  0  0  0
    3.2672    0.2515   -0.8762 C   0  0  0  0  0  0  0  0  0  0  0  0
    3.2772   -0.9616   -0.2176 C   0  0  0  0  0  0  0  0  0  0  0  0
    2.8340   -4.4459   -0.6131 C   0  0  0  0  0  0  0  0  0  0  0  0
    4.0132   -4.4748   -1.3607 C   0  0  0  0  0  0  0  0  0  0  0  0
    4.4789   -5.6627   -1.8733 C   0  0  0  0  0  0  0  0  0  0  0  0
    3.7820   -6.8484   -1.6509 C   0  0  0  0  0  0  0  0  0  0  0  0
    4.5417   -8.3369   -2.2231 S   0  0  0  0  0  0  0  0  0  0  0  0
    3.6258   -9.6417   -1.3533 C   0  0  0  0  0  0  0  0  0  0  0  0
    2.5611   -6.8093   -0.9924 C   0  0  0  0  0  0  0  0  0  0  0  0
    2.0898   -5.6152   -0.4832 C   0  0  0  0  0  0  0  0  0  0  0  0
    0.8260   -2.0758    1.3931 C   0  0  0  0  0  0  0  0  0  0  0  0
    0.4374   -0.6577    0.4972 S   0  0  0  0  0  0  0  0  0  0  0  0
    2.4460   -5.2148    2.4959 C   0  0  0  0  0  0  0  0  0  0  0  0
    2.0311   -6.2557    3.3172 C   0  0  0  0  0  0  0  0  0  0  0  0
    2.9049   -7.3272    3.2910 C   0  0  0  0  0  0  0  0  0  0  0  0
    2.6018   -8.7931    4.1287 Cl  0  0  0  0  0  0  0  0  0  0  0  0
    4.0265   -7.1464    2.4651 C   0  0  0  0  0  0  0  0  0  0  0  0
    4.0063   -5.5301    1.8052 S   0  0  0  0  0  0  0  0  0  0  0  0
    4.8971   -8.1815    2.1076 C   0  0  0  0  0  0  0  0  0  0  0  0
    5.9135   -8.1801    1.1857 C   0  0  0  0  0  0  0  0  0  0  0  0
    6.4354   -6.9931    0.5037 C   0  0  0  0  0  0  0  0  0  0  0  0
    6.1275   -5.8293    0.7073 O   0  0  0  0  0  0  0  0  0  0  0  0
    7.4224   -7.4751   -0.4723 C   0  0  0  0  0  0  0  0  0  0  0  0
    8.1126   -6.7125   -1.4109 C   0  0  0  0  0  0  0  0  0  0  0  0
    8.9056   -7.4518   -2.2547 C   0  0  0  0  0  0  0  0  0  0  0  0
    9.0197   -8.8445   -2.1574 C   0  0  0  0  0  0  0  0  0  0  0  0
    8.3573   -9.6066   -1.2244 C   0  0  0  0  0  0  0  0  0  0  0  0
    7.5292   -8.8764   -0.3681 C   0  0  0  0  0  0  0  0  0  0  0  0
    6.6200   -9.3377    0.6804 C   0  0  0  0  0  0  0  0  0  0  0  0
    6.4421  -10.6462    1.0542 C   0  0  0  0  0  0  0  0  0  0  0  0
    5.5229  -11.1126    2.0165 C   0  0  0  0  0  0  0  0  0  0  0  0
    4.7877  -11.5856    2.7625 N   0  0  0  0  0  0  0  0  0  0  0  0
    7.1509  -11.7374    0.5110 C   0  0  0  0  0  0  0  0  0  0  0  0
    7.6855  -12.6781    0.1257 N   0  0  0  0  0  0  0  0  0  0  0  0
    9.9456   -8.9323   -3.3444 C   0  0  0  0  0  0  0  0  0  0  0  0
    9.3107   -9.4240   -4.6627 C   0  0  0  0  0  0  0  0  0  0  0  0
   10.2774   -8.9569   -5.7265 C   0  0  0  0  0  0  0  0  0  0  0  0
   10.1660   -7.6381   -5.8213 C   0  0  0  0  0  0  0  0  0  0  0  0
    9.1227   -7.1925   -4.8224 C   0  0  0  0  0  0  0  0  0  0  0  0
    8.1820   -8.4040   -4.8643 C   0  0  0  0  0  0  0  0  0  0  0  0
    9.8155   -7.3793   -3.4553 C   0  0  0  0  0  0  0  0  0  0  0  0
   -5.1571    5.9801   -1.0150 H   0  0  0  0  0  0  0  0  0  0  0  0
   -0.1977    5.7986   -4.8352 H   0  0  0  0  0  0  0  0  0  0  0  0
   -2.7680   10.1068   -4.1368 H   0  0  0  0  0  0  0  0  0  0  0  0
    0.2036   10.7310   -5.7182 H   0  0  0  0  0  0  0  0  0  0  0  0
   -1.7598   10.8379   -7.5183 H   0  0  0  0  0  0  0  0  0  0  0  0
    0.4965   11.4690   -8.7070 H   0  0  0  0  0  0  0  0  0  0  0  0
    1.8804    9.2352   -9.0953 H   0  0  0  0  0  0  0  0  0  0  0  0
    0.4742    7.2274   -8.1511 H   0  0  0  0  0  0  0  0  0  0  0  0
   -1.9303    8.1593   -7.3948 H   0  0  0  0  0  0  0  0  0  0  0  0
   -1.5422    8.6891   -9.0477 H   0  0  0  0  0  0  0  0  0  0  0  0
    1.5491    8.5353   -6.0869 H   0  0  0  0  0  0  0  0  0  0  0  0
    0.1554    4.0275   -1.0132 H   0  0  0  0  0  0  0  0  0  0  0  0
    1.9128    4.6981   -2.5529 H   0  0  0  0  0  0  0  0  0  0  0  0
    4.0815    6.2180   -5.0333 H   0  0  0  0  0  0  0  0  0  0  0  0
    2.5834    5.3037   -4.7474 H   0  0  0  0  0  0  0  0  0  0  0  0
    3.8893    5.3016   -3.5232 H   0  0  0  0  0  0  0  0  0  0  0  0
    0.8216    8.8015   -2.0252 H   0  0  0  0  0  0  0  0  0  0  0  0
   -0.9486    8.1184   -0.4524 H   0  0  0  0  0  0  0  0  0  0  0  0
   -3.9637    6.0805    1.3569 H   0  0  0  0  0  0  0  0  0  0  0  0
   -4.3758    7.3569    3.3942 H   0  0  0  0  0  0  0  0  0  0  0  0
   -0.7944    7.5677    6.1604 H   0  0  0  0  0  0  0  0  0  0  0  0
   -1.4199    8.8797    7.1900 H   0  0  0  0  0  0  0  0  0  0  0  0
   -0.4376    9.2827    5.7672 H   0  0  0  0  0  0  0  0  0  0  0  0
   -0.1835    8.0933    3.7922 H   0  0  0  0  0  0  0  0  0  0  0  0
    0.2305    6.8394    1.7450 H   0  0  0  0  0  0  0  0  0  0  0  0
   -4.6249   -2.2406    2.0314 H   0  0  0  0  0  0  0  0  0  0  0  0
   -3.7621   -4.4938    1.6331 H   0  0  0  0  0  0  0  0  0  0  0  0
   -1.4468   -5.5098    2.3391 H   0  0  0  0  0  0  0  0  0  0  0  0
   -1.0334   -7.0586    1.5674 H   0  0  0  0  0  0  0  0  0  0  0  0
   -2.7372   -6.5790    1.6972 H   0  0  0  0  0  0  0  0  0  0  0  0
   -1.0970   -2.9593   -1.3339 H   0  0  0  0  0  0  0  0  0  0  0  0
   -2.0399   -0.7051   -1.0020 H   0  0  0  0  0  0  0  0  0  0  0  0
   -5.8463   -1.2244   -0.2567 H   0  0  0  0  0  0  0  0  0  0  0  0
   -8.2214   -0.7309    0.1613 H   0  0  0  0  0  0  0  0  0  0  0  0
   -9.2650    2.3834    3.7990 H   0  0  0  0  0  0  0  0  0  0  0  0
  -10.7063    2.8312    2.8634 H   0  0  0  0  0  0  0  0  0  0  0  0
   -9.1092    3.3945    2.3236 H   0  0  0  0  0  0  0  0  0  0  0  0
   -7.0942    2.3066    2.9523 H   0  0  0  0  0  0  0  0  0  0  0  0
   -4.7467    1.7989    2.5588 H   0  0  0  0  0  0  0  0  0  0  0  0
    0.2599    1.0585    3.9888 H   0  0  0  0  0  0  0  0  0  0  0  0
   -0.1039    3.4122    4.6155 H   0  0  0  0  0  0  0  0  0  0  0  0
   -4.4091    4.5443    6.5513 H   0  0  0  0  0  0  0  0  0  0  0  0
   -4.1749    6.1968    5.9345 H   0  0  0  0  0  0  0  0  0  0  0  0
   -4.6445    4.9056    4.8067 H   0  0  0  0  0  0  0  0  0  0  0  0
   -4.2549    2.5946    5.2444 H   0  0  0  0  0  0  0  0  0  0  0  0
   -3.8890    0.2605    4.6143 H   0  0  0  0  0  0  0  0  0  0  0  0
   -1.7688   -0.6484    6.5164 H   0  0  0  0  0  0  0  0  0  0  0  0
   -2.4193   -2.4513    8.0551 H   0  0  0  0  0  0  0  0  0  0  0  0
   -2.2436   -6.8119    6.2572 H   0  0  0  0  0  0  0  0  0  0  0  0
   -4.0222   -6.6555    6.0739 H   0  0  0  0  0  0  0  0  0  0  0  0
   -3.3362   -7.4506    7.5055 H   0  0  0  0  0  0  0  0  0  0  0  0
   -2.9263   -5.1005    4.7382 H   0  0  0  0  0  0  0  0  0  0  0  0
   -2.3149   -3.2980    3.2147 H   0  0  0  0  0  0  0  0  0  0  0  0
    1.5546   -2.8149   -2.4637 H   0  0  0  0  0  0  0  0  0  0  0  0
    1.5232   -0.6534   -3.6352 H   0  0  0  0  0  0  0  0  0  0  0  0
    0.1039    1.2982   -2.7190 H   0  0  0  0  0  0  0  0  0  0  0  0
    0.6673    1.5039   -4.4048 H   0  0  0  0  0  0  0  0  0  0  0  0
    0.2917    2.9245   -3.4016 H   0  0  0  0  0  0  0  0  0  0  0  0
    3.7533    1.1133   -0.4465 H   0  0  0  0  0  0  0  0  0  0  0  0
    3.7655   -1.0613    0.7401 H   0  0  0  0  0  0  0  0  0  0  0  0
    4.5797   -3.5669   -1.4981 H   0  0  0  0  0  0  0  0  0  0  0  0
    5.4071   -5.6959   -2.4224 H   0  0  0  0  0  0  0  0  0  0  0  0
    3.5809   -9.4112   -0.2923 H   0  0  0  0  0  0  0  0  0  0  0  0
    2.6306   -9.7495   -1.7746 H   0  0  0  0  0  0  0  0  0  0  0  0
    4.1900  -10.5557   -1.5132 H   0  0  0  0  0  0  0  0  0  0  0  0
    1.9698   -7.7008   -0.8587 H   0  0  0  0  0  0  0  0  0  0  0  0
    1.1426   -5.5958    0.0320 H   0  0  0  0  0  0  0  0  0  0  0  0
    1.1110   -6.2445    3.8734 H   0  0  0  0  0  0  0  0  0  0  0  0
    4.6655   -9.1231    2.5916 H   0  0  0  0  0  0  0  0  0  0  0  0
    7.9955   -5.6405   -1.4477 H   0  0  0  0  0  0  0  0  0  0  0  0
    8.4569  -10.6774   -1.1666 H   0  0  0  0  0  0  0  0  0  0  0  0
   10.9276   -9.3619   -3.1563 H   0  0  0  0  0  0  0  0  0  0  0  0
    9.0426  -10.4768   -4.6723 H   0  0  0  0  0  0  0  0  0  0  0  0
   10.9598   -9.6053   -6.2440 H   0  0  0  0  0  0  0  0  0  0  0  0
   10.7371   -6.9650   -6.4337 H   0  0  0  0  0  0  0  0  0  0  0  0
    8.6828   -6.2112   -4.9796 H   0  0  0  0  0  0  0  0  0  0  0  0
    7.4272   -8.4115   -4.0799 H   0  0  0  0  0  0  0  0  0  0  0  0
    7.6981   -8.5143   -5.8333 H   0  0  0  0  0  0  0  0  0  0  0  0
   10.7111   -6.7708   -3.3438 H   0  0  0  0  0  0  0  0  0  0  0  0
  1  2  2  0  0  0  0
  2  3  1  0  0  0  0
  3  4  2  0  0  0  0
  3  5  1  0  0  0  0
  5  6  2  0  0  0  0
  6  7  1  0  0  0  0
  7  8  2  0  0  0  0
  8  9  1  0  0  0  0
  9 10  2  0  0  0  0
 10 11  1  0  0  0  0
 11 12  2  0  0  0  0
 12 13  1  0  0  0  0
 13 14  3  0  0  0  0
 12 15  1  0  0  0  0
 15 16  3  0  0  0  0
  8 17  1  0  0  0  0
 17 18  1  0  0  0  0
 18 19  1  0  0  0  0
 19 20  2  0  0  0  0
 20 21  1  0  0  0  0
 21 22  1  0  0  0  0
 21 23  1  0  0  0  0
  1 24  1  0  0  0  0
 24 25  2  0  0  0  0
 25 26  1  0  0  0  0
 26 27  1  0  0  0  0
 27 28  2  0  0  0  0
 28 29  1  0  0  0  0
 29 30  2  0  0  0  0
 30 31  1  0  0  0  0
 31 32  1  0  0  0  0
 30 33  1  0  0  0  0
 33 34  2  0  0  0  0
 26 35  1  0  0  0  0
 35 36  2  0  0  0  0
 36 37  1  0  0  0  0
 37 38  2  0  0  0  0
 38 39  1  0  0  0  0
 39 40  1  0  0  0  0
 38 41  1  0  0  0  0
 41 42  2  0  0  0  0
 25 43  1  0  0  0  0
 43 44  1  0  0  0  0
 44 45  1  0  0  0  0
 45 46  2  0  0  0  0
 46 47  1  0  0  0  0
 47 48  1  0  0  0  0
 48 49  2  0  0  0  0
 49 50  1  0  0  0  0
 50 51  2  0  0  0  0
 51 52  1  0  0  0  0
 52 53  1  0  0  0  0
 51 54  1  0  0  0  0
 54 55  2  0  0  0  0
 47 56  1  0  0  0  0
 56 57  2  0  0  0  0
 57 58  1  0  0  0  0
 58 59  2  0  0  0  0
 59 60  1  0  0  0  0
 60 61  1  0  0  0  0
 59 62  1  0  0  0  0
 62 63  2  0  0  0  0
 46 64  1  0  0  0  0
 64 65  1  0  0  0  0
 45 66  1  0  0  0  0
 66 67  2  0  0  0  0
 67 68  1  0  0  0  0
 68 69  1  0  0  0  0
 69 70  2  0  0  0  0
 70 71  1  0  0  0  0
 71 72  2  0  0  0  0
 72 73  1  0  0  0  0
 73 74  1  0  0  0  0
 72 75  1  0  0  0  0
 75 76  2  0  0  0  0
 68 77  1  0  0  0  0
 77 78  2  0  0  0  0
 78 79  1  0  0  0  0
 79 80  2  0  0  0  0
 80 81  1  0  0  0  0
 81 82  1  0  0  0  0
 80 83  1  0  0  0  0
 83 84  2  0  0  0  0
 67 85  1  0  0  0  0
 85 86  1  0  0  0  0
 86 87  1  0  0  0  0
 87 88  2  0  0  0  0
 88 89  1  0  0  0  0
 89 90  1  0  0  0  0
 90 91  2  0  0  0  0
 91 92  1  0  0  0  0
 92 93  2  0  0  0  0
 93 94  1  0  0  0  0
 94 95  1  0  0  0  0
 93 96  1  0  0  0  0
 96 97  2  0  0  0  0
 89 98  1  0  0  0  0
 98 99  2  0  0  0  0
 99100  1  0  0  0  0
100101  2  0  0  0  0
101102  1  0  0  0  0
102103  1  0  0  0  0
101104  1  0  0  0  0
104105  2  0  0  0  0
 88106  1  0  0  0  0
106107  1  0  0  0  0
 87108  1  0  0  0  0
108109  2  0  0  0  0
109110  1  0  0  0  0
110111  1  0  0  0  0
110112  2  0  0  0  0
112113  1  0  0  0  0
112114  1  0  0  0  0
114115  2  0  0  0  0
115116  1  0  0  0  0
116117  2  0  0  0  0
116118  1  0  0  0  0
118119  2  0  0  0  0
119120  1  0  0  0  0
120121  2  0  0  0  0
121122  1  0  0  0  0
122123  2  0  0  0  0
123124  1  0  0  0  0
124125  2  0  0  0  0
125126  1  0  0  0  0
126127  3  0  0  0  0
125128  1  0  0  0  0
128129  3  0  0  0  0
121130  1  0  0  0  0
130131  1  0  0  0  0
131132  1  0  0  0  0
132133  2  0  0  0  0
133134  1  0  0  0  0
134135  1  0  0  0  0
134136  1  0  0  0  0
 11  2  1  0  0  0  0
 23 17  1  0  0  0  0
 65 24  1  0  0  0  0
107 66  1  0  0  0  0
113108  1  0  0  0  0
124115  1  0  0  0  0
136130  1  0  0  0  0
 10  5  1  0  0  0  0
 22 18  1  0  0  0  0
 34 27  1  0  0  0  0
 42 35  1  0  0  0  0
 64 43  2  0  0  0  0
 76 69  1  0  0  0  0
 84 77  1  0  0  0  0
106 85  2  0  0  0  0
123118  1  0  0  0  0
135131  1  0  0  0  0
 23  7  1  0  0  0  0
 55 48  1  0  0  0  0
 63 56  1  0  0  0  0
 97 90  1  0  0  0  0
105 98  1  0  0  0  0
136120  1  0  0  0  0
  1137  1  0  0  0  0
  6138  1  0  0  0  0
  9139  1  0  0  0  0
 17140  1  0  0  0  0
 18141  1  0  0  0  0
 19142  1  0  0  0  0
 20143  1  0  0  0  0
 21144  1  0  0  0  0
 22145  1  0  0  0  0
 22146  1  0  0  0  0
 23147  1  0  0  0  0
 28148  1  0  0  0  0
 29149  1  0  0  0  0
 32150  1  0  0  0  0
 32151  1  0  0  0  0
 32152  1  0  0  0  0
 33153  1  0  0  0  0
 34154  1  0  0  0  0
 36155  1  0  0  0  0
 37156  1  0  0  0  0
 40157  1  0  0  0  0
 40158  1  0  0  0  0
 40159  1  0  0  0  0
 41160  1  0  0  0  0
 42161  1  0  0  0  0
 49162  1  0  0  0  0
 50163  1  0  0  0  0
 53164  1  0  0  0  0
 53165  1  0  0  0  0
 53166  1  0  0  0  0
 54167  1  0  0  0  0
 55168  1  0  0  0  0
 57169  1  0  0  0  0
 58170  1  0  0  0  0
 61171  1  0  0  0  0
 61172  1  0  0  0  0
 61173  1  0  0  0  0
 62174  1  0  0  0  0
 63175  1  0  0  0  0
 70176  1  0  0  0  0
 71177  1  0  0  0  0
 74178  1  0  0  0  0
 74179  1  0  0  0  0
 74180  1  0  0  0  0
 75181  1  0  0  0  0
 76182  1  0  0  0  0
 78183  1  0  0  0  0
 79184  1  0  0  0  0
 82185  1  0  0  0  0
 82186  1  0  0  0  0
 82187  1  0  0  0  0
 83188  1  0  0  0  0
 84189  1  0  0  0  0
 91190  1  0  0  0  0
 92191  1  0  0  0  0
 95192  1  0  0  0  0
 95193  1  0  0  0  0
 95194  1  0  0  0  0
 96195  1  0  0  0  0
 97196  1  0  0  0  0
 99197  1  0  0  0  0
100198  1  0  0  0  0
103199  1  0  0  0  0
103200  1  0  0  0  0
103201  1  0  0  0  0
104202  1  0  0  0  0
105203  1  0  0  0  0
109204  1  0  0  0  0
114205  1  0  0  0  0
119206  1  0  0  0  0
122207  1  0  0  0  0
130208  1  0  0  0  0
131209  1  0  0  0  0
132210  1  0  0  0  0
133211  1  0  0  0  0
134212  1  0  0  0  0
135213  1  0  0  0  0
135214  1  0  0  0  0
136215  1  0  0  0  0
M  END
