
  xtb     02062213353D
 energy: -379.208426250610 gnorm: 0.000371047139 xtb: 6.4.1 (unknown)
231251  0     0  0            999 V2000
   -6.2685   -0.9401   -3.7058 C   0  0  0  0  0  0  0  0  0  0  0  0
   -7.4517   -1.4917   -3.2547 C   0  0  0  0  0  0  0  0  0  0  0  0
   -7.5618   -2.3282   -2.0570 C   0  0  0  0  0  0  0  0  0  0  0  0
   -6.6720   -2.6366   -1.2782 O   0  0  0  0  0  0  0  0  0  0  0  0
   -8.9435   -2.8500   -2.0501 C   0  0  0  0  0  0  0  0  0  0  0  0
   -9.5197   -3.6934   -1.1057 C   0  0  0  0  0  0  0  0  0  0  0  0
  -10.8332   -4.0093   -1.3624 C   0  0  0  0  0  0  0  0  0  0  0  0
  -11.5196   -3.5312   -2.4845 C   0  0  0  0  0  0  0  0  0  0  0  0
  -10.9598   -2.6996   -3.4276 C   0  0  0  0  0  0  0  0  0  0  0  0
   -9.6288   -2.3602   -3.1783 C   0  0  0  0  0  0  0  0  0  0  0  0
   -8.7211   -1.4916   -3.9275 C   0  0  0  0  0  0  0  0  0  0  0  0
   -9.0679   -0.6943   -4.9909 C   0  0  0  0  0  0  0  0  0  0  0  0
  -10.3463   -0.6640   -5.5785 C   0  0  0  0  0  0  0  0  0  0  0  0
  -11.3684   -0.6042   -6.0997 N   0  0  0  0  0  0  0  0  0  0  0  0
   -8.1984    0.2390   -5.5887 C   0  0  0  0  0  0  0  0  0  0  0  0
   -7.5516    1.0387   -6.1007 N   0  0  0  0  0  0  0  0  0  0  0  0
  -12.7863   -4.2674   -2.1241 C   0  0  0  0  0  0  0  0  0  0  0  0
  -13.1104   -5.5665   -2.9024 C   0  0  0  0  0  0  0  0  0  0  0  0
  -11.7908   -6.1285   -3.3698 C   0  0  0  0  0  0  0  0  0  0  0  0
  -11.1423   -6.5792   -2.3044 C   0  0  0  0  0  0  0  0  0  0  0  0
  -12.0120   -6.3299   -1.0969 C   0  0  0  0  0  0  0  0  0  0  0  0
  -13.4037   -6.5092   -1.7243 C   0  0  0  0  0  0  0  0  0  0  0  0
  -12.0217   -4.7981   -0.8701 C   0  0  0  0  0  0  0  0  0  0  0  0
   -5.1559   -0.6400   -2.9212 C   0  0  0  0  0  0  0  0  0  0  0  0
   -5.0296   -0.3784   -1.5382 C   0  0  0  0  0  0  0  0  0  0  0  0
   -6.0392   -0.1015   -0.6723 N   0  0  0  0  0  0  0  0  0  0  0  0
   -7.3156    0.3138   -1.0726 C   0  0  0  0  0  0  0  0  0  0  0  0
   -8.4426   -0.1808   -0.4211 C   0  0  0  0  0  0  0  0  0  0  0  0
   -9.7117    0.1570   -0.8514 C   0  0  0  0  0  0  0  0  0  0  0  0
   -9.8749    1.0081   -1.9358 C   0  0  0  0  0  0  0  0  0  0  0  0
  -11.4337    1.4381   -2.6289 S   0  0  0  0  0  0  0  0  0  0  0  0
  -12.5758    0.2368   -1.8885 C   0  0  0  0  0  0  0  0  0  0  0  0
   -8.7472    1.5746   -2.5346 C   0  0  0  0  0  0  0  0  0  0  0  0
   -7.4851    1.2314   -2.1123 C   0  0  0  0  0  0  0  0  0  0  0  0
   -5.8018   -0.1719    0.7305 C   0  0  0  0  0  0  0  0  0  0  0  0
   -5.8077   -1.3998    1.3820 C   0  0  0  0  0  0  0  0  0  0  0  0
   -5.6131   -1.4516    2.7444 C   0  0  0  0  0  0  0  0  0  0  0  0
   -5.3813   -0.2833    3.4715 C   0  0  0  0  0  0  0  0  0  0  0  0
   -5.0897   -0.4903    5.1959 S   0  0  0  0  0  0  0  0  0  0  0  0
   -4.8173    1.1948    5.8031 C   0  0  0  0  0  0  0  0  0  0  0  0
   -5.3902    0.9427    2.8189 C   0  0  0  0  0  0  0  0  0  0  0  0
   -5.6144    0.9964    1.4555 C   0  0  0  0  0  0  0  0  0  0  0  0
   -3.6645   -0.3041   -1.1762 C   0  0  0  0  0  0  0  0  0  0  0  0
   -2.8181   -0.1609    0.3258 S   0  0  0  0  0  0  0  0  0  0  0  0
   -1.2653   -0.1924   -0.5047 C   0  0  0  0  0  0  0  0  0  0  0  0
   -1.4119   -0.2815   -1.8860 C   0  0  0  0  0  0  0  0  0  0  0  0
   -0.4076   -0.2719   -2.8440 N   0  0  0  0  0  0  0  0  0  0  0  0
    0.7831   -0.9834   -2.6883 C   0  0  0  0  0  0  0  0  0  0  0  0
    0.7974   -2.1989   -2.0061 C   0  0  0  0  0  0  0  0  0  0  0  0
    1.9856   -2.8595   -1.7885 C   0  0  0  0  0  0  0  0  0  0  0  0
    3.1867   -2.3313   -2.2580 C   0  0  0  0  0  0  0  0  0  0  0  0
    4.6477   -3.2567   -1.8938 S   0  0  0  0  0  0  0  0  0  0  0  0
    5.9881   -2.2731   -2.6154 C   0  0  0  0  0  0  0  0  0  0  0  0
    3.1728   -1.1407   -2.9717 C   0  0  0  0  0  0  0  0  0  0  0  0
    1.9826   -0.4748   -3.1850 C   0  0  0  0  0  0  0  0  0  0  0  0
   -0.6461    0.4577   -4.0212 C   0  0  0  0  0  0  0  0  0  0  0  0
   -0.2790   -0.0550   -5.2612 C   0  0  0  0  0  0  0  0  0  0  0  0
   -0.5296    0.6553   -6.4187 C   0  0  0  0  0  0  0  0  0  0  0  0
   -1.1649    1.8887   -6.3553 C   0  0  0  0  0  0  0  0  0  0  0  0
   -1.5353    2.8850   -7.7631 S   0  0  0  0  0  0  0  0  0  0  0  0
   -1.2389    1.7759   -9.1698 C   0  0  0  0  0  0  0  0  0  0  0  0
   -1.5290    2.4077   -5.1143 C   0  0  0  0  0  0  0  0  0  0  0  0
   -1.2690    1.7045   -3.9603 C   0  0  0  0  0  0  0  0  0  0  0  0
   -2.7779   -0.3694   -2.2410 C   0  0  0  0  0  0  0  0  0  0  0  0
   -3.5894   -0.5628   -3.7499 S   0  0  0  0  0  0  0  0  0  0  0  0
   -0.0749   -0.0787    0.2697 C   0  0  0  0  0  0  0  0  0  0  0  0
    0.1324   -0.5097    1.5741 C   0  0  0  0  0  0  0  0  0  0  0  0
   -0.7867   -1.2414    2.3281 N   0  0  0  0  0  0  0  0  0  0  0  0
   -1.3341   -2.4002    1.7702 C   0  0  0  0  0  0  0  0  0  0  0  0
   -0.5663   -3.1861    0.9132 C   0  0  0  0  0  0  0  0  0  0  0  0
   -1.1399   -4.2474    0.2413 C   0  0  0  0  0  0  0  0  0  0  0  0
   -2.4834   -4.5351    0.4225 C   0  0  0  0  0  0  0  0  0  0  0  0
   -3.2582   -5.8152   -0.5495 S   0  0  0  0  0  0  0  0  0  0  0  0
   -4.1978   -4.7410   -1.6812 C   0  0  0  0  0  0  0  0  0  0  0  0
   -3.2315   -3.8106    1.3382 C   0  0  0  0  0  0  0  0  0  0  0  0
   -2.6625   -2.7502    2.0105 C   0  0  0  0  0  0  0  0  0  0  0  0
   -1.0705   -0.8201    3.6263 C   0  0  0  0  0  0  0  0  0  0  0  0
   -0.9913    0.5328    3.9490 C   0  0  0  0  0  0  0  0  0  0  0  0
   -1.2359    0.9699    5.2361 C   0  0  0  0  0  0  0  0  0  0  0  0
   -1.5735    0.0585    6.2258 C   0  0  0  0  0  0  0  0  0  0  0  0
   -1.9297    0.5078    7.9001 S   0  0  0  0  0  0  0  0  0  0  0  0
   -1.3024    2.2084    8.0282 C   0  0  0  0  0  0  0  0  0  0  0  0
   -1.6685   -1.2935    5.9065 C   0  0  0  0  0  0  0  0  0  0  0  0
   -1.4132   -1.7310    4.6270 C   0  0  0  0  0  0  0  0  0  0  0  0
    1.4321   -0.1894    2.0254 C   0  0  0  0  0  0  0  0  0  0  0  0
    2.3476   -0.5632    3.4486 S   0  0  0  0  0  0  0  0  0  0  0  0
    3.7705    0.1546    2.7377 C   0  0  0  0  0  0  0  0  0  0  0  0
    3.5578    0.6046    1.4473 C   0  0  0  0  0  0  0  0  0  0  0  0
    4.5803    0.9832    0.5741 N   0  0  0  0  0  0  0  0  0  0  0  0
    5.7165    0.1710    0.5547 C   0  0  0  0  0  0  0  0  0  0  0  0
    7.0019    0.6982    0.4321 C   0  0  0  0  0  0  0  0  0  0  0  0
    8.1079   -0.1253    0.4733 C   0  0  0  0  0  0  0  0  0  0  0  0
    7.9562   -1.4951    0.6284 C   0  0  0  0  0  0  0  0  0  0  0  0
    9.3462   -2.5884    0.7400 S   0  0  0  0  0  0  0  0  0  0  0  0
   10.4612   -1.9185   -0.5326 C   0  0  0  0  0  0  0  0  0  0  0  0
    6.6798   -2.0334    0.7396 C   0  0  0  0  0  0  0  0  0  0  0  0
    5.5756   -1.2116    0.7019 C   0  0  0  0  0  0  0  0  0  0  0  0
    4.5085    2.1980   -0.1057 C   0  0  0  0  0  0  0  0  0  0  0  0
    5.1984    2.3972   -1.2997 C   0  0  0  0  0  0  0  0  0  0  0  0
    5.1762    3.6230   -1.9388 C   0  0  0  0  0  0  0  0  0  0  0  0
    4.4395    4.6727   -1.4075 C   0  0  0  0  0  0  0  0  0  0  0  0
    4.3643    6.2940   -2.1013 S   0  0  0  0  0  0  0  0  0  0  0  0
    5.4373    6.2132   -3.5618 C   0  0  0  0  0  0  0  0  0  0  0  0
    3.7009    4.4603   -0.2439 C   0  0  0  0  0  0  0  0  0  0  0  0
    3.7340    3.2446    0.3994 C   0  0  0  0  0  0  0  0  0  0  0  0
    2.2102    0.4440    1.0675 C   0  0  0  0  0  0  0  0  0  0  0  0
    1.3374    0.7409   -0.3874 S   0  0  0  0  0  0  0  0  0  0  0  0
    5.0446    0.2158    3.4159 C   0  0  0  0  0  0  0  0  0  0  0  0
    5.8474    1.3594    3.2650 C   0  0  0  0  0  0  0  0  0  0  0  0
    5.5490    2.5312    2.6933 N   0  0  0  0  0  0  0  0  0  0  0  0
    6.6512    3.2161    2.7701 N   0  0  0  0  0  0  0  0  0  0  0  0
    6.7285    4.5549    2.2531 C   0  0  0  0  0  0  0  0  0  0  0  0
    5.6503    5.4379    2.8640 C   0  0  0  0  0  0  0  0  0  0  0  0
    7.6686    2.6261    3.3364 N   0  0  0  0  0  0  0  0  0  0  0  0
    7.2069    1.4133    3.6937 C   0  0  0  0  0  0  0  0  0  0  0  0
    7.7729    0.3352    4.3977 C   0  0  0  0  0  0  0  0  0  0  0  0
    6.9268   -0.7352    4.6518 C   0  0  0  0  0  0  0  0  0  0  0  0
    5.6002   -0.8276    4.1394 C   0  0  0  0  0  0  0  0  0  0  0  0
    4.8249   -1.9374    4.3140 O   0  0  0  0  0  0  0  0  0  0  0  0
    5.4052   -3.2070    4.0534 C   0  0  0  0  0  0  0  0  0  0  0  0
    7.4075   -1.7850    5.4161 O   0  0  0  0  0  0  0  0  0  0  0  0
    6.8232   -1.8587    6.7053 C   0  0  0  0  0  0  0  0  0  0  0  0
    9.2164    0.2255    4.8472 C   0  0  0  0  0  0  0  0  0  0  0  0
   10.0061   -0.3071    3.6930 C   0  0  0  0  0  0  0  0  0  0  0  0
   10.6621    0.4994    2.8521 C   0  0  0  0  0  0  0  0  0  0  0  0
   10.5818    1.9266    2.9974 C   0  0  0  0  0  0  0  0  0  0  0  0
   10.6320    2.7538    1.9180 C   0  0  0  0  0  0  0  0  0  0  0  0
   10.2896    4.4782    2.0488 S   0  0  0  0  0  0  0  0  0  0  0  0
    9.9963    4.5831    0.3288 C   0  0  0  0  0  0  0  0  0  0  0  0
    9.4239    5.7091   -0.2121 C   0  0  0  0  0  0  0  0  0  0  0  0
    9.0860    6.7840    0.6359 C   0  0  0  0  0  0  0  0  0  0  0  0
    8.7908    7.6503    1.3276 N   0  0  0  0  0  0  0  0  0  0  0  0
    9.0381    5.8874   -1.5488 C   0  0  0  0  0  0  0  0  0  0  0  0
    8.6578    6.0728   -2.6178 N   0  0  0  0  0  0  0  0  0  0  0  0
   10.3733    3.4429   -0.3029 N   0  0  0  0  0  0  0  0  0  0  0  0
   10.3464    3.2339   -1.7385 C   0  0  0  0  0  0  0  0  0  0  0  0
    9.0055    2.6784   -2.2044 C   0  0  0  0  0  0  0  0  0  0  0  0
   10.7571    2.3872    0.5198 C   0  0  0  0  0  0  0  0  0  0  0  0
   11.1160    1.3206    0.0614 O   0  0  0  0  0  0  0  0  0  0  0  0
   10.3238    2.5061    4.3502 C   0  0  0  0  0  0  0  0  0  0  0  0
    9.8905    1.4837    5.4040 C   0  0  0  0  0  0  0  0  0  0  0  0
   -6.1538   -0.7635   -4.7685 H   0  0  0  0  0  0  0  0  0  0  0  0
   -8.9559   -4.0468   -0.2562 H   0  0  0  0  0  0  0  0  0  0  0  0
  -11.4964   -2.3459   -4.2927 H   0  0  0  0  0  0  0  0  0  0  0  0
  -13.6697   -3.6521   -1.9607 H   0  0  0  0  0  0  0  0  0  0  0  0
  -13.8811   -5.4571   -3.6607 H   0  0  0  0  0  0  0  0  0  0  0  0
  -11.4503   -6.0889   -4.3879 H   0  0  0  0  0  0  0  0  0  0  0  0
  -10.1515   -6.9915   -2.2542 H   0  0  0  0  0  0  0  0  0  0  0  0
  -11.7829   -6.9164   -0.2109 H   0  0  0  0  0  0  0  0  0  0  0  0
  -13.5939   -7.5334   -2.0415 H   0  0  0  0  0  0  0  0  0  0  0  0
  -14.2158   -6.1653   -1.0849 H   0  0  0  0  0  0  0  0  0  0  0  0
  -12.4050   -4.5266    0.1121 H   0  0  0  0  0  0  0  0  0  0  0  0
   -8.3234   -0.8535    0.4145 H   0  0  0  0  0  0  0  0  0  0  0  0
  -10.5633   -0.2635   -0.3415 H   0  0  0  0  0  0  0  0  0  0  0  0
  -12.7338    0.4623   -0.8377 H   0  0  0  0  0  0  0  0  0  0  0  0
  -13.5074    0.3507   -2.4340 H   0  0  0  0  0  0  0  0  0  0  0  0
  -12.1856   -0.7679   -2.0260 H   0  0  0  0  0  0  0  0  0  0  0  0
   -8.8775    2.2718   -3.3480 H   0  0  0  0  0  0  0  0  0  0  0  0
   -6.6234    1.6633   -2.5977 H   0  0  0  0  0  0  0  0  0  0  0  0
   -5.9786   -2.2926    0.8019 H   0  0  0  0  0  0  0  0  0  0  0  0
   -5.6387   -2.3948    3.2692 H   0  0  0  0  0  0  0  0  0  0  0  0
   -5.7164    1.7898    5.6713 H   0  0  0  0  0  0  0  0  0  0  0  0
   -3.9667    1.6329    5.2890 H   0  0  0  0  0  0  0  0  0  0  0  0
   -4.5938    1.0860    6.8601 H   0  0  0  0  0  0  0  0  0  0  0  0
   -5.2285    1.8617    3.3577 H   0  0  0  0  0  0  0  0  0  0  0  0
   -5.6320    1.9497    0.9480 H   0  0  0  0  0  0  0  0  0  0  0  0
   -0.1316   -2.6129   -1.6457 H   0  0  0  0  0  0  0  0  0  0  0  0
    1.9999   -3.7990   -1.2566 H   0  0  0  0  0  0  0  0  0  0  0  0
    6.0167   -1.2908   -2.1523 H   0  0  0  0  0  0  0  0  0  0  0  0
    6.9003   -2.8135   -2.3817 H   0  0  0  0  0  0  0  0  0  0  0  0
    5.8635   -2.2052   -3.6924 H   0  0  0  0  0  0  0  0  0  0  0  0
    4.0833   -0.7092   -3.3548 H   0  0  0  0  0  0  0  0  0  0  0  0
    1.9826    0.4644   -3.7171 H   0  0  0  0  0  0  0  0  0  0  0  0
    0.2026   -1.0201   -5.3169 H   0  0  0  0  0  0  0  0  0  0  0  0
   -0.2316    0.2307   -7.3637 H   0  0  0  0  0  0  0  0  0  0  0  0
   -0.1783    1.5610   -9.2652 H   0  0  0  0  0  0  0  0  0  0  0  0
   -1.5831    2.3173  -10.0454 H   0  0  0  0  0  0  0  0  0  0  0  0
   -1.8185    0.8662   -9.0457 H   0  0  0  0  0  0  0  0  0  0  0  0
   -2.0142    3.3704   -5.0704 H   0  0  0  0  0  0  0  0  0  0  0  0
   -1.5455    2.1162   -3.0008 H   0  0  0  0  0  0  0  0  0  0  0  0
    0.4764   -2.9472    0.7653 H   0  0  0  0  0  0  0  0  0  0  0  0
   -0.5530   -4.8519   -0.4339 H   0  0  0  0  0  0  0  0  0  0  0  0
   -3.5057   -4.1011   -2.2221 H   0  0  0  0  0  0  0  0  0  0  0  0
   -4.7114   -5.4004   -2.3733 H   0  0  0  0  0  0  0  0  0  0  0  0
   -4.9189   -4.1419   -1.1335 H   0  0  0  0  0  0  0  0  0  0  0  0
   -4.2660   -4.0667    1.5040 H   0  0  0  0  0  0  0  0  0  0  0  0
   -3.2484   -2.1610    2.6974 H   0  0  0  0  0  0  0  0  0  0  0  0
   -0.7430    1.2512    3.1816 H   0  0  0  0  0  0  0  0  0  0  0  0
   -1.1649    2.0253    5.4492 H   0  0  0  0  0  0  0  0  0  0  0  0
   -1.9350    2.8909    7.4673 H   0  0  0  0  0  0  0  0  0  0  0  0
   -1.3433    2.4577    9.0839 H   0  0  0  0  0  0  0  0  0  0  0  0
   -0.2754    2.2448    7.6777 H   0  0  0  0  0  0  0  0  0  0  0  0
   -1.9361   -1.9973    6.6791 H   0  0  0  0  0  0  0  0  0  0  0  0
   -1.4643   -2.7843    4.3987 H   0  0  0  0  0  0  0  0  0  0  0  0
    7.1343    1.7659    0.3288 H   0  0  0  0  0  0  0  0  0  0  0  0
    9.0934    0.3008    0.4004 H   0  0  0  0  0  0  0  0  0  0  0  0
    9.9339   -1.8869   -1.4816 H   0  0  0  0  0  0  0  0  0  0  0  0
   11.2927   -2.6133   -0.5916 H   0  0  0  0  0  0  0  0  0  0  0  0
   10.8218   -0.9327   -0.2598 H   0  0  0  0  0  0  0  0  0  0  0  0
    6.5590   -3.1017    0.8344 H   0  0  0  0  0  0  0  0  0  0  0  0
    4.5886   -1.6422    0.7745 H   0  0  0  0  0  0  0  0  0  0  0  0
    5.7648    1.5865   -1.7349 H   0  0  0  0  0  0  0  0  0  0  0  0
    5.7349    3.7448   -2.8534 H   0  0  0  0  0  0  0  0  0  0  0  0
    5.0661    5.4619   -4.2526 H   0  0  0  0  0  0  0  0  0  0  0  0
    6.4652    6.0181   -3.2661 H   0  0  0  0  0  0  0  0  0  0  0  0
    5.3717    7.1957   -4.0188 H   0  0  0  0  0  0  0  0  0  0  0  0
    3.1127    5.2731    0.1539 H   0  0  0  0  0  0  0  0  0  0  0  0
    3.1835    3.0993    1.3153 H   0  0  0  0  0  0  0  0  0  0  0  0
    6.5920    4.5145    1.1669 H   0  0  0  0  0  0  0  0  0  0  0  0
    7.7224    4.9370    2.4882 H   0  0  0  0  0  0  0  0  0  0  0  0
    5.7229    6.4353    2.4409 H   0  0  0  0  0  0  0  0  0  0  0  0
    5.7769    5.5037    3.9417 H   0  0  0  0  0  0  0  0  0  0  0  0
    4.6697    5.0263    2.6440 H   0  0  0  0  0  0  0  0  0  0  0  0
    4.6167   -3.8086    3.5995 H   0  0  0  0  0  0  0  0  0  0  0  0
    5.7392   -3.6899    4.9743 H   0  0  0  0  0  0  0  0  0  0  0  0
    6.2469   -3.1251    3.3647 H   0  0  0  0  0  0  0  0  0  0  0  0
    7.2214   -2.7612    7.1655 H   0  0  0  0  0  0  0  0  0  0  0  0
    7.1030   -0.9870    7.3080 H   0  0  0  0  0  0  0  0  0  0  0  0
    5.7324   -1.9170    6.6592 H   0  0  0  0  0  0  0  0  0  0  0  0
    9.2225   -0.5353    5.6351 H   0  0  0  0  0  0  0  0  0  0  0  0
    9.9798   -1.3734    3.5263 H   0  0  0  0  0  0  0  0  0  0  0  0
   11.1874    0.1028    1.9982 H   0  0  0  0  0  0  0  0  0  0  0  0
   11.1370    2.5091   -1.9536 H   0  0  0  0  0  0  0  0  0  0  0  0
   10.5752    4.1759   -2.2390 H   0  0  0  0  0  0  0  0  0  0  0  0
    8.1928    3.3561   -1.9528 H   0  0  0  0  0  0  0  0  0  0  0  0
    8.8172    1.7124   -1.7417 H   0  0  0  0  0  0  0  0  0  0  0  0
    9.0260    2.5522   -3.2830 H   0  0  0  0  0  0  0  0  0  0  0  0
    9.5586    3.2778    4.2432 H   0  0  0  0  0  0  0  0  0  0  0  0
   11.2380    3.0059    4.6854 H   0  0  0  0  0  0  0  0  0  0  0  0
    9.2264    1.9691    6.1199 H   0  0  0  0  0  0  0  0  0  0  0  0
   10.7737    1.1412    5.9484 H   0  0  0  0  0  0  0  0  0  0  0  0
  1  2  2  0  0  0  0
  2  3  1  0  0  0  0
  3  4  2  0  0  0  0
  3  5  1  0  0  0  0
  5  6  2  0  0  0  0
  6  7  1  0  0  0  0
  7  8  2  0  0  0  0
  8  9  1  0  0  0  0
  9 10  2  0  0  0  0
 10 11  1  0  0  0  0
 11 12  2  0  0  0  0
 12 13  1  0  0  0  0
 13 14  3  0  0  0  0
 12 15  1  0  0  0  0
 15 16  3  0  0  0  0
  8 17  1  0  0  0  0
 17 18  1  0  0  0  0
 18 19  1  0  0  0  0
 19 20  2  0  0  0  0
 20 21  1  0  0  0  0
 21 22  1  0  0  0  0
 21 23  1  0  0  0  0
  1 24  1  0  0  0  0
 24 25  2  0  0  0  0
 25 26  1  0  0  0  0
 26 27  1  0  0  0  0
 27 28  2  0  0  0  0
 28 29  1  0  0  0  0
 29 30  2  0  0  0  0
 30 31  1  0  0  0  0
 31 32  1  0  0  0  0
 30 33  1  0  0  0  0
 33 34  2  0  0  0  0
 26 35  1  0  0  0  0
 35 36  2  0  0  0  0
 36 37  1  0  0  0  0
 37 38  2  0  0  0  0
 38 39  1  0  0  0  0
 39 40  1  0  0  0  0
 38 41  1  0  0  0  0
 41 42  2  0  0  0  0
 25 43  1  0  0  0  0
 43 44  1  0  0  0  0
 44 45  1  0  0  0  0
 45 46  2  0  0  0  0
 46 47  1  0  0  0  0
 47 48  1  0  0  0  0
 48 49  2  0  0  0  0
 49 50  1  0  0  0  0
 50 51  2  0  0  0  0
 51 52  1  0  0  0  0
 52 53  1  0  0  0  0
 51 54  1  0  0  0  0
 54 55  2  0  0  0  0
 47 56  1  0  0  0  0
 56 57  2  0  0  0  0
 57 58  1  0  0  0  0
 58 59  2  0  0  0  0
 59 60  1  0  0  0  0
 60 61  1  0  0  0  0
 59 62  1  0  0  0  0
 62 63  2  0  0  0  0
 46 64  1  0  0  0  0
 64 65  1  0  0  0  0
 45 66  1  0  0  0  0
 66 67  2  0  0  0  0
 67 68  1  0  0  0  0
 68 69  1  0  0  0  0
 69 70  2  0  0  0  0
 70 71  1  0  0  0  0
 71 72  2  0  0  0  0
 72 73  1  0  0  0  0
 73 74  1  0  0  0  0
 72 75  1  0  0  0  0
 75 76  2  0  0  0  0
 68 77  1  0  0  0  0
 77 78  2  0  0  0  0
 78 79  1  0  0  0  0
 79 80  2  0  0  0  0
 80 81  1  0  0  0  0
 81 82  1  0  0  0  0
 80 83  1  0  0  0  0
 83 84  2  0  0  0  0
 67 85  1  0  0  0  0
 85 86  1  0  0  0  0
 86 87  1  0  0  0  0
 87 88  2  0  0  0  0
 88 89  1  0  0  0  0
 89 90  1  0  0  0  0
 90 91  2  0  0  0  0
 91 92  1  0  0  0  0
 92 93  2  0  0  0  0
 93 94  1  0  0  0  0
 94 95  1  0  0  0  0
 93 96  1  0  0  0  0
 96 97  2  0  0  0  0
 89 98  1  0  0  0  0
 98 99  2  0  0  0  0
 99100  1  0  0  0  0
100101  2  0  0  0  0
101102  1  0  0  0  0
102103  1  0  0  0  0
101104  1  0  0  0  0
104105  2  0  0  0  0
 88106  1  0  0  0  0
106107  1  0  0  0  0
 87108  1  0  0  0  0
108109  1  0  0  0  0
109110  2  0  0  0  0
110111  1  0  0  0  0
111112  1  0  0  0  0
112113  1  0  0  0  0
111114  1  0  0  0  0
114115  2  0  0  0  0
115116  1  0  0  0  0
116117  2  0  0  0  0
117118  1  0  0  0  0
118119  1  0  0  0  0
119120  1  0  0  0  0
117121  1  0  0  0  0
121122  1  0  0  0  0
116123  1  0  0  0  0
123124  1  0  0  0  0
124125  2  0  0  0  0
125126  1  0  0  0  0
126127  2  0  0  0  0
127128  1  0  0  0  0
128129  1  0  0  0  0
129130  2  0  0  0  0
130131  1  0  0  0  0
131132  3  0  0  0  0
130133  1  0  0  0  0
133134  3  0  0  0  0
129135  1  0  0  0  0
135136  1  0  0  0  0
136137  1  0  0  0  0
135138  1  0  0  0  0
138139  2  0  0  0  0
126140  1  0  0  0  0
140141  1  0  0  0  0
 11  2  1  0  0  0  0
 23 17  1  0  0  0  0
 65 24  1  0  0  0  0
107 66  1  0  0  0  0
118108  2  0  0  0  0
141123  1  0  0  0  0
 10  5  1  0  0  0  0
 22 18  1  0  0  0  0
 34 27  1  0  0  0  0
 42 35  1  0  0  0  0
 64 43  2  0  0  0  0
 76 69  1  0  0  0  0
 84 77  1  0  0  0  0
106 85  2  0  0  0  0
115109  1  0  0  0  0
138127  1  0  0  0  0
 23  7  1  0  0  0  0
 55 48  1  0  0  0  0
 63 56  1  0  0  0  0
 97 90  1  0  0  0  0
105 98  1  0  0  0  0
  1142  1  0  0  0  0
  6143  1  0  0  0  0
  9144  1  0  0  0  0
 17145  1  0  0  0  0
 18146  1  0  0  0  0
 19147  1  0  0  0  0
 20148  1  0  0  0  0
 21149  1  0  0  0  0
 22150  1  0  0  0  0
 22151  1  0  0  0  0
 23152  1  0  0  0  0
 28153  1  0  0  0  0
 29154  1  0  0  0  0
 32155  1  0  0  0  0
 32156  1  0  0  0  0
 32157  1  0  0  0  0
 33158  1  0  0  0  0
 34159  1  0  0  0  0
 36160  1  0  0  0  0
 37161  1  0  0  0  0
 40162  1  0  0  0  0
 40163  1  0  0  0  0
 40164  1  0  0  0  0
 41165  1  0  0  0  0
 42166  1  0  0  0  0
 49167  1  0  0  0  0
 50168  1  0  0  0  0
 53169  1  0  0  0  0
 53170  1  0  0  0  0
 53171  1  0  0  0  0
 54172  1  0  0  0  0
 55173  1  0  0  0  0
 57174  1  0  0  0  0
 58175  1  0  0  0  0
 61176  1  0  0  0  0
 61177  1  0  0  0  0
 61178  1  0  0  0  0
 62179  1  0  0  0  0
 63180  1  0  0  0  0
 70181  1  0  0  0  0
 71182  1  0  0  0  0
 74183  1  0  0  0  0
 74184  1  0  0  0  0
 74185  1  0  0  0  0
 75186  1  0  0  0  0
 76187  1  0  0  0  0
 78188  1  0  0  0  0
 79189  1  0  0  0  0
 82190  1  0  0  0  0
 82191  1  0  0  0  0
 82192  1  0  0  0  0
 83193  1  0  0  0  0
 84194  1  0  0  0  0
 91195  1  0  0  0  0
 92196  1  0  0  0  0
 95197  1  0  0  0  0
 95198  1  0  0  0  0
 95199  1  0  0  0  0
 96200  1  0  0  0  0
 97201  1  0  0  0  0
 99202  1  0  0  0  0
100203  1  0  0  0  0
103204  1  0  0  0  0
103205  1  0  0  0  0
103206  1  0  0  0  0
104207  1  0  0  0  0
105208  1  0  0  0  0
112209  1  0  0  0  0
112210  1  0  0  0  0
113211  1  0  0  0  0
113212  1  0  0  0  0
113213  1  0  0  0  0
120214  1  0  0  0  0
120215  1  0  0  0  0
120216  1  0  0  0  0
122217  1  0  0  0  0
122218  1  0  0  0  0
122219  1  0  0  0  0
123220  1  0  0  0  0
124221  1  0  0  0  0
125222  1  0  0  0  0
136223  1  0  0  0  0
136224  1  0  0  0  0
137225  1  0  0  0  0
137226  1  0  0  0  0
137227  1  0  0  0  0
140228  1  0  0  0  0
140229  1  0  0  0  0
141230  1  0  0  0  0
141231  1  0  0  0  0
M  END
