
  xtb     02092200533D
 energy: -422.495448010725 gnorm: 0.000565412603 xtb: 6.4.1 (unknown)
259281  0     0  0            999 V2000
   -2.2622    5.4498   -2.2115 C   0  0  0  0  0  0  0  0  0  0  0  0
   -2.9066    5.5060   -3.4308 C   0  0  0  0  0  0  0  0  0  0  0  0
   -2.2529    5.3052   -4.7313 C   0  0  0  0  0  0  0  0  0  0  0  0
   -1.0898    5.0053   -4.9402 O   0  0  0  0  0  0  0  0  0  0  0  0
   -3.2606    5.6874   -5.7456 C   0  0  0  0  0  0  0  0  0  0  0  0
   -3.1148    5.6676   -7.1288 C   0  0  0  0  0  0  0  0  0  0  0  0
   -4.2232    6.1036   -7.8169 C   0  0  0  0  0  0  0  0  0  0  0  0
   -5.3839    6.5527   -7.1766 C   0  0  0  0  0  0  0  0  0  0  0  0
   -5.5457    6.5696   -5.8111 C   0  0  0  0  0  0  0  0  0  0  0  0
   -4.4381    6.1104   -5.0976 C   0  0  0  0  0  0  0  0  0  0  0  0
   -4.2516    5.9494   -3.6583 C   0  0  0  0  0  0  0  0  0  0  0  0
   -5.2336    6.0277   -2.6985 C   0  0  0  0  0  0  0  0  0  0  0  0
   -6.5566    6.4404   -2.9414 C   0  0  0  0  0  0  0  0  0  0  0  0
   -7.6431    6.7891   -3.0744 N   0  0  0  0  0  0  0  0  0  0  0  0
   -5.0440    5.6219   -1.3654 C   0  0  0  0  0  0  0  0  0  0  0  0
   -4.9725    5.2524   -0.2788 N   0  0  0  0  0  0  0  0  0  0  0  0
   -6.0797    6.8644   -8.4790 C   0  0  0  0  0  0  0  0  0  0  0  0
   -7.1753    5.8838   -8.9608 C   0  0  0  0  0  0  0  0  0  0  0  0
   -6.8417    4.5492   -8.3440 C   0  0  0  0  0  0  0  0  0  0  0  0
   -5.7505    4.0911   -8.9436 C   0  0  0  0  0  0  0  0  0  0  0  0
   -5.3271    5.1077   -9.9740 C   0  0  0  0  0  0  0  0  0  0  0  0
   -6.7011    5.6458  -10.4030 C   0  0  0  0  0  0  0  0  0  0  0  0
   -4.7957    6.3367   -9.1934 C   0  0  0  0  0  0  0  0  0  0  0  0
   -1.1148    4.7199   -1.9136 C   0  0  0  0  0  0  0  0  0  0  0  0
   -0.5434    3.5786   -2.5192 C   0  0  0  0  0  0  0  0  0  0  0  0
   -1.1004    2.7808   -3.4789 N   0  0  0  0  0  0  0  0  0  0  0  0
   -0.2603    1.8998   -4.1971 C   0  0  0  0  0  0  0  0  0  0  0  0
   -0.5362    0.5356   -4.1993 C   0  0  0  0  0  0  0  0  0  0  0  0
    0.2833   -0.3444   -4.8777 C   0  0  0  0  0  0  0  0  0  0  0  0
    1.3769    0.1390   -5.5843 C   0  0  0  0  0  0  0  0  0  0  0  0
    2.5003   -0.9118   -6.4514 S   0  0  0  0  0  0  0  0  0  0  0  0
    1.5311   -2.4173   -6.7451 C   0  0  0  0  0  0  0  0  0  0  0  0
    1.6381    1.5079   -5.6057 C   0  0  0  0  0  0  0  0  0  0  0  0
    0.8335    2.3842   -4.9098 C   0  0  0  0  0  0  0  0  0  0  0  0
   -2.4714    2.6932   -3.7436 C   0  0  0  0  0  0  0  0  0  0  0  0
   -3.4289    2.7734   -2.7323 C   0  0  0  0  0  0  0  0  0  0  0  0
   -4.7699    2.6994   -3.0402 C   0  0  0  0  0  0  0  0  0  0  0  0
   -5.1860    2.5460   -4.3603 C   0  0  0  0  0  0  0  0  0  0  0  0
   -6.9217    2.5278   -4.6807 S   0  0  0  0  0  0  0  0  0  0  0  0
   -7.0369    1.4151   -6.1184 C   0  0  0  0  0  0  0  0  0  0  0  0
   -4.2363    2.4405   -5.3682 C   0  0  0  0  0  0  0  0  0  0  0  0
   -2.8935    2.5065   -5.0605 C   0  0  0  0  0  0  0  0  0  0  0  0
    0.6609    3.2350   -1.8707 C   0  0  0  0  0  0  0  0  0  0  0  0
    1.8131    1.9573   -2.1032 S   0  0  0  0  0  0  0  0  0  0  0  0
    2.5902    2.3594   -0.5734 C   0  0  0  0  0  0  0  0  0  0  0  0
    2.0672    3.5205   -0.0085 C   0  0  0  0  0  0  0  0  0  0  0  0
    2.5500    4.0670    1.1700 N   0  0  0  0  0  0  0  0  0  0  0  0
    1.6345    4.4492    2.1576 C   0  0  0  0  0  0  0  0  0  0  0  0
    0.4738    3.6997    2.3453 C   0  0  0  0  0  0  0  0  0  0  0  0
   -0.4234    4.0483    3.3280 C   0  0  0  0  0  0  0  0  0  0  0  0
   -0.1821    5.1464    4.1500 C   0  0  0  0  0  0  0  0  0  0  0  0
   -1.3676    5.4637    5.4196 S   0  0  0  0  0  0  0  0  0  0  0  0
   -0.4814    6.5759    6.5463 C   0  0  0  0  0  0  0  0  0  0  0  0
    0.9578    5.9121    3.9464 C   0  0  0  0  0  0  0  0  0  0  0  0
    1.8560    5.5662    2.9566 C   0  0  0  0  0  0  0  0  0  0  0  0
    3.9281    4.2428    1.3285 C   0  0  0  0  0  0  0  0  0  0  0  0
    4.5238    4.1143    2.5811 C   0  0  0  0  0  0  0  0  0  0  0  0
    5.8865    4.2761    2.7344 C   0  0  0  0  0  0  0  0  0  0  0  0
    6.6809    4.5801    1.6377 C   0  0  0  0  0  0  0  0  0  0  0  0
    8.4320    4.8043    1.7064 S   0  0  0  0  0  0  0  0  0  0  0  0
    8.8027    4.7995    3.4841 C   0  0  0  0  0  0  0  0  0  0  0  0
    6.0890    4.7119    0.3833 C   0  0  0  0  0  0  0  0  0  0  0  0
    4.7331    4.5380    0.2270 C   0  0  0  0  0  0  0  0  0  0  0  0
    0.9624    3.9937   -0.7446 C   0  0  0  0  0  0  0  0  0  0  0  0
   -0.2081    5.2275   -0.4772 S   0  0  0  0  0  0  0  0  0  0  0  0
    3.2984    1.3450    0.1030 C   0  0  0  0  0  0  0  0  0  0  0  0
    3.5798    0.0992   -0.4696 C   0  0  0  0  0  0  0  0  0  0  0  0
    3.8669   -0.0409   -1.8076 N   0  0  0  0  0  0  0  0  0  0  0  0
    3.5545   -1.2374   -2.4735 C   0  0  0  0  0  0  0  0  0  0  0  0
    4.5108   -1.8817   -3.2510 C   0  0  0  0  0  0  0  0  0  0  0  0
    4.2252   -3.0843   -3.8635 C   0  0  0  0  0  0  0  0  0  0  0  0
    2.9763   -3.6679   -3.6982 C   0  0  0  0  0  0  0  0  0  0  0  0
    2.5259   -5.2278   -4.3916 S   0  0  0  0  0  0  0  0  0  0  0  0
    3.9066   -5.6233   -5.5035 C   0  0  0  0  0  0  0  0  0  0  0  0
    2.0078   -3.0142   -2.9395 C   0  0  0  0  0  0  0  0  0  0  0  0
    2.2887   -1.8056   -2.3408 C   0  0  0  0  0  0  0  0  0  0  0  0
    4.6985    0.9040   -2.4358 C   0  0  0  0  0  0  0  0  0  0  0  0
    4.5483    1.1529   -3.7961 C   0  0  0  0  0  0  0  0  0  0  0  0
    5.3488    2.0755   -4.4398 C   0  0  0  0  0  0  0  0  0  0  0  0
    6.3229    2.7649   -3.7306 C   0  0  0  0  0  0  0  0  0  0  0  0
    7.4017    3.9722   -4.4320 S   0  0  0  0  0  0  0  0  0  0  0  0
    6.9087    4.0381   -6.1776 C   0  0  0  0  0  0  0  0  0  0  0  0
    6.4880    2.5048   -2.3713 C   0  0  0  0  0  0  0  0  0  0  0  0
    5.6851    1.5906   -1.7286 C   0  0  0  0  0  0  0  0  0  0  0  0
    3.4619   -0.9191    0.4941 C   0  0  0  0  0  0  0  0  0  0  0  0
    3.1798   -2.6198    0.3711 S   0  0  0  0  0  0  0  0  0  0  0  0
    2.5711   -2.6405    2.0388 C   0  0  0  0  0  0  0  0  0  0  0  0
    2.9027   -1.4629    2.7292 C   0  0  0  0  0  0  0  0  0  0  0  0
    2.8786   -1.2699    4.0844 N   0  0  0  0  0  0  0  0  0  0  0  0
    3.0377   -2.2866    5.0366 C   0  0  0  0  0  0  0  0  0  0  0  0
    2.7855   -1.9986    6.3826 C   0  0  0  0  0  0  0  0  0  0  0  0
    2.9310   -2.9643    7.3496 C   0  0  0  0  0  0  0  0  0  0  0  0
    3.3249   -4.2568    7.0105 C   0  0  0  0  0  0  0  0  0  0  0  0
    3.4278   -5.4193    8.3309 S   0  0  0  0  0  0  0  0  0  0  0  0
    3.8295   -6.9845    7.5018 C   0  0  0  0  0  0  0  0  0  0  0  0
    3.6095   -4.5424    5.6838 C   0  0  0  0  0  0  0  0  0  0  0  0
    3.4746   -3.5676    4.7132 C   0  0  0  0  0  0  0  0  0  0  0  0
    2.9435    0.0670    4.5670 C   0  0  0  0  0  0  0  0  0  0  0  0
    4.0955    0.5217    5.1972 C   0  0  0  0  0  0  0  0  0  0  0  0
    4.1549    1.7982    5.7231 C   0  0  0  0  0  0  0  0  0  0  0  0
    3.0460    2.6304    5.6382 C   0  0  0  0  0  0  0  0  0  0  0  0
    2.9770    4.2663    6.2970 S   0  0  0  0  0  0  0  0  0  0  0  0
    4.6637    4.5729    6.8955 C   0  0  0  0  0  0  0  0  0  0  0  0
    1.8932    2.1781    5.0015 C   0  0  0  0  0  0  0  0  0  0  0  0
    1.8464    0.9153    4.4522 C   0  0  0  0  0  0  0  0  0  0  0  0
    3.2913   -0.4638    1.7995 C   0  0  0  0  0  0  0  0  0  0  0  0
    3.2834    1.2737    1.8633 S   0  0  0  0  0  0  0  0  0  0  0  0
    1.5191   -3.5617    2.2888 C   0  0  0  0  0  0  0  0  0  0  0  0
    0.3943   -3.4074    3.0893 C   0  0  0  0  0  0  0  0  0  0  0  0
    0.0659   -2.2709    3.8685 N   0  0  0  0  0  0  0  0  0  0  0  0
   -0.0689   -2.4499    5.2487 C   0  0  0  0  0  0  0  0  0  0  0  0
   -0.2669   -1.3697    6.1092 C   0  0  0  0  0  0  0  0  0  0  0  0
   -0.4086   -1.5522    7.4712 C   0  0  0  0  0  0  0  0  0  0  0  0
   -0.3355   -2.8231    8.0200 C   0  0  0  0  0  0  0  0  0  0  0  0
   -0.5244   -3.1885    9.7375 S   0  0  0  0  0  0  0  0  0  0  0  0
   -0.9393   -1.5832   10.4778 C   0  0  0  0  0  0  0  0  0  0  0  0
   -0.0628   -3.8986    7.1811 C   0  0  0  0  0  0  0  0  0  0  0  0
    0.0758   -3.7163    5.8244 C   0  0  0  0  0  0  0  0  0  0  0  0
   -0.5925   -1.2439    3.1570 C   0  0  0  0  0  0  0  0  0  0  0  0
   -1.7105   -0.5747    3.6571 C   0  0  0  0  0  0  0  0  0  0  0  0
   -2.2906    0.4771    2.9695 C   0  0  0  0  0  0  0  0  0  0  0  0
   -1.7883    0.8781    1.7395 C   0  0  0  0  0  0  0  0  0  0  0  0
   -2.3945    2.2313    0.7770 S   0  0  0  0  0  0  0  0  0  0  0  0
   -3.8405    2.8412    1.6795 C   0  0  0  0  0  0  0  0  0  0  0  0
   -0.7288    0.1607    1.1914 C   0  0  0  0  0  0  0  0  0  0  0  0
   -0.1536   -0.8844    1.8774 C   0  0  0  0  0  0  0  0  0  0  0  0
   -0.5321   -4.4468    2.8783 C   0  0  0  0  0  0  0  0  0  0  0  0
   -2.0347   -4.8613    3.6162 S   0  0  0  0  0  0  0  0  0  0  0  0
   -2.2546   -6.1871    2.4874 C   0  0  0  0  0  0  0  0  0  0  0  0
   -1.1768   -6.2910    1.5939 C   0  0  0  0  0  0  0  0  0  0  0  0
   -1.1333   -7.1250    0.4799 N   0  0  0  0  0  0  0  0  0  0  0  0
   -1.0406   -6.4956   -0.7686 C   0  0  0  0  0  0  0  0  0  0  0  0
   -0.4271   -7.1192   -1.8556 C   0  0  0  0  0  0  0  0  0  0  0  0
   -0.3986   -6.5017   -3.0877 C   0  0  0  0  0  0  0  0  0  0  0  0
   -0.9612   -5.2400   -3.2586 C   0  0  0  0  0  0  0  0  0  0  0  0
   -0.9042   -4.5109   -4.8717 S   0  0  0  0  0  0  0  0  0  0  0  0
   -2.3508   -3.4039   -4.8564 C   0  0  0  0  0  0  0  0  0  0  0  0
   -1.5267   -4.5919   -2.1702 C   0  0  0  0  0  0  0  0  0  0  0  0
   -1.5758   -5.2196   -0.9428 C   0  0  0  0  0  0  0  0  0  0  0  0
   -1.3910   -8.4935    0.6149 C   0  0  0  0  0  0  0  0  0  0  0  0
   -0.9463   -9.1627    1.7568 C   0  0  0  0  0  0  0  0  0  0  0  0
   -1.2262  -10.4981    1.9332 C   0  0  0  0  0  0  0  0  0  0  0  0
   -1.9491  -11.2024    0.9723 C   0  0  0  0  0  0  0  0  0  0  0  0
   -2.2482  -12.9110    1.2979 S   0  0  0  0  0  0  0  0  0  0  0  0
   -3.5530  -13.3478    0.1131 C   0  0  0  0  0  0  0  0  0  0  0  0
   -2.3770  -10.5457   -0.1736 C   0  0  0  0  0  0  0  0  0  0  0  0
   -2.1057   -9.2027   -0.3471 C   0  0  0  0  0  0  0  0  0  0  0  0
   -0.1877   -5.3333    1.8658 C   0  0  0  0  0  0  0  0  0  0  0  0
    1.3805   -4.9621    1.2251 S   0  0  0  0  0  0  0  0  0  0  0  0
   -3.4288   -6.9613    2.4096 C   0  0  0  0  0  0  0  0  0  0  0  0
   -4.5482   -6.9648    3.1897 C   0  0  0  0  0  0  0  0  0  0  0  0
   -5.6193   -7.7755    2.7621 C   0  0  0  0  0  0  0  0  0  0  0  0
   -6.4667   -8.4571    2.3948 N   0  0  0  0  0  0  0  0  0  0  0  0
   -4.8040   -6.2439    4.4601 C   0  0  0  0  0  0  0  0  0  0  0  0
   -5.8906   -5.8560    4.8079 O   0  0  0  0  0  0  0  0  0  0  0  0
   -3.6964   -6.1415    5.2125 O   0  0  0  0  0  0  0  0  0  0  0  0
   -3.8423   -5.5494    6.5045 C   0  0  0  0  0  0  0  0  0  0  0  0
   -3.8318   -4.0286    6.4571 C   0  0  0  0  0  0  0  0  0  0  0  0
   -2.6516    6.0556   -1.4012 H   0  0  0  0  0  0  0  0  0  0  0  0
   -2.1973    5.3302   -7.5862 H   0  0  0  0  0  0  0  0  0  0  0  0
   -6.4443    6.9138   -5.3264 H   0  0  0  0  0  0  0  0  0  0  0  0
   -6.3538    7.9059   -8.6342 H   0  0  0  0  0  0  0  0  0  0  0  0
   -8.1935    6.2353   -8.8184 H   0  0  0  0  0  0  0  0  0  0  0  0
   -7.3839    4.1324   -7.5155 H   0  0  0  0  0  0  0  0  0  0  0  0
   -5.1884    3.1999   -8.7288 H   0  0  0  0  0  0  0  0  0  0  0  0
   -4.6633    4.7485  -10.7567 H   0  0  0  0  0  0  0  0  0  0  0  0
   -6.6435    6.5573  -10.9961 H   0  0  0  0  0  0  0  0  0  0  0  0
   -7.3008    4.9032  -10.9279 H   0  0  0  0  0  0  0  0  0  0  0  0
   -4.2465    7.0245   -9.8339 H   0  0  0  0  0  0  0  0  0  0  0  0
   -1.3902    0.1696   -3.6471 H   0  0  0  0  0  0  0  0  0  0  0  0
    0.0788   -1.4020   -4.8430 H   0  0  0  0  0  0  0  0  0  0  0  0
    1.4125   -2.9872   -5.8291 H   0  0  0  0  0  0  0  0  0  0  0  0
    2.0975   -2.9964   -7.4678 H   0  0  0  0  0  0  0  0  0  0  0  0
    0.5673   -2.1478   -7.1652 H   0  0  0  0  0  0  0  0  0  0  0  0
    2.4753    1.8746   -6.1792 H   0  0  0  0  0  0  0  0  0  0  0  0
    1.0141    3.4474   -4.9318 H   0  0  0  0  0  0  0  0  0  0  0  0
   -3.1203    2.8760   -1.7041 H   0  0  0  0  0  0  0  0  0  0  0  0
   -5.5096    2.7618   -2.2567 H   0  0  0  0  0  0  0  0  0  0  0  0
   -6.4375    0.5298   -5.9308 H   0  0  0  0  0  0  0  0  0  0  0  0
   -6.7180    1.9193   -7.0252 H   0  0  0  0  0  0  0  0  0  0  0  0
   -8.0852    1.1454   -6.1992 H   0  0  0  0  0  0  0  0  0  0  0  0
   -4.5383    2.3309   -6.3972 H   0  0  0  0  0  0  0  0  0  0  0  0
   -2.1573    2.4425   -5.8478 H   0  0  0  0  0  0  0  0  0  0  0  0
    0.2957    2.8270    1.7365 H   0  0  0  0  0  0  0  0  0  0  0  0
   -1.3079    3.4531    3.4925 H   0  0  0  0  0  0  0  0  0  0  0  0
    0.4913    6.1508    6.7771 H   0  0  0  0  0  0  0  0  0  0  0  0
   -1.0889    6.6323    7.4442 H   0  0  0  0  0  0  0  0  0  0  0  0
   -0.3885    7.5639    6.1046 H   0  0  0  0  0  0  0  0  0  0  0  0
    1.1574    6.7821    4.5500 H   0  0  0  0  0  0  0  0  0  0  0  0
    2.7382    6.1690    2.8013 H   0  0  0  0  0  0  0  0  0  0  0  0
    3.9100    3.8701    3.4339 H   0  0  0  0  0  0  0  0  0  0  0  0
    6.3192    4.1513    3.7144 H   0  0  0  0  0  0  0  0  0  0  0  0
    8.6121    3.8164    3.9055 H   0  0  0  0  0  0  0  0  0  0  0  0
    9.8599    5.0326    3.5625 H   0  0  0  0  0  0  0  0  0  0  0  0
    8.2178    5.5660    3.9842 H   0  0  0  0  0  0  0  0  0  0  0  0
    6.7054    4.9647   -0.4651 H   0  0  0  0  0  0  0  0  0  0  0  0
    4.2893    4.6423   -0.7516 H   0  0  0  0  0  0  0  0  0  0  0  0
    5.4904   -1.4422   -3.3650 H   0  0  0  0  0  0  0  0  0  0  0  0
    4.9920   -3.5630   -4.4498 H   0  0  0  0  0  0  0  0  0  0  0  0
    3.5990   -6.5146   -6.0415 H   0  0  0  0  0  0  0  0  0  0  0  0
    4.8043   -5.8327   -4.9292 H   0  0  0  0  0  0  0  0  0  0  0  0
    4.0645   -4.8062   -6.2010 H   0  0  0  0  0  0  0  0  0  0  0  0
    1.0380   -3.4712   -2.8193 H   0  0  0  0  0  0  0  0  0  0  0  0
    1.5312   -1.2895   -1.7699 H   0  0  0  0  0  0  0  0  0  0  0  0
    3.7974    0.6155   -4.3522 H   0  0  0  0  0  0  0  0  0  0  0  0
    5.1995    2.2428   -5.4938 H   0  0  0  0  0  0  0  0  0  0  0  0
    7.0621    3.0695   -6.6443 H   0  0  0  0  0  0  0  0  0  0  0  0
    7.5598    4.7756   -6.6365 H   0  0  0  0  0  0  0  0  0  0  0  0
    5.8741    4.3583   -6.2594 H   0  0  0  0  0  0  0  0  0  0  0  0
    7.2636    3.0201   -1.8269 H   0  0  0  0  0  0  0  0  0  0  0  0
    5.8326    1.4025   -0.6757 H   0  0  0  0  0  0  0  0  0  0  0  0
    2.4636   -1.0113    6.6715 H   0  0  0  0  0  0  0  0  0  0  0  0
    2.7297   -2.7324    8.3837 H   0  0  0  0  0  0  0  0  0  0  0  0
    4.8116   -6.9245    7.0420 H   0  0  0  0  0  0  0  0  0  0  0  0
    3.8362   -7.7361    8.2850 H   0  0  0  0  0  0  0  0  0  0  0  0
    3.0635   -7.2215    6.7695 H   0  0  0  0  0  0  0  0  0  0  0  0
    3.9472   -5.5211    5.3831 H   0  0  0  0  0  0  0  0  0  0  0  0
    3.7377   -3.8171    3.6980 H   0  0  0  0  0  0  0  0  0  0  0  0
    4.9483   -0.1355    5.2845 H   0  0  0  0  0  0  0  0  0  0  0  0
    5.0643    2.1233    6.2020 H   0  0  0  0  0  0  0  0  0  0  0  0
    5.3667    4.4762    6.0738 H   0  0  0  0  0  0  0  0  0  0  0  0
    4.6637    5.5951    7.2609 H   0  0  0  0  0  0  0  0  0  0  0  0
    4.9047    3.8928    7.7072 H   0  0  0  0  0  0  0  0  0  0  0  0
    1.0366    2.8291    4.9400 H   0  0  0  0  0  0  0  0  0  0  0  0
    0.9614    0.5817    3.9345 H   0  0  0  0  0  0  0  0  0  0  0  0
   -0.2898   -0.3633    5.7226 H   0  0  0  0  0  0  0  0  0  0  0  0
   -0.5660   -0.6835    8.0903 H   0  0  0  0  0  0  0  0  0  0  0  0
   -1.1164   -1.7837   11.5298 H   0  0  0  0  0  0  0  0  0  0  0  0
   -0.1060   -0.8947   10.3702 H   0  0  0  0  0  0  0  0  0  0  0  0
   -1.8408   -1.1860   10.0205 H   0  0  0  0  0  0  0  0  0  0  0  0
    0.0416   -4.8838    7.6085 H   0  0  0  0  0  0  0  0  0  0  0  0
    0.3197   -4.5705    5.2147 H   0  0  0  0  0  0  0  0  0  0  0  0
   -2.1525   -0.8869    4.5906 H   0  0  0  0  0  0  0  0  0  0  0  0
   -3.1471    0.9678    3.4046 H   0  0  0  0  0  0  0  0  0  0  0  0
   -4.2433    3.6495    1.0735 H   0  0  0  0  0  0  0  0  0  0  0  0
   -4.5734    2.0454    1.7760 H   0  0  0  0  0  0  0  0  0  0  0  0
   -3.5407    3.2264    2.6496 H   0  0  0  0  0  0  0  0  0  0  0  0
   -0.3576    0.4317    0.2131 H   0  0  0  0  0  0  0  0  0  0  0  0
    0.6404   -1.4266    1.3975 H   0  0  0  0  0  0  0  0  0  0  0  0
    0.0166   -8.0949   -1.7303 H   0  0  0  0  0  0  0  0  0  0  0  0
    0.0660   -6.9885   -3.9303 H   0  0  0  0  0  0  0  0  0  0  0  0
   -2.5241   -3.1281   -5.8919 H   0  0  0  0  0  0  0  0  0  0  0  0
   -3.2098   -3.9400   -4.4653 H   0  0  0  0  0  0  0  0  0  0  0  0
   -2.1496   -2.5114   -4.2706 H   0  0  0  0  0  0  0  0  0  0  0  0
   -1.9465   -3.6029   -2.2666 H   0  0  0  0  0  0  0  0  0  0  0  0
   -2.0511   -4.7141   -0.1152 H   0  0  0  0  0  0  0  0  0  0  0  0
   -0.3893   -8.6208    2.5066 H   0  0  0  0  0  0  0  0  0  0  0  0
   -0.8882  -11.0147    2.8182 H   0  0  0  0  0  0  0  0  0  0  0  0
   -3.8852  -14.3414    0.3969 H   0  0  0  0  0  0  0  0  0  0  0  0
   -4.3741  -12.6428    0.2015 H   0  0  0  0  0  0  0  0  0  0  0  0
   -3.1551  -13.3696   -0.8975 H   0  0  0  0  0  0  0  0  0  0  0  0
   -2.9339  -11.0644   -0.9369 H   0  0  0  0  0  0  0  0  0  0  0  0
   -2.4660   -8.6960   -1.2302 H   0  0  0  0  0  0  0  0  0  0  0  0
   -3.4583   -7.6292    1.5543 H   0  0  0  0  0  0  0  0  0  0  0  0
   -2.9949   -5.9255    7.0811 H   0  0  0  0  0  0  0  0  0  0  0  0
   -4.7817   -5.9033    6.9425 H   0  0  0  0  0  0  0  0  0  0  0  0
   -4.6570   -3.6692    5.8473 H   0  0  0  0  0  0  0  0  0  0  0  0
   -3.9442   -3.6427    7.4663 H   0  0  0  0  0  0  0  0  0  0  0  0
   -2.8938   -3.6659    6.0443 H   0  0  0  0  0  0  0  0  0  0  0  0
  1  2  2  0  0  0  0
  2  3  1  0  0  0  0
  3  4  2  0  0  0  0
  3  5  1  0  0  0  0
  5  6  2  0  0  0  0
  6  7  1  0  0  0  0
  7  8  2  0  0  0  0
  8  9  1  0  0  0  0
  9 10  2  0  0  0  0
 10 11  1  0  0  0  0
 11 12  2  0  0  0  0
 12 13  1  0  0  0  0
 13 14  3  0  0  0  0
 12 15  1  0  0  0  0
 15 16  3  0  0  0  0
  8 17  1  0  0  0  0
 17 18  1  0  0  0  0
 18 19  1  0  0  0  0
 19 20  2  0  0  0  0
 20 21  1  0  0  0  0
 21 22  1  0  0  0  0
 21 23  1  0  0  0  0
  1 24  1  0  0  0  0
 24 25  2  0  0  0  0
 25 26  1  0  0  0  0
 26 27  1  0  0  0  0
 27 28  2  0  0  0  0
 28 29  1  0  0  0  0
 29 30  2  0  0  0  0
 30 31  1  0  0  0  0
 31 32  1  0  0  0  0
 30 33  1  0  0  0  0
 33 34  2  0  0  0  0
 26 35  1  0  0  0  0
 35 36  2  0  0  0  0
 36 37  1  0  0  0  0
 37 38  2  0  0  0  0
 38 39  1  0  0  0  0
 39 40  1  0  0  0  0
 38 41  1  0  0  0  0
 41 42  2  0  0  0  0
 25 43  1  0  0  0  0
 43 44  1  0  0  0  0
 44 45  1  0  0  0  0
 45 46  2  0  0  0  0
 46 47  1  0  0  0  0
 47 48  1  0  0  0  0
 48 49  2  0  0  0  0
 49 50  1  0  0  0  0
 50 51  2  0  0  0  0
 51 52  1  0  0  0  0
 52 53  1  0  0  0  0
 51 54  1  0  0  0  0
 54 55  2  0  0  0  0
 47 56  1  0  0  0  0
 56 57  2  0  0  0  0
 57 58  1  0  0  0  0
 58 59  2  0  0  0  0
 59 60  1  0  0  0  0
 60 61  1  0  0  0  0
 59 62  1  0  0  0  0
 62 63  2  0  0  0  0
 46 64  1  0  0  0  0
 64 65  1  0  0  0  0
 45 66  1  0  0  0  0
 66 67  2  0  0  0  0
 67 68  1  0  0  0  0
 68 69  1  0  0  0  0
 69 70  2  0  0  0  0
 70 71  1  0  0  0  0
 71 72  2  0  0  0  0
 72 73  1  0  0  0  0
 73 74  1  0  0  0  0
 72 75  1  0  0  0  0
 75 76  2  0  0  0  0
 68 77  1  0  0  0  0
 77 78  2  0  0  0  0
 78 79  1  0  0  0  0
 79 80  2  0  0  0  0
 80 81  1  0  0  0  0
 81 82  1  0  0  0  0
 80 83  1  0  0  0  0
 83 84  2  0  0  0  0
 67 85  1  0  0  0  0
 85 86  1  0  0  0  0
 86 87  1  0  0  0  0
 87 88  2  0  0  0  0
 88 89  1  0  0  0  0
 89 90  1  0  0  0  0
 90 91  2  0  0  0  0
 91 92  1  0  0  0  0
 92 93  2  0  0  0  0
 93 94  1  0  0  0  0
 94 95  1  0  0  0  0
 93 96  1  0  0  0  0
 96 97  2  0  0  0  0
 89 98  1  0  0  0  0
 98 99  2  0  0  0  0
 99100  1  0  0  0  0
100101  2  0  0  0  0
101102  1  0  0  0  0
102103  1  0  0  0  0
101104  1  0  0  0  0
104105  2  0  0  0  0
 88106  1  0  0  0  0
106107  1  0  0  0  0
 87108  1  0  0  0  0
108109  2  0  0  0  0
109110  1  0  0  0  0
110111  1  0  0  0  0
111112  2  0  0  0  0
112113  1  0  0  0  0
113114  2  0  0  0  0
114115  1  0  0  0  0
115116  1  0  0  0  0
114117  1  0  0  0  0
117118  2  0  0  0  0
110119  1  0  0  0  0
119120  2  0  0  0  0
120121  1  0  0  0  0
121122  2  0  0  0  0
122123  1  0  0  0  0
123124  1  0  0  0  0
122125  1  0  0  0  0
125126  2  0  0  0  0
109127  1  0  0  0  0
127128  1  0  0  0  0
128129  1  0  0  0  0
129130  2  0  0  0  0
130131  1  0  0  0  0
131132  1  0  0  0  0
132133  2  0  0  0  0
133134  1  0  0  0  0
134135  2  0  0  0  0
135136  1  0  0  0  0
136137  1  0  0  0  0
135138  1  0  0  0  0
138139  2  0  0  0  0
131140  1  0  0  0  0
140141  2  0  0  0  0
141142  1  0  0  0  0
142143  2  0  0  0  0
143144  1  0  0  0  0
144145  1  0  0  0  0
143146  1  0  0  0  0
146147  2  0  0  0  0
130148  1  0  0  0  0
148149  1  0  0  0  0
129150  1  0  0  0  0
150151  2  0  0  0  0
151152  1  0  0  0  0
152153  3  0  0  0  0
151154  1  0  0  0  0
154155  2  0  0  0  0
154156  1  0  0  0  0
156157  1  0  0  0  0
157158  1  0  0  0  0
 11  2  1  0  0  0  0
 23 17  1  0  0  0  0
 65 24  1  0  0  0  0
107 66  1  0  0  0  0
149108  1  0  0  0  0
 10  5  1  0  0  0  0
 22 18  1  0  0  0  0
 34 27  1  0  0  0  0
 42 35  1  0  0  0  0
 64 43  2  0  0  0  0
 76 69  1  0  0  0  0
 84 77  1  0  0  0  0
106 85  2  0  0  0  0
118111  1  0  0  0  0
126119  1  0  0  0  0
148127  2  0  0  0  0
 23  7  1  0  0  0  0
 55 48  1  0  0  0  0
 63 56  1  0  0  0  0
 97 90  1  0  0  0  0
105 98  1  0  0  0  0
139132  1  0  0  0  0
147140  1  0  0  0  0
  1159  1  0  0  0  0
  6160  1  0  0  0  0
  9161  1  0  0  0  0
 17162  1  0  0  0  0
 18163  1  0  0  0  0
 19164  1  0  0  0  0
 20165  1  0  0  0  0
 21166  1  0  0  0  0
 22167  1  0  0  0  0
 22168  1  0  0  0  0
 23169  1  0  0  0  0
 28170  1  0  0  0  0
 29171  1  0  0  0  0
 32172  1  0  0  0  0
 32173  1  0  0  0  0
 32174  1  0  0  0  0
 33175  1  0  0  0  0
 34176  1  0  0  0  0
 36177  1  0  0  0  0
 37178  1  0  0  0  0
 40179  1  0  0  0  0
 40180  1  0  0  0  0
 40181  1  0  0  0  0
 41182  1  0  0  0  0
 42183  1  0  0  0  0
 49184  1  0  0  0  0
 50185  1  0  0  0  0
 53186  1  0  0  0  0
 53187  1  0  0  0  0
 53188  1  0  0  0  0
 54189  1  0  0  0  0
 55190  1  0  0  0  0
 57191  1  0  0  0  0
 58192  1  0  0  0  0
 61193  1  0  0  0  0
 61194  1  0  0  0  0
 61195  1  0  0  0  0
 62196  1  0  0  0  0
 63197  1  0  0  0  0
 70198  1  0  0  0  0
 71199  1  0  0  0  0
 74200  1  0  0  0  0
 74201  1  0  0  0  0
 74202  1  0  0  0  0
 75203  1  0  0  0  0
 76204  1  0  0  0  0
 78205  1  0  0  0  0
 79206  1  0  0  0  0
 82207  1  0  0  0  0
 82208  1  0  0  0  0
 82209  1  0  0  0  0
 83210  1  0  0  0  0
 84211  1  0  0  0  0
 91212  1  0  0  0  0
 92213  1  0  0  0  0
 95214  1  0  0  0  0
 95215  1  0  0  0  0
 95216  1  0  0  0  0
 96217  1  0  0  0  0
 97218  1  0  0  0  0
 99219  1  0  0  0  0
100220  1  0  0  0  0
103221  1  0  0  0  0
103222  1  0  0  0  0
103223  1  0  0  0  0
104224  1  0  0  0  0
105225  1  0  0  0  0
112226  1  0  0  0  0
113227  1  0  0  0  0
116228  1  0  0  0  0
116229  1  0  0  0  0
116230  1  0  0  0  0
117231  1  0  0  0  0
118232  1  0  0  0  0
120233  1  0  0  0  0
121234  1  0  0  0  0
124235  1  0  0  0  0
124236  1  0  0  0  0
124237  1  0  0  0  0
125238  1  0  0  0  0
126239  1  0  0  0  0
133240  1  0  0  0  0
134241  1  0  0  0  0
137242  1  0  0  0  0
137243  1  0  0  0  0
137244  1  0  0  0  0
138245  1  0  0  0  0
139246  1  0  0  0  0
141247  1  0  0  0  0
142248  1  0  0  0  0
145249  1  0  0  0  0
145250  1  0  0  0  0
145251  1  0  0  0  0
146252  1  0  0  0  0
147253  1  0  0  0  0
150254  1  0  0  0  0
157255  1  0  0  0  0
157256  1  0  0  0  0
158257  1  0  0  0  0
158258  1  0  0  0  0
158259  1  0  0  0  0
M  END
