182

C          3.30240        2.36220        5.29260
C          3.86330        2.78060        4.13720
C          3.26380        2.50920        2.79350
O          2.24410        1.89970        2.54900
C          4.23890        3.00390        1.81460
C          4.11210        2.95700        0.42830
C          5.19330        3.46600       -0.24740
C          6.32330        3.98010        0.40640
C          6.45840        4.03660        1.77260
C          5.36770        3.52260        2.48340
C          5.16220        3.40310        3.92070
C          6.01590        3.83740        4.89690
C          7.26740        4.44510        4.65860
N          8.30060        4.93170        4.54420
C          5.77200        3.73630        6.28350
N          5.65130        3.68560        7.42410
C          7.02790        4.29140       -0.89030
C          8.14780        3.32540       -1.35270
C          7.83180        1.97850       -0.75030
C          6.75730        1.49990       -1.36410
C          6.33110        2.51420       -2.39710
C          7.69990        3.08330       -2.80300
C          5.76630        3.72640       -1.61630
C          1.93500        1.88160        5.30980
C          0.93100        2.69370        4.71130
N          1.18940        3.97430        4.42510
C          0.27020        4.69960        3.83570
C          0.62340        6.09740        3.54380
C         -0.22940        7.17010        3.77620
C          0.09110        8.47370        3.41900
C          1.30620        8.78460        2.79940
O          1.76300        9.97720        2.40140
C          0.90200       11.10350        2.25940
C         -0.06270       10.94510        1.09150
C          2.18180        7.70090        2.60450
C          1.85890        6.40780        2.96970
F          2.74690        5.44110        2.72280
F          3.36940        7.94530        2.03240
F         -0.82500        9.42590        3.69400
F         -1.40660        6.97330        4.39380
C         -1.00020        4.13560        3.51590
C         -2.06360        4.86170        2.80380
C         -3.38720        4.78850        3.24880
F         -3.68480        4.09510        4.34710
C         -4.40460        5.45470        2.59160
F         -5.65970        5.36810        3.05280
C         -4.17860        6.23460        1.44230
O         -5.25500        6.82300        0.91440
C         -5.16460        7.59900       -0.27740
C         -6.57420        8.05230       -0.61550
C         -2.85430        6.29510        0.99930
F         -2.50580        7.02070       -0.08690
C         -1.83730        5.61660        1.66000
F         -0.60150        5.70260        1.13790
N         -1.28910        2.90980        3.87100
C         -0.35360        2.14930        4.44750
C         -0.61750        0.78890        4.75720
C          0.31510        0.09800        5.50540
C          1.56950        0.64180        5.79020
C         -1.73440        0.08690        4.13660
C         -2.42760       -0.96860        4.76640
N         -2.39370       -1.39800        6.03560
N         -3.17980       -2.43650        6.05010
C         -3.46000       -3.14520        7.26600
C         -4.62710       -2.49280        8.00100
N         -3.74020       -2.77010        4.92110
C         -3.29750       -1.85260        4.05040
C         -3.48720       -1.72480        2.66380
C         -2.89360       -0.61480        2.09990
C         -2.05070        0.26440        2.80260
F         -1.43180        1.18430        2.04590
F         -3.05980       -0.37050        0.78930
C         -3.90590       -2.81950        1.78070
C         -2.85370       -3.28630        0.94430
N         -1.63660       -2.74990        1.07050
C         -0.63810       -3.20400        0.36240
C          0.63800       -2.49860        0.56080
C          1.51750       -2.17620       -0.47220
C          2.71500       -1.52960       -0.22830
C          3.13060       -1.17600        1.06790
O          4.33890       -0.61180        1.16440
C          4.96890       -0.45650        2.43280
C          6.37400        0.05690        2.17170
C          2.23180       -1.47270        2.09730
C          1.01870       -2.09980        1.84230
F          0.23750       -2.37080        2.89230
F          2.51920       -1.18540        3.38200
F          3.53440       -1.24780       -1.25340
F          1.20710       -2.49440       -1.74010
C         -0.82950       -4.34900       -0.47180
C          0.28860       -5.05660       -1.11420
C          1.49140       -5.33040       -0.45990
F          1.64470       -5.00390        0.83430
C          2.53400       -5.97680       -1.09460
F          3.66510       -6.21920       -0.41700
C          2.45920       -6.40340       -2.43410
O          3.56310       -6.98460       -2.91310
C          3.58960       -7.64240       -4.17680
C          2.86050       -8.97920       -4.14690
C          1.24700       -6.14020       -3.08000
F          1.03820       -6.50000       -4.36400
C          0.19810       -5.50080       -2.42980
F         -0.91820       -5.29620       -3.13210
N         -2.02960       -4.84780       -0.65000
C         -3.07500       -4.31190       -0.00650
C         -4.39690       -4.81610       -0.17510
C         -5.36920       -4.40690        0.71430
C         -5.13200       -3.42470        1.68740
C         -4.67520       -5.73750       -1.25930
C         -4.25470       -5.51790       -2.52230
C         -3.67840       -4.22200       -2.99640
O         -3.60570       -3.18350       -2.37980
C         -3.30970       -4.44290       -4.40230
C         -2.65480       -3.54110       -5.23890
C         -2.39830       -4.03060       -6.49580
C         -2.77070       -5.32210       -6.89690
C         -3.41860       -6.21980       -6.08470
C         -3.68880       -5.74310       -4.79580
C         -4.33020       -6.41200       -3.67180
C         -4.89110       -7.65960       -3.69340
C         -5.51340       -8.29070       -2.59500
N         -6.03570       -8.87180       -1.75350
C         -4.95230       -8.49320       -4.83130
N         -5.04580       -9.22420       -5.71130
C         -2.19710       -5.14380       -8.28060
C         -3.20540       -4.86730       -9.41610
C         -2.35640       -4.27290      -10.51660
C         -1.99970       -3.05250      -10.13660
C         -2.60210       -2.80130       -8.77320
C         -3.90510       -3.59950       -8.90920
C         -1.77900       -3.70670       -7.83220
H          3.85190        2.36410        6.22390
H          3.22560        2.55160       -0.03310
H          7.33170        4.43750        2.25960
H          7.28690        5.33550       -1.05250
H          9.15670        3.69710       -1.19500
H          8.37590        1.55210        0.07250
H          6.21350        0.59700       -1.15680
H          5.68490        2.14630       -3.18930
H          8.32270        2.35440       -3.31940
H          7.63300        3.99520       -3.39470
H          5.19750        4.40300       -2.25050
H          0.36620       11.30950        3.18980
H          1.59620       11.92450        2.06580
H         -0.60960       11.87220        0.94900
H          0.48860       10.71510        0.18300
H         -0.77780       10.14740        1.27560
H         -4.75160        6.99170       -1.09030
H         -4.51250        8.46410       -0.11230
H         -7.21380        7.18950       -0.77770
H         -6.98330        8.63670        0.20350
H         -6.55700        8.65940       -1.51550
H          0.10760       -0.92240        5.78530
H          2.30690        0.02690        6.28420
H         -3.70170       -4.17480        6.99700
H         -2.55900       -3.11560        7.88120
H         -4.82900       -3.02980        8.92320
H         -5.51970       -2.51240        7.38080
H         -4.38710       -1.45990        8.24060
H          5.00110       -1.42300        2.94920
H          4.40830        0.25340        3.04910
H          6.33170        0.99300        1.62180
H          6.93150       -0.66510        1.58160
H          6.88590        0.21670        3.11620
H          4.65630       -7.80120       -4.35230
H          3.19660       -6.99460       -4.96460
H          3.02240       -9.49640       -5.08780
H          3.24440       -9.59300       -3.33580
H          1.79110       -8.84340       -4.00870
H         -6.36600       -4.81250        0.61810
H         -5.93690       -3.11160        2.33420
H         -5.23700       -6.62670       -1.00670
H         -2.37600       -2.56190       -4.88330
H         -3.68720       -7.21260       -6.40500
H         -1.41840       -5.84890       -8.56460
H         -3.83240       -5.71330       -9.68400
H         -2.06610       -4.80420      -11.40390
H         -1.35160       -2.36140      -10.64300
H         -2.67920       -1.76510       -8.45550
H         -4.57330       -3.17240       -9.65530
H         -4.44280       -3.73340       -7.97250
H         -0.72080       -3.45340       -7.81450
