
  xtb     02042217283D
 energy: -282.680710233279 gnorm: 0.000694145249 xtb: 6.4.1 (unknown)
173190  0     0  0            999 V2000
    0.4933    5.7568    4.5380 C   0  0  0  0  0  0  0  0  0  0  0  0
   -0.4154    4.7619    4.7272 C   0  0  0  0  0  0  0  0  0  0  0  0
   -1.8614    5.1429    4.7516 C   0  0  0  0  0  0  0  0  0  0  0  0
   -2.2986    6.2709    4.7090 O   0  0  0  0  0  0  0  0  0  0  0  0
   -2.6136    3.8833    4.8549 C   0  0  0  0  0  0  0  0  0  0  0  0
   -3.9908    3.7302    5.0025 C   0  0  0  0  0  0  0  0  0  0  0  0
   -4.3953    2.4306    5.1938 C   0  0  0  0  0  0  0  0  0  0  0  0
   -3.4954    1.3562    5.2410 C   0  0  0  0  0  0  0  0  0  0  0  0
   -2.1376    1.4897    5.0783 C   0  0  0  0  0  0  0  0  0  0  0  0
   -1.7041    2.8051    4.8763 C   0  0  0  0  0  0  0  0  0  0  0  0
   -0.3419    3.3279    4.8531 C   0  0  0  0  0  0  0  0  0  0  0  0
    0.7844    2.5578    5.0533 C   0  0  0  0  0  0  0  0  0  0  0  0
    1.9557    3.0404    5.6585 C   0  0  0  0  0  0  0  0  0  0  0  0
    2.8763    3.3636    6.2656 N   0  0  0  0  0  0  0  0  0  0  0  0
    0.8505    1.1924    4.7269 C   0  0  0  0  0  0  0  0  0  0  0  0
    0.9931    0.1174    4.3443 N   0  0  0  0  0  0  0  0  0  0  0  0
   -4.5800    0.3573    5.5685 C   0  0  0  0  0  0  0  0  0  0  0  0
   -5.0618   -0.5695    4.4342 C   0  0  0  0  0  0  0  0  0  0  0  0
   -6.4115   -1.0574    4.9096 C   0  0  0  0  0  0  0  0  0  0  0  0
   -7.2583   -0.0381    4.8362 C   0  0  0  0  0  0  0  0  0  0  0  0
   -6.4953    1.1572    4.3131 C   0  0  0  0  0  0  0  0  0  0  0  0
   -5.5059    0.4500    3.3805 C   0  0  0  0  0  0  0  0  0  0  0  0
   -5.5843    1.5525    5.4952 C   0  0  0  0  0  0  0  0  0  0  0  0
    1.9138    5.7903    4.4390 C   0  0  0  0  0  0  0  0  0  0  0  0
    2.7942    4.9371    3.8697 C   0  0  0  0  0  0  0  0  0  0  0  0
    2.5502    3.8338    2.9870 C   0  0  0  0  0  0  0  0  0  0  0  0
    1.6200    3.6821    1.9738 C   0  0  0  0  0  0  0  0  0  0  0  0
    0.6670    4.6614    1.6153 N   0  0  0  0  0  0  0  0  0  0  0  0
   -0.6953    4.3694    1.6864 C   0  0  0  0  0  0  0  0  0  0  0  0
   -1.1836    3.0804    1.8966 C   0  0  0  0  0  0  0  0  0  0  0  0
   -2.5426    2.8391    1.8972 C   0  0  0  0  0  0  0  0  0  0  0  0
   -3.4402    3.8786    1.7241 C   0  0  0  0  0  0  0  0  0  0  0  0
   -5.1949    3.5804    1.7118 S   0  0  0  0  0  0  0  0  0  0  0  0
   -5.3057    2.4769    0.2656 C   0  0  0  0  0  0  0  0  0  0  0  0
   -2.9672    5.1781    1.5963 C   0  0  0  0  0  0  0  0  0  0  0  0
   -1.6121    5.4199    1.5756 C   0  0  0  0  0  0  0  0  0  0  0  0
    1.1195    5.5757    0.6324 C   0  0  0  0  0  0  0  0  0  0  0  0
    2.2830    6.3133    0.8409 C   0  0  0  0  0  0  0  0  0  0  0  0
    2.7326    7.1926   -0.1198 C   0  0  0  0  0  0  0  0  0  0  0  0
    2.0360    7.3570   -1.3146 C   0  0  0  0  0  0  0  0  0  0  0  0
    2.7054    8.5174   -2.4636 S   0  0  0  0  0  0  0  0  0  0  0  0
    1.5166    8.5111   -3.8357 C   0  0  0  0  0  0  0  0  0  0  0  0
    0.8881    6.6089   -1.5362 C   0  0  0  0  0  0  0  0  0  0  0  0
    0.4430    5.7222   -0.5752 C   0  0  0  0  0  0  0  0  0  0  0  0
    1.8434    2.4928    1.2459 C   0  0  0  0  0  0  0  0  0  0  0  0
    1.0485    1.7238   -0.0858 S   0  0  0  0  0  0  0  0  0  0  0  0
    2.1468    0.3585    0.0205 C   0  0  0  0  0  0  0  0  0  0  0  0
    3.0580    0.4857    1.0647 C   0  0  0  0  0  0  0  0  0  0  0  0
    3.9249   -0.5075    1.4761 N   0  0  0  0  0  0  0  0  0  0  0  0
    3.4678   -1.8337    1.5484 C   0  0  0  0  0  0  0  0  0  0  0  0
    2.1453   -2.1021    1.8908 C   0  0  0  0  0  0  0  0  0  0  0  0
    1.6841   -3.4005    1.9313 C   0  0  0  0  0  0  0  0  0  0  0  0
    2.5399   -4.4517    1.6325 C   0  0  0  0  0  0  0  0  0  0  0  0
    2.0171   -6.1399    1.7000 S   0  0  0  0  0  0  0  0  0  0  0  0
    0.2690   -6.0178    1.2129 C   0  0  0  0  0  0  0  0  0  0  0  0
    3.8676   -4.1915    1.3125 C   0  0  0  0  0  0  0  0  0  0  0  0
    4.3287   -2.8929    1.2678 C   0  0  0  0  0  0  0  0  0  0  0  0
    5.1662   -0.1399    2.0078 C   0  0  0  0  0  0  0  0  0  0  0  0
    5.8860    0.9062    1.4272 C   0  0  0  0  0  0  0  0  0  0  0  0
    7.0970    1.2925    1.9552 C   0  0  0  0  0  0  0  0  0  0  0  0
    7.6229    0.6403    3.0686 C   0  0  0  0  0  0  0  0  0  0  0  0
    9.1836    1.2207    3.6523 S   0  0  0  0  0  0  0  0  0  0  0  0
    9.4502    0.2906    5.1882 C   0  0  0  0  0  0  0  0  0  0  0  0
    6.9166   -0.4103    3.6398 C   0  0  0  0  0  0  0  0  0  0  0  0
    5.6976   -0.7926    3.1163 C   0  0  0  0  0  0  0  0  0  0  0  0
    2.8992    1.7262    1.7237 C   0  0  0  0  0  0  0  0  0  0  0  0
    3.7043    2.5072    3.0323 S   0  0  0  0  0  0  0  0  0  0  0  0
    2.0376   -0.6885   -0.9327 C   0  0  0  0  0  0  0  0  0  0  0  0
    3.0539   -1.4999   -1.4089 C   0  0  0  0  0  0  0  0  0  0  0  0
    2.6347   -2.3720   -2.4040 C   0  0  0  0  0  0  0  0  0  0  0  0
    3.5587   -3.2573   -3.1229 C   0  0  0  0  0  0  0  0  0  0  0  0
    4.6526   -2.6792   -3.7867 C   0  0  0  0  0  0  0  0  0  0  0  0
    4.7579   -1.3245   -3.6679 O   0  0  0  0  0  0  0  0  0  0  0  0
    5.6735   -0.6162   -4.4788 C   0  0  0  0  0  0  0  0  0  0  0  0
    5.2210   -0.5217   -5.9326 C   0  0  0  0  0  0  0  0  0  0  0  0
    5.5239   -3.4865   -4.5066 C   0  0  0  0  0  0  0  0  0  0  0  0
    5.3006   -4.8495   -4.5620 C   0  0  0  0  0  0  0  0  0  0  0  0
    4.2404   -5.4354   -3.9003 C   0  0  0  0  0  0  0  0  0  0  0  0
    3.3635   -4.6459   -3.1641 C   0  0  0  0  0  0  0  0  0  0  0  0
    2.3043   -5.1116   -2.4500 O   0  0  0  0  0  0  0  0  0  0  0  0
    1.9639   -6.4855   -2.5314 C   0  0  0  0  0  0  0  0  0  0  0  0
    2.8297   -7.3779   -1.6482 C   0  0  0  0  0  0  0  0  0  0  0  0
    1.2659   -2.2427   -2.7107 C   0  0  0  0  0  0  0  0  0  0  0  0
    0.5239   -1.0235   -1.7029 S   0  0  0  0  0  0  0  0  0  0  0  0
    0.6477   -2.9374   -3.7546 C   0  0  0  0  0  0  0  0  0  0  0  0
   -0.6482   -2.8936   -4.2116 C   0  0  0  0  0  0  0  0  0  0  0  0
   -1.7309   -2.0671   -3.6710 C   0  0  0  0  0  0  0  0  0  0  0  0
   -1.6990   -1.3388   -2.6928 O   0  0  0  0  0  0  0  0  0  0  0  0
   -2.8963   -2.2817   -4.5481 C   0  0  0  0  0  0  0  0  0  0  0  0
   -4.1464   -1.6776   -4.4446 C   0  0  0  0  0  0  0  0  0  0  0  0
   -5.0350   -2.0608   -5.4205 C   0  0  0  0  0  0  0  0  0  0  0  0
   -4.7011   -2.9743   -6.4282 C   0  0  0  0  0  0  0  0  0  0  0  0
   -3.4705   -3.5772   -6.5408 C   0  0  0  0  0  0  0  0  0  0  0  0
   -2.5535   -3.2063   -5.5539 C   0  0  0  0  0  0  0  0  0  0  0  0
   -1.1691   -3.6316   -5.3417 C   0  0  0  0  0  0  0  0  0  0  0  0
   -0.5205   -4.5896   -6.0813 C   0  0  0  0  0  0  0  0  0  0  0  0
    0.7849   -5.0720   -5.8631 C   0  0  0  0  0  0  0  0  0  0  0  0
    1.8232   -5.5575   -5.7695 N   0  0  0  0  0  0  0  0  0  0  0  0
   -1.0889   -5.2776   -7.1731 C   0  0  0  0  0  0  0  0  0  0  0  0
   -1.4765   -5.8813   -8.0704 N   0  0  0  0  0  0  0  0  0  0  0  0
   -6.0676   -2.8974   -7.0620 C   0  0  0  0  0  0  0  0  0  0  0  0
   -7.0482   -4.0684   -6.8068 C   0  0  0  0  0  0  0  0  0  0  0  0
   -6.6513   -4.6793   -5.4858 C   0  0  0  0  0  0  0  0  0  0  0  0
   -6.9682   -3.8167   -4.5295 C   0  0  0  0  0  0  0  0  0  0  0  0
   -7.5850   -2.6068   -5.1867 C   0  0  0  0  0  0  0  0  0  0  0  0
   -8.2927   -3.2759   -6.3758 C   0  0  0  0  0  0  0  0  0  0  0  0
   -6.4408   -1.8810   -5.9371 C   0  0  0  0  0  0  0  0  0  0  0  0
    0.0299    6.7424    4.5540 H   0  0  0  0  0  0  0  0  0  0  0  0
   -4.6478    4.5851    4.9883 H   0  0  0  0  0  0  0  0  0  0  0  0
   -1.4539    0.6573    5.1304 H   0  0  0  0  0  0  0  0  0  0  0  0
   -4.4606   -0.1594    6.5194 H   0  0  0  0  0  0  0  0  0  0  0  0
   -4.3462   -1.3292    4.1304 H   0  0  0  0  0  0  0  0  0  0  0  0
   -6.5923   -2.0458    5.2903 H   0  0  0  0  0  0  0  0  0  0  0  0
   -8.2870   -0.0067    5.1442 H   0  0  0  0  0  0  0  0  0  0  0  0
   -7.0759    1.9740    3.8945 H   0  0  0  0  0  0  0  0  0  0  0  0
   -4.7069    1.0983    3.0338 H   0  0  0  0  0  0  0  0  0  0  0  0
   -6.0013   -0.0174    2.5311 H   0  0  0  0  0  0  0  0  0  0  0  0
   -6.1459    1.8166    6.3895 H   0  0  0  0  0  0  0  0  0  0  0  0
    2.3457    6.6706    4.9031 H   0  0  0  0  0  0  0  0  0  0  0  0
    3.8462    5.1104    4.0642 H   0  0  0  0  0  0  0  0  0  0  0  0
   -0.5134    2.2518    2.0567 H   0  0  0  0  0  0  0  0  0  0  0  0
   -2.8925    1.8268    2.0328 H   0  0  0  0  0  0  0  0  0  0  0  0
   -6.3414    2.1619    0.1983 H   0  0  0  0  0  0  0  0  0  0  0  0
   -4.6597    1.6160    0.4008 H   0  0  0  0  0  0  0  0  0  0  0  0
   -5.0223    3.0286   -0.6257 H   0  0  0  0  0  0  0  0  0  0  0  0
   -3.6672    5.9945    1.5144 H   0  0  0  0  0  0  0  0  0  0  0  0
   -1.2460    6.4294    1.4679 H   0  0  0  0  0  0  0  0  0  0  0  0
    2.8339    6.2018    1.7609 H   0  0  0  0  0  0  0  0  0  0  0  0
    3.6308    7.7671    0.0471 H   0  0  0  0  0  0  0  0  0  0  0  0
    1.4923    7.5315   -4.3041 H   0  0  0  0  0  0  0  0  0  0  0  0
    1.8843    9.2479   -4.5430 H   0  0  0  0  0  0  0  0  0  0  0  0
    0.5345    8.8031   -3.4759 H   0  0  0  0  0  0  0  0  0  0  0  0
    0.3347    6.6927   -2.4574 H   0  0  0  0  0  0  0  0  0  0  0  0
   -0.4401    5.1319   -0.7695 H   0  0  0  0  0  0  0  0  0  0  0  0
    1.4825   -1.2932    2.1564 H   0  0  0  0  0  0  0  0  0  0  0  0
    0.6605   -3.5846    2.2158 H   0  0  0  0  0  0  0  0  0  0  0  0
   -0.0308   -7.0179    0.9154 H   0  0  0  0  0  0  0  0  0  0  0  0
    0.1842   -5.3336    0.3743 H   0  0  0  0  0  0  0  0  0  0  0  0
   -0.3376   -5.6890    2.0518 H   0  0  0  0  0  0  0  0  0  0  0  0
    4.5300   -5.0139    1.0908 H   0  0  0  0  0  0  0  0  0  0  0  0
    5.3580   -2.6925    1.0090 H   0  0  0  0  0  0  0  0  0  0  0  0
    5.4897    1.4086    0.5569 H   0  0  0  0  0  0  0  0  0  0  0  0
    7.6538    2.1021    1.5091 H   0  0  0  0  0  0  0  0  0  0  0  0
    9.5689   -0.7669    4.9706 H   0  0  0  0  0  0  0  0  0  0  0  0
   10.3695    0.6837    5.6111 H   0  0  0  0  0  0  0  0  0  0  0  0
    8.6244    0.4653    5.8714 H   0  0  0  0  0  0  0  0  0  0  0  0
    7.2976   -0.9354    4.5005 H   0  0  0  0  0  0  0  0  0  0  0  0
    5.1450   -1.5978    3.5764 H   0  0  0  0  0  0  0  0  0  0  0  0
    4.0750   -1.4290   -1.0846 H   0  0  0  0  0  0  0  0  0  0  0  0
    6.6774   -1.0528   -4.4089 H   0  0  0  0  0  0  0  0  0  0  0  0
    5.7039    0.3824   -4.0335 H   0  0  0  0  0  0  0  0  0  0  0  0
    5.9297    0.0756   -6.4996 H   0  0  0  0  0  0  0  0  0  0  0  0
    4.2417   -0.0520   -5.9828 H   0  0  0  0  0  0  0  0  0  0  0  0
    5.1507   -1.5094   -6.3815 H   0  0  0  0  0  0  0  0  0  0  0  0
    6.3701   -3.0704   -5.0281 H   0  0  0  0  0  0  0  0  0  0  0  0
    5.9722   -5.4705   -5.1351 H   0  0  0  0  0  0  0  0  0  0  0  0
    4.0973   -6.4982   -3.9839 H   0  0  0  0  0  0  0  0  0  0  0  0
    0.9260   -6.5233   -2.1854 H   0  0  0  0  0  0  0  0  0  0  0  0
    1.9896   -6.8159   -3.5762 H   0  0  0  0  0  0  0  0  0  0  0  0
    3.8721   -7.3431   -1.9520 H   0  0  0  0  0  0  0  0  0  0  0  0
    2.7659   -7.0537   -0.6132 H   0  0  0  0  0  0  0  0  0  0  0  0
    2.4773   -8.4035   -1.7184 H   0  0  0  0  0  0  0  0  0  0  0  0
    1.3261   -3.5892   -4.2906 H   0  0  0  0  0  0  0  0  0  0  0  0
   -4.3576   -0.9738   -3.6545 H   0  0  0  0  0  0  0  0  0  0  0  0
   -3.2316   -4.2742   -7.3263 H   0  0  0  0  0  0  0  0  0  0  0  0
   -6.0961   -2.5497   -8.0928 H   0  0  0  0  0  0  0  0  0  0  0  0
   -7.1559   -4.7568   -7.6406 H   0  0  0  0  0  0  0  0  0  0  0  0
   -6.1435   -5.6212   -5.3906 H   0  0  0  0  0  0  0  0  0  0  0  0
   -6.7778   -3.8936   -3.4749 H   0  0  0  0  0  0  0  0  0  0  0  0
   -8.1831   -1.9645   -4.5452 H   0  0  0  0  0  0  0  0  0  0  0  0
   -8.6388   -2.5688   -7.1285 H   0  0  0  0  0  0  0  0  0  0  0  0
   -9.1162   -3.9188   -6.0687 H   0  0  0  0  0  0  0  0  0  0  0  0
   -6.7155   -0.8705   -6.2341 H   0  0  0  0  0  0  0  0  0  0  0  0
  1  2  2  0  0  0  0
  2  3  1  0  0  0  0
  3  4  2  0  0  0  0
  3  5  1  0  0  0  0
  5  6  2  0  0  0  0
  6  7  1  0  0  0  0
  7  8  2  0  0  0  0
  8  9  1  0  0  0  0
  9 10  2  0  0  0  0
 10 11  1  0  0  0  0
 11 12  2  0  0  0  0
 12 13  1  0  0  0  0
 13 14  3  0  0  0  0
 12 15  1  0  0  0  0
 15 16  3  0  0  0  0
  8 17  1  0  0  0  0
 17 18  1  0  0  0  0
 18 19  1  0  0  0  0
 19 20  2  0  0  0  0
 20 21  1  0  0  0  0
 21 22  1  0  0  0  0
 21 23  1  0  0  0  0
  1 24  1  0  0  0  0
 24 25  2  0  0  0  0
 25 26  1  0  0  0  0
 26 27  2  0  0  0  0
 27 28  1  0  0  0  0
 28 29  1  0  0  0  0
 29 30  2  0  0  0  0
 30 31  1  0  0  0  0
 31 32  2  0  0  0  0
 32 33  1  0  0  0  0
 33 34  1  0  0  0  0
 32 35  1  0  0  0  0
 35 36  2  0  0  0  0
 28 37  1  0  0  0  0
 37 38  2  0  0  0  0
 38 39  1  0  0  0  0
 39 40  2  0  0  0  0
 40 41  1  0  0  0  0
 41 42  1  0  0  0  0
 40 43  1  0  0  0  0
 43 44  2  0  0  0  0
 27 45  1  0  0  0  0
 45 46  1  0  0  0  0
 46 47  1  0  0  0  0
 47 48  2  0  0  0  0
 48 49  1  0  0  0  0
 49 50  1  0  0  0  0
 50 51  2  0  0  0  0
 51 52  1  0  0  0  0
 52 53  2  0  0  0  0
 53 54  1  0  0  0  0
 54 55  1  0  0  0  0
 53 56  1  0  0  0  0
 56 57  2  0  0  0  0
 49 58  1  0  0  0  0
 58 59  2  0  0  0  0
 59 60  1  0  0  0  0
 60 61  2  0  0  0  0
 61 62  1  0  0  0  0
 62 63  1  0  0  0  0
 61 64  1  0  0  0  0
 64 65  2  0  0  0  0
 48 66  1  0  0  0  0
 66 67  1  0  0  0  0
 47 68  1  0  0  0  0
 68 69  2  0  0  0  0
 69 70  1  0  0  0  0
 70 71  1  0  0  0  0
 71 72  2  0  0  0  0
 72 73  1  0  0  0  0
 73 74  1  0  0  0  0
 74 75  1  0  0  0  0
 72 76  1  0  0  0  0
 76 77  2  0  0  0  0
 77 78  1  0  0  0  0
 78 79  2  0  0  0  0
 79 80  1  0  0  0  0
 80 81  1  0  0  0  0
 81 82  1  0  0  0  0
 70 83  2  0  0  0  0
 83 84  1  0  0  0  0
 83 85  1  0  0  0  0
 85 86  2  0  0  0  0
 86 87  1  0  0  0  0
 87 88  2  0  0  0  0
 87 89  1  0  0  0  0
 89 90  2  0  0  0  0
 90 91  1  0  0  0  0
 91 92  2  0  0  0  0
 92 93  1  0  0  0  0
 93 94  2  0  0  0  0
 94 95  1  0  0  0  0
 95 96  2  0  0  0  0
 96 97  1  0  0  0  0
 97 98  3  0  0  0  0
 96 99  1  0  0  0  0
 99100  3  0  0  0  0
 92101  1  0  0  0  0
101102  1  0  0  0  0
102103  1  0  0  0  0
103104  2  0  0  0  0
104105  1  0  0  0  0
105106  1  0  0  0  0
105107  1  0  0  0  0
 11  2  1  0  0  0  0
 23 17  1  0  0  0  0
 67 26  1  0  0  0  0
 84 68  1  0  0  0  0
 95 86  1  0  0  0  0
107101  1  0  0  0  0
 10  5  1  0  0  0  0
 22 18  1  0  0  0  0
 36 29  1  0  0  0  0
 44 37  1  0  0  0  0
 66 45  2  0  0  0  0
 79 71  1  0  0  0  0
 94 89  1  0  0  0  0
106102  1  0  0  0  0
 23  7  1  0  0  0  0
 57 50  1  0  0  0  0
 65 58  1  0  0  0  0
107 91  1  0  0  0  0
  1108  1  0  0  0  0
  6109  1  0  0  0  0
  9110  1  0  0  0  0
 17111  1  0  0  0  0
 18112  1  0  0  0  0
 19113  1  0  0  0  0
 20114  1  0  0  0  0
 21115  1  0  0  0  0
 22116  1  0  0  0  0
 22117  1  0  0  0  0
 23118  1  0  0  0  0
 24119  1  0  0  0  0
 25120  1  0  0  0  0
 30121  1  0  0  0  0
 31122  1  0  0  0  0
 34123  1  0  0  0  0
 34124  1  0  0  0  0
 34125  1  0  0  0  0
 35126  1  0  0  0  0
 36127  1  0  0  0  0
 38128  1  0  0  0  0
 39129  1  0  0  0  0
 42130  1  0  0  0  0
 42131  1  0  0  0  0
 42132  1  0  0  0  0
 43133  1  0  0  0  0
 44134  1  0  0  0  0
 51135  1  0  0  0  0
 52136  1  0  0  0  0
 55137  1  0  0  0  0
 55138  1  0  0  0  0
 55139  1  0  0  0  0
 56140  1  0  0  0  0
 57141  1  0  0  0  0
 59142  1  0  0  0  0
 60143  1  0  0  0  0
 63144  1  0  0  0  0
 63145  1  0  0  0  0
 63146  1  0  0  0  0
 64147  1  0  0  0  0
 65148  1  0  0  0  0
 69149  1  0  0  0  0
 74150  1  0  0  0  0
 74151  1  0  0  0  0
 75152  1  0  0  0  0
 75153  1  0  0  0  0
 75154  1  0  0  0  0
 76155  1  0  0  0  0
 77156  1  0  0  0  0
 78157  1  0  0  0  0
 81158  1  0  0  0  0
 81159  1  0  0  0  0
 82160  1  0  0  0  0
 82161  1  0  0  0  0
 82162  1  0  0  0  0
 85163  1  0  0  0  0
 90164  1  0  0  0  0
 93165  1  0  0  0  0
101166  1  0  0  0  0
102167  1  0  0  0  0
103168  1  0  0  0  0
104169  1  0  0  0  0
105170  1  0  0  0  0
106171  1  0  0  0  0
106172  1  0  0  0  0
107173  1  0  0  0  0
M  END
