
  xtb     02122207373D
 energy: -385.225718848280 gnorm: 0.000974372354 xtb: 6.4.1 (unknown)
229252  0     0  0            999 V2000
   -4.5419    3.0044   -6.1403 C   0  0  0  0  0  0  0  0  0  0  0  0
   -4.0458    3.6629   -7.2375 C   0  0  0  0  0  0  0  0  0  0  0  0
   -2.6890    4.2584   -7.2726 C   0  0  0  0  0  0  0  0  0  0  0  0
   -1.8927    4.3250   -6.3575 O   0  0  0  0  0  0  0  0  0  0  0  0
   -2.5656    4.8989   -8.5919 C   0  0  0  0  0  0  0  0  0  0  0  0
   -1.4366    5.5261   -9.1108 C   0  0  0  0  0  0  0  0  0  0  0  0
   -1.6016    5.9934  -10.3919 C   0  0  0  0  0  0  0  0  0  0  0  0
   -2.8025    5.8600  -11.1004 C   0  0  0  0  0  0  0  0  0  0  0  0
   -3.9331    5.2671  -10.5877 C   0  0  0  0  0  0  0  0  0  0  0  0
   -3.7860    4.7757   -9.2870 C   0  0  0  0  0  0  0  0  0  0  0  0
   -4.7352    4.0539   -8.4392 C   0  0  0  0  0  0  0  0  0  0  0  0
   -6.0319    3.7382   -8.7708 C   0  0  0  0  0  0  0  0  0  0  0  0
   -6.8966    2.9593   -7.9829 C   0  0  0  0  0  0  0  0  0  0  0  0
   -7.6559    2.2993   -7.4256 N   0  0  0  0  0  0  0  0  0  0  0  0
   -6.6736    4.1379   -9.9593 C   0  0  0  0  0  0  0  0  0  0  0  0
   -7.2618    4.4319  -10.9013 N   0  0  0  0  0  0  0  0  0  0  0  0
   -2.2364    6.5161  -12.3367 C   0  0  0  0  0  0  0  0  0  0  0  0
   -1.8347    5.5713  -13.4896 C   0  0  0  0  0  0  0  0  0  0  0  0
   -0.8932    6.4044  -14.3295 C   0  0  0  0  0  0  0  0  0  0  0  0
    0.2412    6.5372  -13.6538 C   0  0  0  0  0  0  0  0  0  0  0  0
    0.0852    5.7975  -12.3454 C   0  0  0  0  0  0  0  0  0  0  0  0
   -0.8228    4.6471  -12.7995 C   0  0  0  0  0  0  0  0  0  0  0  0
   -0.9006    6.6707  -11.5413 C   0  0  0  0  0  0  0  0  0  0  0  0
   -3.6858    2.3826   -5.2058 C   0  0  0  0  0  0  0  0  0  0  0  0
   -3.7619    2.3067   -3.8099 C   0  0  0  0  0  0  0  0  0  0  0  0
   -4.7271    2.8753   -3.0178 N   0  0  0  0  0  0  0  0  0  0  0  0
   -4.3321    3.5030   -1.8224 C   0  0  0  0  0  0  0  0  0  0  0  0
   -3.1870    4.2999   -1.7921 C   0  0  0  0  0  0  0  0  0  0  0  0
   -2.8176    4.9290   -0.6251 C   0  0  0  0  0  0  0  0  0  0  0  0
   -3.5768    4.7764    0.5333 C   0  0  0  0  0  0  0  0  0  0  0  0
   -3.0307    5.6649    1.9512 S   0  0  0  0  0  0  0  0  0  0  0  0
   -4.0295    4.9828    3.3029 C   0  0  0  0  0  0  0  0  0  0  0  0
   -4.7161    3.9828    0.5049 C   0  0  0  0  0  0  0  0  0  0  0  0
   -5.0881    3.3508   -0.6652 C   0  0  0  0  0  0  0  0  0  0  0  0
   -6.0687    2.9090   -3.4130 C   0  0  0  0  0  0  0  0  0  0  0  0
   -6.6295    1.8289   -4.0926 C   0  0  0  0  0  0  0  0  0  0  0  0
   -7.9468    1.8599   -4.5029 C   0  0  0  0  0  0  0  0  0  0  0  0
   -8.7286    2.9793   -4.2432 C   0  0  0  0  0  0  0  0  0  0  0  0
  -10.4108    3.1286   -4.7356 S   0  0  0  0  0  0  0  0  0  0  0  0
  -10.5863    1.8473   -6.0088 C   0  0  0  0  0  0  0  0  0  0  0  0
   -8.1780    4.0508   -3.5400 C   0  0  0  0  0  0  0  0  0  0  0  0
   -6.8648    4.0199   -3.1300 C   0  0  0  0  0  0  0  0  0  0  0  0
   -2.6136    1.6685   -3.2816 C   0  0  0  0  0  0  0  0  0  0  0  0
   -2.0960    1.2451   -1.6897 S   0  0  0  0  0  0  0  0  0  0  0  0
   -0.6278    0.4984   -2.3342 C   0  0  0  0  0  0  0  0  0  0  0  0
   -0.5566    0.5864   -3.7087 C   0  0  0  0  0  0  0  0  0  0  0  0
    0.5118    0.2092   -4.5004 N   0  0  0  0  0  0  0  0  0  0  0  0
    1.2059   -0.9866   -4.2556 C   0  0  0  0  0  0  0  0  0  0  0  0
    2.5987   -1.0095   -4.3166 C   0  0  0  0  0  0  0  0  0  0  0  0
    3.2787   -2.1920   -4.1405 C   0  0  0  0  0  0  0  0  0  0  0  0
    2.5853   -3.3792   -3.9013 C   0  0  0  0  0  0  0  0  0  0  0  0
    3.5649   -4.8358   -3.7631 S   0  0  0  0  0  0  0  0  0  0  0  0
    2.3566   -6.1474   -3.4447 C   0  0  0  0  0  0  0  0  0  0  0  0
    1.2002   -3.3547   -3.8181 C   0  0  0  0  0  0  0  0  0  0  0  0
    0.5176   -2.1657   -3.9962 C   0  0  0  0  0  0  0  0  0  0  0  0
    0.8106    0.9605   -5.6462 C   0  0  0  0  0  0  0  0  0  0  0  0
    1.2903    0.3433   -6.7988 C   0  0  0  0  0  0  0  0  0  0  0  0
    1.5416    1.0783   -7.9422 C   0  0  0  0  0  0  0  0  0  0  0  0
    1.3018    2.4454   -7.9598 C   0  0  0  0  0  0  0  0  0  0  0  0
    1.5602    3.4735   -9.3769 S   0  0  0  0  0  0  0  0  0  0  0  0
    1.6598    2.2882  -10.7491 C   0  0  0  0  0  0  0  0  0  0  0  0
    0.8495    3.0729   -6.8032 C   0  0  0  0  0  0  0  0  0  0  0  0
    0.6131    2.3425   -5.6608 C   0  0  0  0  0  0  0  0  0  0  0  0
   -1.7092    1.2328   -4.2330 C   0  0  0  0  0  0  0  0  0  0  0  0
   -2.2460    1.5819   -5.8286 S   0  0  0  0  0  0  0  0  0  0  0  0
    0.2583   -0.0347   -1.3271 C   0  0  0  0  0  0  0  0  0  0  0  0
    0.8027    0.7492   -0.3323 C   0  0  0  0  0  0  0  0  0  0  0  0
    0.7897    2.1410   -0.3675 N   0  0  0  0  0  0  0  0  0  0  0  0
    0.4181    2.8243    0.7913 C   0  0  0  0  0  0  0  0  0  0  0  0
    0.9797    4.0540    1.1277 C   0  0  0  0  0  0  0  0  0  0  0  0
    0.6317    4.6895    2.3023 C   0  0  0  0  0  0  0  0  0  0  0  0
   -0.2788    4.1039    3.1701 C   0  0  0  0  0  0  0  0  0  0  0  0
   -0.7414    4.8200    4.7203 S   0  0  0  0  0  0  0  0  0  0  0  0
   -0.3883    6.5851    4.4772 C   0  0  0  0  0  0  0  0  0  0  0  0
   -0.8468    2.8784    2.8389 C   0  0  0  0  0  0  0  0  0  0  0  0
   -0.5124    2.2506    1.6604 C   0  0  0  0  0  0  0  0  0  0  0  0
    1.2848    2.7915   -1.5045 C   0  0  0  0  0  0  0  0  0  0  0  0
    0.7433    4.0068   -1.9239 C   0  0  0  0  0  0  0  0  0  0  0  0
    1.2715    4.6662   -3.0112 C   0  0  0  0  0  0  0  0  0  0  0  0
    2.3469    4.1253   -3.7152 C   0  0  0  0  0  0  0  0  0  0  0  0
    2.9661    5.0721   -5.0693 S   0  0  0  0  0  0  0  0  0  0  0  0
    4.0910    3.9335   -5.9225 C   0  0  0  0  0  0  0  0  0  0  0  0
    2.8656    2.8992   -3.3228 C   0  0  0  0  0  0  0  0  0  0  0  0
    2.3373    2.2392   -2.2306 C   0  0  0  0  0  0  0  0  0  0  0  0
    1.3792   -0.0323    0.6976 C   0  0  0  0  0  0  0  0  0  0  0  0
    2.1532    0.3281    2.1995 S   0  0  0  0  0  0  0  0  0  0  0  0
    2.3046   -1.3754    2.5365 C   0  0  0  0  0  0  0  0  0  0  0  0
    1.7704   -2.1745    1.5570 C   0  0  0  0  0  0  0  0  0  0  0  0
    1.6729   -3.5684    1.6722 N   0  0  0  0  0  0  0  0  0  0  0  0
    2.4734   -4.4016    0.8965 C   0  0  0  0  0  0  0  0  0  0  0  0
    2.1623   -5.7550    0.7664 C   0  0  0  0  0  0  0  0  0  0  0  0
    2.9839   -6.6017    0.0509 C   0  0  0  0  0  0  0  0  0  0  0  0
    4.1289   -6.1100   -0.5607 C   0  0  0  0  0  0  0  0  0  0  0  0
    5.2523   -7.1349   -1.4676 S   0  0  0  0  0  0  0  0  0  0  0  0
    5.0021   -8.7675   -0.7041 C   0  0  0  0  0  0  0  0  0  0  0  0
    4.4056   -4.7485   -0.4960 C   0  0  0  0  0  0  0  0  0  0  0  0
    3.5887   -3.9022    0.2217 C   0  0  0  0  0  0  0  0  0  0  0  0
    0.9378   -4.0375    2.7717 C   0  0  0  0  0  0  0  0  0  0  0  0
   -0.2954   -3.4595    3.0625 C   0  0  0  0  0  0  0  0  0  0  0  0
   -1.0217   -3.8533    4.1701 C   0  0  0  0  0  0  0  0  0  0  0  0
   -0.5215   -4.8360    5.0115 C   0  0  0  0  0  0  0  0  0  0  0  0
   -1.3044   -5.3815    6.4988 S   0  0  0  0  0  0  0  0  0  0  0  0
   -2.8028   -4.3605    6.6083 C   0  0  0  0  0  0  0  0  0  0  0  0
    0.6956   -5.4406    4.7048 C   0  0  0  0  0  0  0  0  0  0  0  0
    1.4213   -5.0464    3.6043 C   0  0  0  0  0  0  0  0  0  0  0  0
    1.2549   -1.3957    0.4902 C   0  0  0  0  0  0  0  0  0  0  0  0
    0.4679   -1.7518   -1.0057 S   0  0  0  0  0  0  0  0  0  0  0  0
    2.9470   -1.8260    3.7733 C   0  0  0  0  0  0  0  0  0  0  0  0
    2.1961   -1.9764    4.9609 C   0  0  0  0  0  0  0  0  0  0  0  0
    0.9091   -1.5626    4.9619 N   0  0  0  0  0  0  0  0  0  0  0  0
    0.2124   -1.7389    6.0370 C   0  0  0  0  0  0  0  0  0  0  0  0
    0.7520   -2.4183    7.1700 C   0  0  0  0  0  0  0  0  0  0  0  0
   -0.0723   -2.6799    8.1724 O   0  0  0  0  0  0  0  0  0  0  0  0
    0.4406   -3.4658    9.2441 C   0  0  0  0  0  0  0  0  0  0  0  0
   -0.6362   -3.5945   10.3039 C   0  0  0  0  0  0  0  0  0  0  0  0
    2.0192   -2.7573    7.2217 N   0  0  0  0  0  0  0  0  0  0  0  0
    2.7846   -2.5034    6.1395 C   0  0  0  0  0  0  0  0  0  0  0  0
    4.1936   -2.7012    6.1915 C   0  0  0  0  0  0  0  0  0  0  0  0
    4.9113   -2.4685    5.0301 C   0  0  0  0  0  0  0  0  0  0  0  0
    4.2960   -2.0984    3.8270 C   0  0  0  0  0  0  0  0  0  0  0  0
    5.0519   -1.9573    2.7302 F   0  0  0  0  0  0  0  0  0  0  0  0
    6.2402   -2.6236    5.0442 F   0  0  0  0  0  0  0  0  0  0  0  0
    4.9007   -2.9642    7.4264 C   0  0  0  0  0  0  0  0  0  0  0  0
    4.5706   -3.7574    8.4640 C   0  0  0  0  0  0  0  0  0  0  0  0
    5.2196   -3.5508    9.7961 C   0  0  0  0  0  0  0  0  0  0  0  0
    6.1934   -2.8747   10.0265 O   0  0  0  0  0  0  0  0  0  0  0  0
    4.3835   -4.2980   10.7525 C   0  0  0  0  0  0  0  0  0  0  0  0
    4.5149   -4.3223   12.1400 C   0  0  0  0  0  0  0  0  0  0  0  0
    3.5947   -5.1187   12.7770 C   0  0  0  0  0  0  0  0  0  0  0  0
    2.6089   -5.8399   12.0875 C   0  0  0  0  0  0  0  0  0  0  0  0
    2.4670   -5.8278   10.7211 C   0  0  0  0  0  0  0  0  0  0  0  0
    3.3951   -5.0234   10.0516 C   0  0  0  0  0  0  0  0  0  0  0  0
    3.5799   -4.8038    8.6221 C   0  0  0  0  0  0  0  0  0  0  0  0
    3.1023   -5.5904    7.6105 C   0  0  0  0  0  0  0  0  0  0  0  0
    3.5748   -5.4860    6.2877 C   0  0  0  0  0  0  0  0  0  0  0  0
    3.9893   -5.4764    5.2172 N   0  0  0  0  0  0  0  0  0  0  0  0
    2.1929   -6.6514    7.7949 C   0  0  0  0  0  0  0  0  0  0  0  0
    1.4455   -7.5166    7.8982 N   0  0  0  0  0  0  0  0  0  0  0  0
    2.0482   -6.4367   13.3538 C   0  0  0  0  0  0  0  0  0  0  0  0
    2.4096   -7.9087   13.6731 C   0  0  0  0  0  0  0  0  0  0  0  0
    3.7319   -8.1819   12.9995 C   0  0  0  0  0  0  0  0  0  0  0  0
    4.6661   -7.5027   13.6513 C   0  0  0  0  0  0  0  0  0  0  0  0
    3.9925   -6.7571   14.7770 C   0  0  0  0  0  0  0  0  0  0  0  0
    2.8750   -7.7518   15.1296 C   0  0  0  0  0  0  0  0  0  0  0  0
    3.1478   -5.6363   14.1209 C   0  0  0  0  0  0  0  0  0  0  0  0
   -5.6108    2.9553   -5.9735 H   0  0  0  0  0  0  0  0  0  0  0  0
   -0.5247    5.6012   -8.5409 H   0  0  0  0  0  0  0  0  0  0  0  0
   -4.8546    5.1830  -11.1396 H   0  0  0  0  0  0  0  0  0  0  0  0
   -2.7482    7.4130  -12.6801 H   0  0  0  0  0  0  0  0  0  0  0  0
   -2.6685    5.1043  -14.0071 H   0  0  0  0  0  0  0  0  0  0  0  0
   -1.1609    6.8446  -15.2722 H   0  0  0  0  0  0  0  0  0  0  0  0
    1.1100    7.1106  -13.9196 H   0  0  0  0  0  0  0  0  0  0  0  0
    0.9953    5.5399  -11.8101 H   0  0  0  0  0  0  0  0  0  0  0  0
   -1.2393    4.0631  -11.9811 H   0  0  0  0  0  0  0  0  0  0  0  0
   -0.3272    3.9835  -13.5073 H   0  0  0  0  0  0  0  0  0  0  0  0
   -0.5219    7.6721  -11.3467 H   0  0  0  0  0  0  0  0  0  0  0  0
   -2.6035    4.4338   -2.6913 H   0  0  0  0  0  0  0  0  0  0  0  0
   -1.9472    5.5667   -0.5946 H   0  0  0  0  0  0  0  0  0  0  0  0
   -3.9406    3.9010    3.3039 H   0  0  0  0  0  0  0  0  0  0  0  0
   -5.0638    5.2996    3.2037 H   0  0  0  0  0  0  0  0  0  0  0  0
   -3.6034    5.3844    4.2168 H   0  0  0  0  0  0  0  0  0  0  0  0
   -5.3260    3.8524    1.3840 H   0  0  0  0  0  0  0  0  0  0  0  0
   -5.9767    2.7374   -0.6869 H   0  0  0  0  0  0  0  0  0  0  0  0
   -6.0254    0.9564   -4.2947 H   0  0  0  0  0  0  0  0  0  0  0  0
   -8.3511    1.0094   -5.0247 H   0  0  0  0  0  0  0  0  0  0  0  0
  -11.5174    2.0664   -6.5221 H   0  0  0  0  0  0  0  0  0  0  0  0
  -10.6431    0.8652   -5.5478 H   0  0  0  0  0  0  0  0  0  0  0  0
   -9.7495    1.9191   -6.6974 H   0  0  0  0  0  0  0  0  0  0  0  0
   -8.7923    4.9141   -3.3352 H   0  0  0  0  0  0  0  0  0  0  0  0
   -6.4396    4.8620   -2.6047 H   0  0  0  0  0  0  0  0  0  0  0  0
    3.1337   -0.0928   -4.5142 H   0  0  0  0  0  0  0  0  0  0  0  0
    4.3564   -2.2188   -4.1909 H   0  0  0  0  0  0  0  0  0  0  0  0
    1.6739   -6.2384   -4.2846 H   0  0  0  0  0  0  0  0  0  0  0  0
    2.9438   -7.0548   -3.3453 H   0  0  0  0  0  0  0  0  0  0  0  0
    1.8286   -5.9448   -2.5171 H   0  0  0  0  0  0  0  0  0  0  0  0
    0.6374   -4.2526   -3.6234 H   0  0  0  0  0  0  0  0  0  0  0  0
   -0.5615   -2.1523   -3.9453 H   0  0  0  0  0  0  0  0  0  0  0  0
    1.4589   -0.7234   -6.8061 H   0  0  0  0  0  0  0  0  0  0  0  0
    1.9121    0.5659   -8.8159 H   0  0  0  0  0  0  0  0  0  0  0  0
    2.5952    1.7372  -10.7074 H   0  0  0  0  0  0  0  0  0  0  0  0
    1.6243    2.8814  -11.6575 H   0  0  0  0  0  0  0  0  0  0  0  0
    0.8064    1.6179  -10.7110 H   0  0  0  0  0  0  0  0  0  0  0  0
    0.6763    4.1361   -6.7999 H   0  0  0  0  0  0  0  0  0  0  0  0
    0.2593    2.8487   -4.7775 H   0  0  0  0  0  0  0  0  0  0  0  0
    1.7095    4.5072    0.4740 H   0  0  0  0  0  0  0  0  0  0  0  0
    1.0926    5.6351    2.5387 H   0  0  0  0  0  0  0  0  0  0  0  0
   -0.8699    7.1023    5.3014 H   0  0  0  0  0  0  0  0  0  0  0  0
    0.6822    6.7651    4.5100 H   0  0  0  0  0  0  0  0  0  0  0  0
   -0.8166    6.9045    3.5319 H   0  0  0  0  0  0  0  0  0  0  0  0
   -1.5547    2.4247    3.5158 H   0  0  0  0  0  0  0  0  0  0  0  0
   -0.9768    1.3106    1.4014 H   0  0  0  0  0  0  0  0  0  0  0  0
   -0.0943    4.4232   -1.3866 H   0  0  0  0  0  0  0  0  0  0  0  0
    0.8527    5.6061   -3.3366 H   0  0  0  0  0  0  0  0  0  0  0  0
    4.9795    3.7598   -5.3219 H   0  0  0  0  0  0  0  0  0  0  0  0
    3.5704    3.0065   -6.1452 H   0  0  0  0  0  0  0  0  0  0  0  0
    4.3630    4.4326   -6.8474 H   0  0  0  0  0  0  0  0  0  0  0  0
    3.6948    2.4541   -3.8489 H   0  0  0  0  0  0  0  0  0  0  0  0
    2.7591    1.2923   -1.9268 H   0  0  0  0  0  0  0  0  0  0  0  0
    1.2716   -6.1473    1.2340 H   0  0  0  0  0  0  0  0  0  0  0  0
    2.7190   -7.6449   -0.0248 H   0  0  0  0  0  0  0  0  0  0  0  0
    4.9915   -8.6608    0.3760 H   0  0  0  0  0  0  0  0  0  0  0  0
    5.8496   -9.3721   -1.0113 H   0  0  0  0  0  0  0  0  0  0  0  0
    4.0819   -9.2221   -1.0610 H   0  0  0  0  0  0  0  0  0  0  0  0
    5.2773   -4.3641   -1.0014 H   0  0  0  0  0  0  0  0  0  0  0  0
    3.8330   -2.8530    0.2862 H   0  0  0  0  0  0  0  0  0  0  0  0
   -0.6840   -2.6832    2.4211 H   0  0  0  0  0  0  0  0  0  0  0  0
   -1.9694   -3.3785    4.3663 H   0  0  0  0  0  0  0  0  0  0  0  0
   -3.4255   -4.5176    5.7329 H   0  0  0  0  0  0  0  0  0  0  0  0
   -3.3256   -4.7049    7.4952 H   0  0  0  0  0  0  0  0  0  0  0  0
   -2.5297   -3.3156    6.7230 H   0  0  0  0  0  0  0  0  0  0  0  0
    1.0687   -6.2215    5.3499 H   0  0  0  0  0  0  0  0  0  0  0  0
    2.3803   -5.4987    3.4060 H   0  0  0  0  0  0  0  0  0  0  0  0
   -0.7979   -1.3579    6.0552 H   0  0  0  0  0  0  0  0  0  0  0  0
    0.7123   -4.4495    8.8470 H   0  0  0  0  0  0  0  0  0  0  0  0
    1.3419   -2.9855    9.6418 H   0  0  0  0  0  0  0  0  0  0  0  0
   -0.2507   -4.1706   11.1400 H   0  0  0  0  0  0  0  0  0  0  0  0
   -0.9385   -2.6119   10.6558 H   0  0  0  0  0  0  0  0  0  0  0  0
   -1.5031   -4.1025    9.8913 H   0  0  0  0  0  0  0  0  0  0  0  0
    5.7998   -2.3694    7.5683 H   0  0  0  0  0  0  0  0  0  0  0  0
    5.2909   -3.7577   12.6326 H   0  0  0  0  0  0  0  0  0  0  0  0
    1.7062   -6.3888   10.2035 H   0  0  0  0  0  0  0  0  0  0  0  0
    1.0062   -6.2094   13.5705 H   0  0  0  0  0  0  0  0  0  0  0  0
    1.6138   -8.6213   13.4746 H   0  0  0  0  0  0  0  0  0  0  0  0
    3.8392   -8.7775   12.1121 H   0  0  0  0  0  0  0  0  0  0  0  0
    5.7111   -7.4175   13.4175 H   0  0  0  0  0  0  0  0  0  0  0  0
    4.6375   -6.4215   15.5846 H   0  0  0  0  0  0  0  0  0  0  0  0
    2.1132   -7.3344   15.7867 H   0  0  0  0  0  0  0  0  0  0  0  0
    3.2563   -8.6802   15.5516 H   0  0  0  0  0  0  0  0  0  0  0  0
    2.8254   -4.8854   14.8396 H   0  0  0  0  0  0  0  0  0  0  0  0
  1  2  2  0  0  0  0
  2  3  1  0  0  0  0
  3  4  2  0  0  0  0
  3  5  1  0  0  0  0
  5  6  2  0  0  0  0
  6  7  1  0  0  0  0
  7  8  2  0  0  0  0
  8  9  1  0  0  0  0
  9 10  2  0  0  0  0
 10 11  1  0  0  0  0
 11 12  2  0  0  0  0
 12 13  1  0  0  0  0
 13 14  3  0  0  0  0
 12 15  1  0  0  0  0
 15 16  3  0  0  0  0
  8 17  1  0  0  0  0
 17 18  1  0  0  0  0
 18 19  1  0  0  0  0
 19 20  2  0  0  0  0
 20 21  1  0  0  0  0
 21 22  1  0  0  0  0
 21 23  1  0  0  0  0
  1 24  1  0  0  0  0
 24 25  2  0  0  0  0
 25 26  1  0  0  0  0
 26 27  1  0  0  0  0
 27 28  2  0  0  0  0
 28 29  1  0  0  0  0
 29 30  2  0  0  0  0
 30 31  1  0  0  0  0
 31 32  1  0  0  0  0
 30 33  1  0  0  0  0
 33 34  2  0  0  0  0
 26 35  1  0  0  0  0
 35 36  2  0  0  0  0
 36 37  1  0  0  0  0
 37 38  2  0  0  0  0
 38 39  1  0  0  0  0
 39 40  1  0  0  0  0
 38 41  1  0  0  0  0
 41 42  2  0  0  0  0
 25 43  1  0  0  0  0
 43 44  1  0  0  0  0
 44 45  1  0  0  0  0
 45 46  2  0  0  0  0
 46 47  1  0  0  0  0
 47 48  1  0  0  0  0
 48 49  2  0  0  0  0
 49 50  1  0  0  0  0
 50 51  2  0  0  0  0
 51 52  1  0  0  0  0
 52 53  1  0  0  0  0
 51 54  1  0  0  0  0
 54 55  2  0  0  0  0
 47 56  1  0  0  0  0
 56 57  2  0  0  0  0
 57 58  1  0  0  0  0
 58 59  2  0  0  0  0
 59 60  1  0  0  0  0
 60 61  1  0  0  0  0
 59 62  1  0  0  0  0
 62 63  2  0  0  0  0
 46 64  1  0  0  0  0
 64 65  1  0  0  0  0
 45 66  1  0  0  0  0
 66 67  2  0  0  0  0
 67 68  1  0  0  0  0
 68 69  1  0  0  0  0
 69 70  2  0  0  0  0
 70 71  1  0  0  0  0
 71 72  2  0  0  0  0
 72 73  1  0  0  0  0
 73 74  1  0  0  0  0
 72 75  1  0  0  0  0
 75 76  2  0  0  0  0
 68 77  1  0  0  0  0
 77 78  2  0  0  0  0
 78 79  1  0  0  0  0
 79 80  2  0  0  0  0
 80 81  1  0  0  0  0
 81 82  1  0  0  0  0
 80 83  1  0  0  0  0
 83 84  2  0  0  0  0
 67 85  1  0  0  0  0
 85 86  1  0  0  0  0
 86 87  1  0  0  0  0
 87 88  2  0  0  0  0
 88 89  1  0  0  0  0
 89 90  1  0  0  0  0
 90 91  2  0  0  0  0
 91 92  1  0  0  0  0
 92 93  2  0  0  0  0
 93 94  1  0  0  0  0
 94 95  1  0  0  0  0
 93 96  1  0  0  0  0
 96 97  2  0  0  0  0
 89 98  1  0  0  0  0
 98 99  2  0  0  0  0
 99100  1  0  0  0  0
100101  2  0  0  0  0
101102  1  0  0  0  0
102103  1  0  0  0  0
101104  1  0  0  0  0
104105  2  0  0  0  0
 88106  1  0  0  0  0
106107  1  0  0  0  0
 87108  1  0  0  0  0
108109  1  0  0  0  0
109110  2  0  0  0  0
110111  1  0  0  0  0
111112  2  0  0  0  0
112113  1  0  0  0  0
113114  1  0  0  0  0
114115  1  0  0  0  0
112116  1  0  0  0  0
116117  2  0  0  0  0
117118  1  0  0  0  0
118119  2  0  0  0  0
119120  1  0  0  0  0
120121  1  0  0  0  0
119122  1  0  0  0  0
118123  1  0  0  0  0
123124  2  0  0  0  0
124125  1  0  0  0  0
125126  2  0  0  0  0
125127  1  0  0  0  0
127128  2  0  0  0  0
128129  1  0  0  0  0
129130  2  0  0  0  0
130131  1  0  0  0  0
131132  2  0  0  0  0
132133  1  0  0  0  0
133134  2  0  0  0  0
134135  1  0  0  0  0
135136  3  0  0  0  0
134137  1  0  0  0  0
137138  3  0  0  0  0
130139  1  0  0  0  0
139140  1  0  0  0  0
140141  1  0  0  0  0
141142  2  0  0  0  0
142143  1  0  0  0  0
143144  1  0  0  0  0
143145  1  0  0  0  0
 11  2  1  0  0  0  0
 23 17  1  0  0  0  0
 65 24  1  0  0  0  0
107 66  1  0  0  0  0
120108  2  0  0  0  0
133124  1  0  0  0  0
145139  1  0  0  0  0
 10  5  1  0  0  0  0
 22 18  1  0  0  0  0
 34 27  1  0  0  0  0
 42 35  1  0  0  0  0
 64 43  2  0  0  0  0
 76 69  1  0  0  0  0
 84 77  1  0  0  0  0
106 85  2  0  0  0  0
117109  1  0  0  0  0
132127  1  0  0  0  0
144140  1  0  0  0  0
 23  7  1  0  0  0  0
 55 48  1  0  0  0  0
 63 56  1  0  0  0  0
 97 90  1  0  0  0  0
105 98  1  0  0  0  0
145129  1  0  0  0  0
  1146  1  0  0  0  0
  6147  1  0  0  0  0
  9148  1  0  0  0  0
 17149  1  0  0  0  0
 18150  1  0  0  0  0
 19151  1  0  0  0  0
 20152  1  0  0  0  0
 21153  1  0  0  0  0
 22154  1  0  0  0  0
 22155  1  0  0  0  0
 23156  1  0  0  0  0
 28157  1  0  0  0  0
 29158  1  0  0  0  0
 32159  1  0  0  0  0
 32160  1  0  0  0  0
 32161  1  0  0  0  0
 33162  1  0  0  0  0
 34163  1  0  0  0  0
 36164  1  0  0  0  0
 37165  1  0  0  0  0
 40166  1  0  0  0  0
 40167  1  0  0  0  0
 40168  1  0  0  0  0
 41169  1  0  0  0  0
 42170  1  0  0  0  0
 49171  1  0  0  0  0
 50172  1  0  0  0  0
 53173  1  0  0  0  0
 53174  1  0  0  0  0
 53175  1  0  0  0  0
 54176  1  0  0  0  0
 55177  1  0  0  0  0
 57178  1  0  0  0  0
 58179  1  0  0  0  0
 61180  1  0  0  0  0
 61181  1  0  0  0  0
 61182  1  0  0  0  0
 62183  1  0  0  0  0
 63184  1  0  0  0  0
 70185  1  0  0  0  0
 71186  1  0  0  0  0
 74187  1  0  0  0  0
 74188  1  0  0  0  0
 74189  1  0  0  0  0
 75190  1  0  0  0  0
 76191  1  0  0  0  0
 78192  1  0  0  0  0
 79193  1  0  0  0  0
 82194  1  0  0  0  0
 82195  1  0  0  0  0
 82196  1  0  0  0  0
 83197  1  0  0  0  0
 84198  1  0  0  0  0
 91199  1  0  0  0  0
 92200  1  0  0  0  0
 95201  1  0  0  0  0
 95202  1  0  0  0  0
 95203  1  0  0  0  0
 96204  1  0  0  0  0
 97205  1  0  0  0  0
 99206  1  0  0  0  0
100207  1  0  0  0  0
103208  1  0  0  0  0
103209  1  0  0  0  0
103210  1  0  0  0  0
104211  1  0  0  0  0
105212  1  0  0  0  0
111213  1  0  0  0  0
114214  1  0  0  0  0
114215  1  0  0  0  0
115216  1  0  0  0  0
115217  1  0  0  0  0
115218  1  0  0  0  0
123219  1  0  0  0  0
128220  1  0  0  0  0
131221  1  0  0  0  0
139222  1  0  0  0  0
140223  1  0  0  0  0
141224  1  0  0  0  0
142225  1  0  0  0  0
143226  1  0  0  0  0
144227  1  0  0  0  0
144228  1  0  0  0  0
145229  1  0  0  0  0
M  END
