
  xtb     02162205353D
 energy: -424.759476571564 gnorm: 0.000223703403 xtb: 6.4.1 (unknown)
256284  0     0  0            999 V2000
  -10.1696   -0.6990    4.2030 C   0  0  0  0  0  0  0  0  0  0  0  0
  -10.5223   -0.1252    5.4069 C   0  0  0  0  0  0  0  0  0  0  0  0
  -10.0741    1.1969    5.8690 C   0  0  0  0  0  0  0  0  0  0  0  0
   -9.3572    1.9798    5.2720 O   0  0  0  0  0  0  0  0  0  0  0  0
  -10.7848    1.4323    7.1446 C   0  0  0  0  0  0  0  0  0  0  0  0
  -10.6833    2.5457    7.9726 C   0  0  0  0  0  0  0  0  0  0  0  0
  -11.4498    2.4700    9.1120 C   0  0  0  0  0  0  0  0  0  0  0  0
  -12.2729    1.3751    9.4009 C   0  0  0  0  0  0  0  0  0  0  0  0
  -12.3945    0.2754    8.5847 C   0  0  0  0  0  0  0  0  0  0  0  0
  -11.6127    0.3279    7.4284 C   0  0  0  0  0  0  0  0  0  0  0  0
  -11.4553   -0.6537    6.3583 C   0  0  0  0  0  0  0  0  0  0  0  0
  -11.9489   -1.9390    6.3534 C   0  0  0  0  0  0  0  0  0  0  0  0
  -11.6229   -2.9064    5.3837 C   0  0  0  0  0  0  0  0  0  0  0  0
  -11.3643   -3.7612    4.6587 N   0  0  0  0  0  0  0  0  0  0  0  0
  -12.7502   -2.4882    7.3691 C   0  0  0  0  0  0  0  0  0  0  0  0
  -13.3737   -3.0126    8.1804 N   0  0  0  0  0  0  0  0  0  0  0  0
  -12.7566    1.9768   10.6973 C   0  0  0  0  0  0  0  0  0  0  0  0
  -12.1411    1.4134   11.9954 C   0  0  0  0  0  0  0  0  0  0  0  0
  -12.4229    2.4847   13.0236 C   0  0  0  0  0  0  0  0  0  0  0  0
  -11.6393    3.5205   12.7520 C   0  0  0  0  0  0  0  0  0  0  0  0
  -10.8149    3.1664   11.5351 C   0  0  0  0  0  0  0  0  0  0  0  0
  -10.6459    1.6590   11.7603 C   0  0  0  0  0  0  0  0  0  0  0  0
  -11.8348    3.1971   10.3771 C   0  0  0  0  0  0  0  0  0  0  0  0
   -8.9742   -0.5167    3.5115 C   0  0  0  0  0  0  0  0  0  0  0  0
   -7.7038   -0.0524    3.9109 C   0  0  0  0  0  0  0  0  0  0  0  0
   -7.2776    0.3125    5.1598 N   0  0  0  0  0  0  0  0  0  0  0  0
   -6.1568    1.1783    5.2073 C   0  0  0  0  0  0  0  0  0  0  0  0
   -6.2038    2.4069    4.5515 C   0  0  0  0  0  0  0  0  0  0  0  0
   -5.0736    3.1911    4.4820 C   0  0  0  0  0  0  0  0  0  0  0  0
   -3.8803    2.7593    5.0598 C   0  0  0  0  0  0  0  0  0  0  0  0
   -2.4647    3.7853    4.8344 S   0  0  0  0  0  0  0  0  0  0  0  0
   -1.0798    2.6794    5.2265 C   0  0  0  0  0  0  0  0  0  0  0  0
   -3.8556    1.5685    5.7757 C   0  0  0  0  0  0  0  0  0  0  0  0
   -4.9895    0.7833    5.8505 C   0  0  0  0  0  0  0  0  0  0  0  0
   -7.7704   -0.2022    6.3556 C   0  0  0  0  0  0  0  0  0  0  0  0
   -7.7170    0.5830    7.5126 C   0  0  0  0  0  0  0  0  0  0  0  0
   -8.2381    0.1176    8.6956 C   0  0  0  0  0  0  0  0  0  0  0  0
   -8.8318   -1.1443    8.7650 C   0  0  0  0  0  0  0  0  0  0  0  0
   -9.5393   -1.5951   10.3121 S   0  0  0  0  0  0  0  0  0  0  0  0
  -10.1828   -3.2702   10.0518 C   0  0  0  0  0  0  0  0  0  0  0  0
   -8.8356   -1.9514    7.6351 C   0  0  0  0  0  0  0  0  0  0  0  0
   -8.3107   -1.4842    6.4450 C   0  0  0  0  0  0  0  0  0  0  0  0
   -6.8002   -0.1158    2.8233 C   0  0  0  0  0  0  0  0  0  0  0  0
   -5.1308    0.2853    2.6514 S   0  0  0  0  0  0  0  0  0  0  0  0
   -5.1041   -0.3725    1.0237 C   0  0  0  0  0  0  0  0  0  0  0  0
   -6.3466   -0.8560    0.6224 C   0  0  0  0  0  0  0  0  0  0  0  0
   -6.6738   -1.4568   -0.5810 N   0  0  0  0  0  0  0  0  0  0  0  0
   -7.6739   -2.4509   -0.5297 C   0  0  0  0  0  0  0  0  0  0  0  0
   -8.7540   -2.4348   -1.4102 C   0  0  0  0  0  0  0  0  0  0  0  0
   -9.7776   -3.3438   -1.2610 C   0  0  0  0  0  0  0  0  0  0  0  0
   -9.7507   -4.2789   -0.2275 C   0  0  0  0  0  0  0  0  0  0  0  0
  -11.1478   -5.3410   -0.0602 S   0  0  0  0  0  0  0  0  0  0  0  0
  -11.0578   -5.8778    1.6734 C   0  0  0  0  0  0  0  0  0  0  0  0
   -8.6462   -4.3375    0.6121 C   0  0  0  0  0  0  0  0  0  0  0  0
   -7.6154   -3.4329    0.4556 C   0  0  0  0  0  0  0  0  0  0  0  0
   -6.1529   -1.0490   -1.8088 C   0  0  0  0  0  0  0  0  0  0  0  0
   -5.7090    0.2587   -2.0131 C   0  0  0  0  0  0  0  0  0  0  0  0
   -5.1644    0.6266   -3.2234 C   0  0  0  0  0  0  0  0  0  0  0  0
   -5.0601   -0.2932   -4.2630 C   0  0  0  0  0  0  0  0  0  0  0  0
   -4.3370    0.2773   -5.7693 S   0  0  0  0  0  0  0  0  0  0  0  0
   -4.8898   -0.9476   -6.9899 C   0  0  0  0  0  0  0  0  0  0  0  0
   -5.5084   -1.5929   -4.0704 C   0  0  0  0  0  0  0  0  0  0  0  0
   -6.0443   -1.9661   -2.8548 C   0  0  0  0  0  0  0  0  0  0  0  0
   -7.2970   -0.6916    1.6643 C   0  0  0  0  0  0  0  0  0  0  0  0
   -8.9638   -1.1028    1.8387 S   0  0  0  0  0  0  0  0  0  0  0  0
   -3.8398   -0.3070    0.3737 C   0  0  0  0  0  0  0  0  0  0  0  0
   -3.3366   -0.9809   -0.7016 C   0  0  0  0  0  0  0  0  0  0  0  0
   -1.9985   -0.6385   -1.0108 C   0  0  0  0  0  0  0  0  0  0  0  0
   -1.1916   -1.1418   -2.0503 C   0  0  0  0  0  0  0  0  0  0  0  0
   -1.7131   -2.0487   -3.0518 C   0  0  0  0  0  0  0  0  0  0  0  0
   -2.5193   -3.1431   -2.9020 C   0  0  0  0  0  0  0  0  0  0  0  0
   -2.8470   -3.7175   -4.1409 C   0  0  0  0  0  0  0  0  0  0  0  0
   -3.8071   -5.0635   -4.6496 S   0  0  0  0  0  0  0  0  0  0  0  0
   -3.4401   -4.7229   -6.3291 C   0  0  0  0  0  0  0  0  0  0  0  0
   -3.9729   -5.6186   -7.3932 C   0  0  0  0  0  0  0  0  0  0  0  0
   -3.1691   -6.9185   -7.4719 C   0  0  0  0  0  0  0  0  0  0  0  0
   -2.6272   -3.6416   -6.4765 C   0  0  0  0  0  0  0  0  0  0  0  0
   -2.2933   -3.0638   -5.2343 C   0  0  0  0  0  0  0  0  0  0  0  0
   -1.3540   -1.7106   -4.7351 S   0  0  0  0  0  0  0  0  0  0  0  0
    0.1120   -0.6640   -2.1087 C   0  0  0  0  0  0  0  0  0  0  0  0
    0.6261    0.3169   -1.2270 C   0  0  0  0  0  0  0  0  0  0  0  0
   -0.1905    0.8482   -0.2079 C   0  0  0  0  0  0  0  0  0  0  0  0
    0.2938    1.8565    0.7124 C   0  0  0  0  0  0  0  0  0  0  0  0
   -0.7396    3.2141    1.1355 S   0  0  0  0  0  0  0  0  0  0  0  0
    0.4838    3.8525    2.1701 C   0  0  0  0  0  0  0  0  0  0  0  0
    0.5865    4.9763    3.0130 C   0  0  0  0  0  0  0  0  0  0  0  0
    1.7837    5.0145    3.6613 C   0  0  0  0  0  0  0  0  0  0  0  0
    2.2748    6.0646    4.5966 C   0  0  0  0  0  0  0  0  0  0  0  0
    2.8799    7.2432    3.8296 C   0  0  0  0  0  0  0  0  0  0  0  0
    2.8171    3.6674    3.2441 S   0  0  0  0  0  0  0  0  0  0  0  0
    1.6116    3.0396    2.1752 C   0  0  0  0  0  0  0  0  0  0  0  0
    1.5072    1.9123    1.3436 C   0  0  0  0  0  0  0  0  0  0  0  0
   -1.4816    0.3442   -0.1317 C   0  0  0  0  0  0  0  0  0  0  0  0
   -2.6621    0.8000    1.0605 S   0  0  0  0  0  0  0  0  0  0  0  0
    1.9588    0.6499   -1.5387 C   0  0  0  0  0  0  0  0  0  0  0  0
    2.4917   -0.0717   -2.5762 C   0  0  0  0  0  0  0  0  0  0  0  0
    1.3279   -1.1981   -3.2394 S   0  0  0  0  0  0  0  0  0  0  0  0
    3.8439    0.0244   -3.0008 C   0  0  0  0  0  0  0  0  0  0  0  0
    4.5650   -0.6070   -4.0083 C   0  0  0  0  0  0  0  0  0  0  0  0
    4.0882   -1.4926   -4.9590 N   0  0  0  0  0  0  0  0  0  0  0  0
    2.9306   -1.2764   -5.7068 C   0  0  0  0  0  0  0  0  0  0  0  0
    2.3979   -0.0029   -5.8895 C   0  0  0  0  0  0  0  0  0  0  0  0
    1.2444    0.1815   -6.6272 C   0  0  0  0  0  0  0  0  0  0  0  0
    0.6062   -0.9054   -7.2062 C   0  0  0  0  0  0  0  0  0  0  0  0
   -0.8714   -0.7829   -8.1653 S   0  0  0  0  0  0  0  0  0  0  0  0
   -1.4569    0.9002   -7.8369 C   0  0  0  0  0  0  0  0  0  0  0  0
    1.1449   -2.1801   -7.0423 C   0  0  0  0  0  0  0  0  0  0  0  0
    2.2867   -2.3658   -6.2996 C   0  0  0  0  0  0  0  0  0  0  0  0
    4.9966   -2.4918   -5.3746 C   0  0  0  0  0  0  0  0  0  0  0  0
    5.3444   -2.6278   -6.7141 C   0  0  0  0  0  0  0  0  0  0  0  0
    6.3152   -3.5310   -7.0941 C   0  0  0  0  0  0  0  0  0  0  0  0
    6.9577   -4.3054   -6.1373 C   0  0  0  0  0  0  0  0  0  0  0  0
    8.2521   -5.4335   -6.5375 S   0  0  0  0  0  0  0  0  0  0  0  0
    8.9145   -4.7318   -8.0786 C   0  0  0  0  0  0  0  0  0  0  0  0
    6.5751   -4.2105   -4.8032 C   0  0  0  0  0  0  0  0  0  0  0  0
    5.6018   -3.3117   -4.4242 C   0  0  0  0  0  0  0  0  0  0  0  0
    5.9410   -0.2546   -3.9469 C   0  0  0  0  0  0  0  0  0  0  0  0
    7.3360   -0.7839   -4.8143 S   0  0  0  0  0  0  0  0  0  0  0  0
    8.3608    0.2756   -3.8474 C   0  0  0  0  0  0  0  0  0  0  0  0
    7.6272    0.9602   -2.8513 C   0  0  0  0  0  0  0  0  0  0  0  0
    8.1635    1.7474   -1.8608 N   0  0  0  0  0  0  0  0  0  0  0  0
    9.4484    1.5055   -1.3349 C   0  0  0  0  0  0  0  0  0  0  0  0
    9.8993    0.2011   -1.1225 C   0  0  0  0  0  0  0  0  0  0  0  0
   11.1974   -0.0222   -0.7264 C   0  0  0  0  0  0  0  0  0  0  0  0
   12.0639    1.0494   -0.5062 C   0  0  0  0  0  0  0  0  0  0  0  0
   13.7320    0.6507   -0.0969 S   0  0  0  0  0  0  0  0  0  0  0  0
   14.6215    2.2018   -0.4032 C   0  0  0  0  0  0  0  0  0  0  0  0
   11.5855    2.3479   -0.6190 C   0  0  0  0  0  0  0  0  0  0  0  0
   10.2888    2.5733   -1.0393 C   0  0  0  0  0  0  0  0  0  0  0  0
    7.3538    2.7127   -1.2406 C   0  0  0  0  0  0  0  0  0  0  0  0
    6.5147    3.5224   -2.0036 C   0  0  0  0  0  0  0  0  0  0  0  0
    5.6629    4.4202   -1.3923 C   0  0  0  0  0  0  0  0  0  0  0  0
    5.6425    4.5233   -0.0081 C   0  0  0  0  0  0  0  0  0  0  0  0
    4.5466    5.6164    0.8434 S   0  0  0  0  0  0  0  0  0  0  0  0
    3.0533    5.5406   -0.1913 C   0  0  0  0  0  0  0  0  0  0  0  0
    6.5213    3.7600    0.7548 C   0  0  0  0  0  0  0  0  0  0  0  0
    7.3700    2.8622    0.1460 C   0  0  0  0  0  0  0  0  0  0  0  0
    6.2595    0.6451   -2.9402 C   0  0  0  0  0  0  0  0  0  0  0  0
    4.8606    1.0911   -2.0260 S   0  0  0  0  0  0  0  0  0  0  0  0
    9.7433    0.4007   -4.0279 C   0  0  0  0  0  0  0  0  0  0  0  0
   10.6279   -0.4577   -4.6310 C   0  0  0  0  0  0  0  0  0  0  0  0
   10.3034   -1.7348   -5.2769 C   0  0  0  0  0  0  0  0  0  0  0  0
    9.2277   -2.0891   -5.7295 O   0  0  0  0  0  0  0  0  0  0  0  0
   11.5609   -2.5007   -5.3178 C   0  0  0  0  0  0  0  0  0  0  0  0
   11.7259   -3.8284   -5.7046 C   0  0  0  0  0  0  0  0  0  0  0  0
   13.0241   -4.2733   -5.6279 C   0  0  0  0  0  0  0  0  0  0  0  0
   14.0806   -3.4603   -5.1979 C   0  0  0  0  0  0  0  0  0  0  0  0
   13.9285   -2.1528   -4.7990 C   0  0  0  0  0  0  0  0  0  0  0  0
   12.6152   -1.6799   -4.8672 C   0  0  0  0  0  0  0  0  0  0  0  0
   12.0655   -0.3763   -4.5006 C   0  0  0  0  0  0  0  0  0  0  0  0
   12.7951    0.7113   -4.0901 C   0  0  0  0  0  0  0  0  0  0  0  0
   14.1917    0.7224   -3.9046 C   0  0  0  0  0  0  0  0  0  0  0  0
   15.3196    0.8231   -3.7111 N   0  0  0  0  0  0  0  0  0  0  0  0
   12.2701    1.9897   -3.8223 C   0  0  0  0  0  0  0  0  0  0  0  0
   11.9449    3.0699   -3.5987 N   0  0  0  0  0  0  0  0  0  0  0  0
   15.1016   -4.5571   -5.3731 C   0  0  0  0  0  0  0  0  0  0  0  0
   15.9958   -4.4747   -6.6283 C   0  0  0  0  0  0  0  0  0  0  0  0
   16.5328   -5.8793   -6.7821 C   0  0  0  0  0  0  0  0  0  0  0  0
   15.5320   -6.6521   -7.1844 C   0  0  0  0  0  0  0  0  0  0  0  0
   14.3020   -5.7826   -7.3099 C   0  0  0  0  0  0  0  0  0  0  0  0
   14.9531   -4.4663   -7.7538 C   0  0  0  0  0  0  0  0  0  0  0  0
   13.9220   -5.4652   -5.8483 C   0  0  0  0  0  0  0  0  0  0  0  0
  -10.8737   -1.3738    3.7310 H   0  0  0  0  0  0  0  0  0  0  0  0
  -10.0429    3.3741    7.7125 H   0  0  0  0  0  0  0  0  0  0  0  0
  -13.0443   -0.5547    8.8086 H   0  0  0  0  0  0  0  0  0  0  0  0
  -13.8300    2.1421   10.7714 H   0  0  0  0  0  0  0  0  0  0  0  0
  -12.4471    0.4011   12.2430 H   0  0  0  0  0  0  0  0  0  0  0  0
  -13.1778    2.4044   13.7838 H   0  0  0  0  0  0  0  0  0  0  0  0
  -11.6094    4.4776   13.2394 H   0  0  0  0  0  0  0  0  0  0  0  0
   -9.9158    3.7535   11.3663 H   0  0  0  0  0  0  0  0  0  0  0  0
  -10.0484    1.4355   12.6424 H   0  0  0  0  0  0  0  0  0  0  0  0
  -10.2447    1.1201   10.9052 H   0  0  0  0  0  0  0  0  0  0  0  0
  -12.2943    4.1746   10.2407 H   0  0  0  0  0  0  0  0  0  0  0  0
   -7.1317    2.7215    4.0998 H   0  0  0  0  0  0  0  0  0  0  0  0
   -5.0931    4.1359    3.9616 H   0  0  0  0  0  0  0  0  0  0  0  0
   -1.1741    1.7674    4.6445 H   0  0  0  0  0  0  0  0  0  0  0  0
   -1.0482    2.4709    6.2919 H   0  0  0  0  0  0  0  0  0  0  0  0
   -0.1833    3.2166    4.9334 H   0  0  0  0  0  0  0  0  0  0  0  0
   -2.9557    1.2326    6.2645 H   0  0  0  0  0  0  0  0  0  0  0  0
   -4.9645   -0.1546    6.3860 H   0  0  0  0  0  0  0  0  0  0  0  0
   -7.2868    1.5711    7.4603 H   0  0  0  0  0  0  0  0  0  0  0  0
   -8.2088    0.7332    9.5813 H   0  0  0  0  0  0  0  0  0  0  0  0
  -10.5762   -3.5791   11.0154 H   0  0  0  0  0  0  0  0  0  0  0  0
   -9.3782   -3.9356    9.7532 H   0  0  0  0  0  0  0  0  0  0  0  0
  -10.9849   -3.2572    9.3198 H   0  0  0  0  0  0  0  0  0  0  0  0
   -9.2556   -2.9444    7.6602 H   0  0  0  0  0  0  0  0  0  0  0  0
   -8.3156   -2.1303    5.5799 H   0  0  0  0  0  0  0  0  0  0  0  0
   -8.7975   -1.6871   -2.1880 H   0  0  0  0  0  0  0  0  0  0  0  0
  -10.6286   -3.3202   -1.9239 H   0  0  0  0  0  0  0  0  0  0  0  0
  -10.9243   -5.0162    2.3206 H   0  0  0  0  0  0  0  0  0  0  0  0
  -12.0133   -6.3490    1.8818 H   0  0  0  0  0  0  0  0  0  0  0  0
  -10.2593   -6.6024    1.8048 H   0  0  0  0  0  0  0  0  0  0  0  0
   -8.5836   -5.0758    1.3948 H   0  0  0  0  0  0  0  0  0  0  0  0
   -6.7626   -3.4697    1.1186 H   0  0  0  0  0  0  0  0  0  0  0  0
   -5.8059    0.9889   -1.2247 H   0  0  0  0  0  0  0  0  0  0  0  0
   -4.8197    1.6373   -3.3789 H   0  0  0  0  0  0  0  0  0  0  0  0
   -4.3555   -1.8837   -6.8546 H   0  0  0  0  0  0  0  0  0  0  0  0
   -4.6483   -0.5298   -7.9621 H   0  0  0  0  0  0  0  0  0  0  0  0
   -5.9631   -1.0861   -6.9011 H   0  0  0  0  0  0  0  0  0  0  0  0
   -5.4333   -2.3290   -4.8546 H   0  0  0  0  0  0  0  0  0  0  0  0
   -6.3726   -2.9848   -2.7091 H   0  0  0  0  0  0  0  0  0  0  0  0
   -3.8895   -1.7177   -1.2487 H   0  0  0  0  0  0  0  0  0  0  0  0
   -2.8196   -3.5453   -1.9522 H   0  0  0  0  0  0  0  0  0  0  0  0
   -5.0186   -5.8566   -7.1846 H   0  0  0  0  0  0  0  0  0  0  0  0
   -3.9212   -5.0968   -8.3512 H   0  0  0  0  0  0  0  0  0  0  0  0
   -3.5652   -7.5589   -8.2557 H   0  0  0  0  0  0  0  0  0  0  0  0
   -3.2226   -7.4522   -6.5257 H   0  0  0  0  0  0  0  0  0  0  0  0
   -2.1255   -6.7040   -7.6900 H   0  0  0  0  0  0  0  0  0  0  0  0
   -2.2790   -3.2700   -7.4236 H   0  0  0  0  0  0  0  0  0  0  0  0
   -0.1928    5.7039    3.1462 H   0  0  0  0  0  0  0  0  0  0  0  0
    3.0311    5.6383    5.2581 H   0  0  0  0  0  0  0  0  0  0  0  0
    1.4397    6.4182    5.2065 H   0  0  0  0  0  0  0  0  0  0  0  0
    3.7070    6.9064    3.2094 H   0  0  0  0  0  0  0  0  0  0  0  0
    2.1305    7.7003    3.1877 H   0  0  0  0  0  0  0  0  0  0  0  0
    3.2469    7.9936    4.5247 H   0  0  0  0  0  0  0  0  0  0  0  0
    2.2662    1.1574    1.2514 H   0  0  0  0  0  0  0  0  0  0  0  0
    2.5165    1.4107   -1.0235 H   0  0  0  0  0  0  0  0  0  0  0  0
    2.8897    0.8531   -5.4510 H   0  0  0  0  0  0  0  0  0  0  0  0
    0.8587    1.1813   -6.7438 H   0  0  0  0  0  0  0  0  0  0  0  0
   -0.7764    1.6261   -8.2725 H   0  0  0  0  0  0  0  0  0  0  0  0
   -1.5666    1.0408   -6.7660 H   0  0  0  0  0  0  0  0  0  0  0  0
   -2.4276    0.9778   -8.3159 H   0  0  0  0  0  0  0  0  0  0  0  0
    0.6466   -3.0245   -7.4932 H   0  0  0  0  0  0  0  0  0  0  0  0
    2.6866   -3.3586   -6.1604 H   0  0  0  0  0  0  0  0  0  0  0  0
    4.8654   -2.0053   -7.4554 H   0  0  0  0  0  0  0  0  0  0  0  0
    6.5768   -3.6074   -8.1369 H   0  0  0  0  0  0  0  0  0  0  0  0
    9.0610   -3.6652   -7.9344 H   0  0  0  0  0  0  0  0  0  0  0  0
    8.2440   -4.9339   -8.9089 H   0  0  0  0  0  0  0  0  0  0  0  0
    9.8654   -5.2259   -8.2541 H   0  0  0  0  0  0  0  0  0  0  0  0
    7.0618   -4.8331   -4.0682 H   0  0  0  0  0  0  0  0  0  0  0  0
    5.3207   -3.2169   -3.3853 H   0  0  0  0  0  0  0  0  0  0  0  0
    9.2361   -0.6321   -1.3021 H   0  0  0  0  0  0  0  0  0  0  0  0
   11.5624   -1.0286   -0.5889 H   0  0  0  0  0  0  0  0  0  0  0  0
   15.6746    1.9391   -0.4021 H   0  0  0  0  0  0  0  0  0  0  0  0
   14.3424    2.5941   -1.3764 H   0  0  0  0  0  0  0  0  0  0  0  0
   14.4167    2.9176    0.3879 H   0  0  0  0  0  0  0  0  0  0  0  0
   12.2200    3.1939   -0.4139 H   0  0  0  0  0  0  0  0  0  0  0  0
    9.9341    3.5841   -1.1685 H   0  0  0  0  0  0  0  0  0  0  0  0
    6.5348    3.4464   -3.0807 H   0  0  0  0  0  0  0  0  0  0  0  0
    5.0194    5.0373   -1.9993 H   0  0  0  0  0  0  0  0  0  0  0  0
    2.8830    4.5114   -0.4922 H   0  0  0  0  0  0  0  0  0  0  0  0
    3.1533    6.1895   -1.0563 H   0  0  0  0  0  0  0  0  0  0  0  0
    2.2355    5.8857    0.4338 H   0  0  0  0  0  0  0  0  0  0  0  0
    6.5110    3.8621    1.8287 H   0  0  0  0  0  0  0  0  0  0  0  0
    8.0312    2.2502    0.7408 H   0  0  0  0  0  0  0  0  0  0  0  0
   10.1799    1.2564   -3.5298 H   0  0  0  0  0  0  0  0  0  0  0  0
   10.8834   -4.4301   -6.0062 H   0  0  0  0  0  0  0  0  0  0  0  0
   14.7466   -1.5451   -4.4497 H   0  0  0  0  0  0  0  0  0  0  0  0
   15.6508   -4.8413   -4.4775 H   0  0  0  0  0  0  0  0  0  0  0  0
   16.7257   -3.6699   -6.6151 H   0  0  0  0  0  0  0  0  0  0  0  0
   17.5378   -6.1676   -6.5361 H   0  0  0  0  0  0  0  0  0  0  0  0
   15.5339   -7.7148   -7.3415 H   0  0  0  0  0  0  0  0  0  0  0  0
   13.4891   -6.1710   -7.9179 H   0  0  0  0  0  0  0  0  0  0  0  0
   15.4103   -4.5443   -8.7388 H   0  0  0  0  0  0  0  0  0  0  0  0
   14.2824   -3.6093   -7.7302 H   0  0  0  0  0  0  0  0  0  0  0  0
   13.6819   -6.3539   -5.2677 H   0  0  0  0  0  0  0  0  0  0  0  0
  1  2  2  0  0  0  0
  2  3  1  0  0  0  0
  3  4  2  0  0  0  0
  3  5  1  0  0  0  0
  5  6  2  0  0  0  0
  6  7  1  0  0  0  0
  7  8  2  0  0  0  0
  8  9  1  0  0  0  0
  9 10  2  0  0  0  0
 10 11  1  0  0  0  0
 11 12  2  0  0  0  0
 12 13  1  0  0  0  0
 13 14  3  0  0  0  0
 12 15  1  0  0  0  0
 15 16  3  0  0  0  0
  8 17  1  0  0  0  0
 17 18  1  0  0  0  0
 18 19  1  0  0  0  0
 19 20  2  0  0  0  0
 20 21  1  0  0  0  0
 21 22  1  0  0  0  0
 21 23  1  0  0  0  0
  1 24  1  0  0  0  0
 24 25  2  0  0  0  0
 25 26  1  0  0  0  0
 26 27  1  0  0  0  0
 27 28  2  0  0  0  0
 28 29  1  0  0  0  0
 29 30  2  0  0  0  0
 30 31  1  0  0  0  0
 31 32  1  0  0  0  0
 30 33  1  0  0  0  0
 33 34  2  0  0  0  0
 26 35  1  0  0  0  0
 35 36  2  0  0  0  0
 36 37  1  0  0  0  0
 37 38  2  0  0  0  0
 38 39  1  0  0  0  0
 39 40  1  0  0  0  0
 38 41  1  0  0  0  0
 41 42  2  0  0  0  0
 25 43  1  0  0  0  0
 43 44  1  0  0  0  0
 44 45  1  0  0  0  0
 45 46  2  0  0  0  0
 46 47  1  0  0  0  0
 47 48  1  0  0  0  0
 48 49  2  0  0  0  0
 49 50  1  0  0  0  0
 50 51  2  0  0  0  0
 51 52  1  0  0  0  0
 52 53  1  0  0  0  0
 51 54  1  0  0  0  0
 54 55  2  0  0  0  0
 47 56  1  0  0  0  0
 56 57  2  0  0  0  0
 57 58  1  0  0  0  0
 58 59  2  0  0  0  0
 59 60  1  0  0  0  0
 60 61  1  0  0  0  0
 59 62  1  0  0  0  0
 62 63  2  0  0  0  0
 46 64  1  0  0  0  0
 64 65  1  0  0  0  0
 45 66  1  0  0  0  0
 66 67  2  0  0  0  0
 67 68  1  0  0  0  0
 68 69  2  0  0  0  0
 69 70  1  0  0  0  0
 70 71  2  0  0  0  0
 71 72  1  0  0  0  0
 72 73  1  0  0  0  0
 73 74  1  0  0  0  0
 74 75  1  0  0  0  0
 75 76  1  0  0  0  0
 74 77  2  0  0  0  0
 77 78  1  0  0  0  0
 78 79  1  0  0  0  0
 69 80  1  0  0  0  0
 80 81  2  0  0  0  0
 81 82  1  0  0  0  0
 82 83  1  0  0  0  0
 83 84  1  0  0  0  0
 84 85  1  0  0  0  0
 85 86  1  0  0  0  0
 86 87  2  0  0  0  0
 87 88  1  0  0  0  0
 88 89  1  0  0  0  0
 87 90  1  0  0  0  0
 90 91  1  0  0  0  0
 91 92  1  0  0  0  0
 82 93  2  0  0  0  0
 93 94  1  0  0  0  0
 81 95  1  0  0  0  0
 95 96  2  0  0  0  0
 96 97  1  0  0  0  0
 96 98  1  0  0  0  0
 98 99  2  0  0  0  0
 99100  1  0  0  0  0
100101  1  0  0  0  0
101102  2  0  0  0  0
102103  1  0  0  0  0
103104  2  0  0  0  0
104105  1  0  0  0  0
105106  1  0  0  0  0
104107  1  0  0  0  0
107108  2  0  0  0  0
100109  1  0  0  0  0
109110  2  0  0  0  0
110111  1  0  0  0  0
111112  2  0  0  0  0
112113  1  0  0  0  0
113114  1  0  0  0  0
112115  1  0  0  0  0
115116  2  0  0  0  0
 99117  1  0  0  0  0
117118  1  0  0  0  0
118119  1  0  0  0  0
119120  2  0  0  0  0
120121  1  0  0  0  0
121122  1  0  0  0  0
122123  2  0  0  0  0
123124  1  0  0  0  0
124125  2  0  0  0  0
125126  1  0  0  0  0
126127  1  0  0  0  0
125128  1  0  0  0  0
128129  2  0  0  0  0
121130  1  0  0  0  0
130131  2  0  0  0  0
131132  1  0  0  0  0
132133  2  0  0  0  0
133134  1  0  0  0  0
134135  1  0  0  0  0
133136  1  0  0  0  0
136137  2  0  0  0  0
120138  1  0  0  0  0
138139  1  0  0  0  0
119140  1  0  0  0  0
140141  2  0  0  0  0
141142  1  0  0  0  0
142143  2  0  0  0  0
142144  1  0  0  0  0
144145  2  0  0  0  0
145146  1  0  0  0  0
146147  2  0  0  0  0
147148  1  0  0  0  0
148149  2  0  0  0  0
149150  1  0  0  0  0
150151  2  0  0  0  0
151152  1  0  0  0  0
152153  3  0  0  0  0
151154  1  0  0  0  0
154155  3  0  0  0  0
147156  1  0  0  0  0
156157  1  0  0  0  0
157158  1  0  0  0  0
158159  2  0  0  0  0
159160  1  0  0  0  0
160161  1  0  0  0  0
160162  1  0  0  0  0
 11  2  1  0  0  0  0
 23 17  1  0  0  0  0
 65 24  1  0  0  0  0
 94 66  1  0  0  0  0
139 98  1  0  0  0  0
150141  1  0  0  0  0
162156  1  0  0  0  0
 10  5  1  0  0  0  0
 22 18  1  0  0  0  0
 34 27  1  0  0  0  0
 42 35  1  0  0  0  0
 64 43  2  0  0  0  0
 93 68  1  0  0  0  0
108101  1  0  0  0  0
116109  1  0  0  0  0
138117  2  0  0  0  0
149144  1  0  0  0  0
161157  1  0  0  0  0
 23  7  1  0  0  0  0
 55 48  1  0  0  0  0
 63 56  1  0  0  0  0
 79 70  1  0  0  0  0
 97 80  1  0  0  0  0
129122  1  0  0  0  0
137130  1  0  0  0  0
162146  1  0  0  0  0
 78 72  2  0  0  0  0
 92 83  2  0  0  0  0
 91 85  2  0  0  0  0
  1163  1  0  0  0  0
  6164  1  0  0  0  0
  9165  1  0  0  0  0
 17166  1  0  0  0  0
 18167  1  0  0  0  0
 19168  1  0  0  0  0
 20169  1  0  0  0  0
 21170  1  0  0  0  0
 22171  1  0  0  0  0
 22172  1  0  0  0  0
 23173  1  0  0  0  0
 28174  1  0  0  0  0
 29175  1  0  0  0  0
 32176  1  0  0  0  0
 32177  1  0  0  0  0
 32178  1  0  0  0  0
 33179  1  0  0  0  0
 34180  1  0  0  0  0
 36181  1  0  0  0  0
 37182  1  0  0  0  0
 40183  1  0  0  0  0
 40184  1  0  0  0  0
 40185  1  0  0  0  0
 41186  1  0  0  0  0
 42187  1  0  0  0  0
 49188  1  0  0  0  0
 50189  1  0  0  0  0
 53190  1  0  0  0  0
 53191  1  0  0  0  0
 53192  1  0  0  0  0
 54193  1  0  0  0  0
 55194  1  0  0  0  0
 57195  1  0  0  0  0
 58196  1  0  0  0  0
 61197  1  0  0  0  0
 61198  1  0  0  0  0
 61199  1  0  0  0  0
 62200  1  0  0  0  0
 63201  1  0  0  0  0
 67202  1  0  0  0  0
 71203  1  0  0  0  0
 75204  1  0  0  0  0
 75205  1  0  0  0  0
 76206  1  0  0  0  0
 76207  1  0  0  0  0
 76208  1  0  0  0  0
 77209  1  0  0  0  0
 86210  1  0  0  0  0
 88211  1  0  0  0  0
 88212  1  0  0  0  0
 89213  1  0  0  0  0
 89214  1  0  0  0  0
 89215  1  0  0  0  0
 92216  1  0  0  0  0
 95217  1  0  0  0  0
102218  1  0  0  0  0
103219  1  0  0  0  0
106220  1  0  0  0  0
106221  1  0  0  0  0
106222  1  0  0  0  0
107223  1  0  0  0  0
108224  1  0  0  0  0
110225  1  0  0  0  0
111226  1  0  0  0  0
114227  1  0  0  0  0
114228  1  0  0  0  0
114229  1  0  0  0  0
115230  1  0  0  0  0
116231  1  0  0  0  0
123232  1  0  0  0  0
124233  1  0  0  0  0
127234  1  0  0  0  0
127235  1  0  0  0  0
127236  1  0  0  0  0
128237  1  0  0  0  0
129238  1  0  0  0  0
131239  1  0  0  0  0
132240  1  0  0  0  0
135241  1  0  0  0  0
135242  1  0  0  0  0
135243  1  0  0  0  0
136244  1  0  0  0  0
137245  1  0  0  0  0
140246  1  0  0  0  0
145247  1  0  0  0  0
148248  1  0  0  0  0
156249  1  0  0  0  0
157250  1  0  0  0  0
158251  1  0  0  0  0
159252  1  0  0  0  0
160253  1  0  0  0  0
161254  1  0  0  0  0
161255  1  0  0  0  0
162256  1  0  0  0  0
M  END
