232

C         -2.29990        6.09980        7.03350
C         -2.48050        7.16510        6.21120
C         -2.65550        7.05790        4.73950
O         -3.05910        6.10580        4.10590
C         -2.18640        8.34430        4.19890
C         -1.99580        8.66310        2.85630
C         -1.51020        9.93150        2.64980
C         -1.23960       10.82380        3.69770
C         -1.43230       10.52580        5.02600
C         -1.91670        9.23550        5.25990
C         -2.20340        8.55850        6.51740
C         -2.29160        9.12240        7.76040
C         -2.70800        8.39790        8.89760
N         -3.07710        7.85140        9.83730
C         -2.05140       10.48360        8.03670
N         -1.85750       11.57990        8.31590
C         -0.74860       11.89830        2.76010
C          0.78240       12.10440        2.64390
C          1.42170       10.78180        2.99000
C          1.16210        9.93540        2.00260
C          0.34550       10.67110        0.96950
C          0.93230       12.08410        1.11410
C         -1.05180       10.90420        1.59490
C         -2.41010        4.72960        6.58870
C         -3.49840        4.20300        5.86640
O         -4.75740        4.69170        5.94270
C         -5.11620        5.75830        6.78960
C         -6.60300        5.62680        7.08740
C         -3.31300        3.02900        5.09600
O         -4.22220        2.41840        4.30260
C         -5.51790        2.93210        4.03470
C         -5.51630        4.15720        3.12990
C         -2.06860        2.37860        5.14930
C         -1.09670        2.78670        6.07030
C         -1.26340        3.94280        6.78060
C         -1.72170        1.29550        4.24130
C         -1.82280        1.24220        2.87290
N         -2.53950        2.09670        2.00880
C         -1.86030        3.21860        1.49010
C         -1.65570        3.37760        0.12210
C         -1.02830        4.50480       -0.37530
C         -0.55260        5.47340        0.49730
S          0.24900        6.96150       -0.01840
C          0.48020        6.74190       -1.80390
C         -0.69800        5.28780        1.87020
C         -1.34690        4.17680        2.36210
C         -3.70400        1.57750        1.46810
C         -4.43810        2.24490        0.48160
C         -5.62060        1.71910        0.00050
C         -6.11480        0.52330        0.49850
S         -7.62420       -0.15780       -0.16060
C         -8.59610       -0.32340        1.37120
C         -5.41110       -0.13790        1.49290
C         -4.22930        0.38040        1.97090
C         -1.14940        0.10960        2.35180
S         -0.77240       -0.40270        0.75400
C          0.07980       -1.81840        1.38300
C          0.06090       -1.87170        2.76560
N          0.58960       -2.85840        3.57550
C         -0.03550       -3.08580        4.81690
C          0.72120       -3.28610        5.97170
C          0.09860       -3.49780        7.18060
C         -1.29280       -3.50700        7.27150
S         -1.97510       -3.78880        8.87390
C         -3.75660       -3.53050        8.63910
C         -2.04970       -3.30460        6.12660
C         -1.42370       -3.09520        4.91340
C          1.75570       -3.56130        3.25710
C          1.91590       -4.87140        3.70360
C          3.08100       -5.56890        3.46010
C          4.10730       -4.97470        2.73710
S          5.61960       -5.78430        2.32240
C          5.56330       -7.33110        3.26960
C          3.94560       -3.67110        2.27130
C          2.79080       -2.96710        2.53510
C         -0.61560       -0.73870        3.30010
S         -0.85160       -0.08660        4.88770
C          0.76770       -2.58310        0.37870
C          0.71990       -3.91940        0.02970
N         -0.01460       -4.88480        0.70460
C         -1.31100       -4.57040        1.13330
C         -1.83370       -5.13010        2.29790
C         -3.13420       -4.86520        2.67530
C         -3.92870       -4.01630        1.91270
S         -5.60160       -3.73430        2.42600
C         -6.47570       -3.71480        0.82760
C         -3.39850       -3.41160        0.78130
C         -2.10790       -3.69940        0.38910
C          0.48880       -6.18870        0.77210
C          1.86880       -6.39970        0.77770
C          2.38290       -7.67450        0.83170
C          1.53670       -8.77720        0.90180
S          2.31230      -10.35900        1.03280
C          0.95230      -11.53260        0.77600
C          0.16340       -8.57670        0.88440
C         -0.35280       -7.29770        0.80540
C          1.44810       -4.16030       -1.16440
S          1.74280       -5.56290       -2.12300
C          2.58080       -4.59050       -3.34480
C          2.70340       -3.24490       -2.95000
N          3.43670       -2.25930       -3.55250
C          4.53490       -2.49110       -4.38490
C          4.74540       -1.65750       -5.48670
C          5.77790       -1.90820       -6.36070
C          6.63330       -2.99090       -6.15670
S          7.85500       -3.26450       -7.39260
C          8.77940       -4.70960       -6.80290
C          6.46880       -3.78140       -5.02460
C          5.42960       -3.53330       -4.15050
C          3.07860       -0.91940       -3.27850
C          4.02690       -0.04250       -2.76030
C          3.64200        1.22270       -2.36400
C          2.31630        1.60990       -2.48870
S          1.78950        3.16910       -1.79990
C          1.81900        2.66360       -0.05270
C          1.38850        0.77360       -3.08730
C          1.76890       -0.49390       -3.48310
C          2.01980       -3.03010       -1.72880
S          1.70390       -1.63150       -0.76650
C          3.02480       -5.26070       -4.48980
C          3.27840       -4.67750       -5.71140
C          2.62650       -3.44650       -6.18840
O          1.80930       -2.76610       -5.59440
C          3.06290       -3.27760       -7.58910
C          2.72590       -2.24110       -8.45430
C          3.32050       -2.32880       -9.69080
C          4.17950       -3.37570      -10.04600
C          4.51340       -4.41040       -9.20440
C          3.92270       -4.33610       -7.94110
C          4.07510       -5.21080       -6.78160
C          4.95900       -6.25670       -6.67190
C          5.78650       -6.72120       -7.71030
N          6.50130       -7.15180       -8.50080
C          5.21770       -6.94500       -5.47020
N          5.52580       -7.51220       -4.51950
C          4.40640       -2.82740      -11.43310
C          3.64300       -3.51800      -12.58270
C          3.67330       -2.50070      -13.70040
C          2.86110       -1.50700      -13.36380
C          2.26790       -1.83620      -12.01290
C          2.18660       -3.36400      -12.12550
C          3.44950       -1.65760      -11.03620
H         -1.85140        6.25880        8.00780
H         -2.20870        7.94770        2.07780
H         -1.21410       11.21450        5.82590
H         -1.29420       12.83940        2.78510
H          1.16120       12.97480        3.17310
H          1.93250       10.58940        3.91560
H          1.40680        8.89270        1.92840
H          0.32660       10.22790       -0.02180
H          0.34690       12.85220        0.61050
H          1.97100       12.14320        0.79310
H         -1.79500       11.19460        0.85530
H         -4.53300        5.72940        7.72050
H         -4.91780        6.71850        6.29190
H         -6.80300        4.68610        7.59380
H         -6.92020        6.44660        7.72490
H         -7.17060        5.65330        6.16110
H         -6.04890        3.13870        4.96720
H         -6.00990        2.09650        3.52580
H         -5.14030        3.89440        2.14600
H         -6.53220        4.53070        3.03130
H         -4.88670        4.94000        3.53960
H         -0.18570        2.21550        6.15830
H         -0.47760        4.31370        7.42020
H         -1.98230        2.60940       -0.56300
H         -0.89870        4.60210       -1.44050
H         -0.48240        6.74450       -2.30710
H          1.02390        5.82080       -1.99320
H          1.06850        7.59410       -2.12990
H         -0.30800        6.03240        2.54820
H         -1.47190        4.05810        3.42540
H         -4.09490        3.19270        0.09680
H         -6.17150        2.24300       -0.76580
H         -8.67140        0.64830        1.85050
H         -9.57940       -0.67180        1.07280
H         -8.13150       -1.04400        2.03720
H         -5.78530       -1.05680        1.91630
H         -3.72470       -0.14920        2.76230
H          1.79910       -3.26700        5.91480
H          0.68300       -3.64790        8.07520
H         -4.19670       -3.61720        9.62770
H         -3.93420       -2.53610        8.24040
H         -4.16470       -4.29720        7.98700
H         -3.12710       -3.30900        6.15640
H         -2.02310       -2.94120        4.02920
H          1.11950       -5.34650        4.25650
H          3.16670       -6.57970        3.82320
H          5.44620       -7.10960        4.32630
H          4.76220       -7.96960        2.90800
H          6.52120       -7.81190        3.09630
H          4.74560       -3.21130        1.71090
H          2.69960       -1.94400        2.20360
H         -1.21910       -5.78310        2.89870
H         -3.54250       -5.31390        3.56800
H         -6.35260       -2.76060        0.32310
H         -7.52470       -3.87420        1.05740
H         -6.10110       -4.52760        0.21360
H         -3.99040       -2.72590        0.19530
H         -1.71940       -3.25490       -0.51480
H          2.54000       -5.55730        0.74100
H          3.45070       -7.82770        0.81450
H          0.25730      -11.49250        1.60990
H          0.45540      -11.31510       -0.16470
H          1.41600      -12.51310        0.73190
H         -0.52130       -9.40880        0.92110
H         -1.42320       -7.16370        0.76420
H          4.07430       -0.83040       -5.66180
H          5.92240       -1.28320       -7.22830
H          8.12880       -5.57750       -6.75100
H          9.55120       -4.88020       -7.54690
H          9.23410       -4.49280       -5.84090
H          7.13340       -4.60430       -4.81610
H          5.31080       -4.16310       -3.28170
H          5.05000       -0.36800       -2.64320
H          4.36270        1.90230       -1.93470
H          1.53690        3.53010        0.53580
H          1.09990        1.86190        0.09400
H          2.82020        2.33500        0.20980
H          0.37070        1.10740       -3.21560
H          1.06580       -1.17180       -3.94110
H          3.14270       -6.33320       -4.38900
H          2.06470       -1.44820       -8.14040
H          5.17530       -5.21090       -9.49030
H          5.43860       -2.59320      -11.68600
H          3.99000       -4.51930      -12.82260
H          4.30440       -2.57920      -14.56620
H          2.67820       -0.58950      -13.89200
H          1.36140       -1.30530      -11.73400
H          1.47910       -3.68350      -12.88910
H          1.96100       -3.86610      -11.18650
H          3.84450       -0.64320      -11.02630
