
  xtb     02062215423D
 energy: -247.618141100192 gnorm: 0.000892474618 xtb: 6.4.1 (unknown)
135151  0     0  0            999 V2000
    4.7236    3.3775   -0.9969 C   0  0  0  0  0  0  0  0  0  0  0  0
    5.7246    2.7048   -1.6486 C   0  0  0  0  0  0  0  0  0  0  0  0
    5.8228    1.2332   -1.7120 C   0  0  0  0  0  0  0  0  0  0  0  0
    5.1330    0.4166   -1.1273 O   0  0  0  0  0  0  0  0  0  0  0  0
    7.0468    0.9392   -2.4778 C   0  0  0  0  0  0  0  0  0  0  0  0
    7.5192   -0.3157   -2.8563 C   0  0  0  0  0  0  0  0  0  0  0  0
    8.6974   -0.2784   -3.5629 C   0  0  0  0  0  0  0  0  0  0  0  0
    9.3683    0.9163   -3.8534 C   0  0  0  0  0  0  0  0  0  0  0  0
    8.9182    2.1599   -3.4766 C   0  0  0  0  0  0  0  0  0  0  0  0
    7.7114    2.1469   -2.7715 C   0  0  0  0  0  0  0  0  0  0  0  0
    6.9168    3.2571   -2.2451 C   0  0  0  0  0  0  0  0  0  0  0  0
    7.2230    4.5897   -2.3701 C   0  0  0  0  0  0  0  0  0  0  0  0
    8.3958    5.0881   -2.9710 C   0  0  0  0  0  0  0  0  0  0  0  0
    9.3294    5.5643   -3.4415 N   0  0  0  0  0  0  0  0  0  0  0  0
    6.4101    5.6516   -1.9233 C   0  0  0  0  0  0  0  0  0  0  0  0
    5.8050    6.5761   -1.6086 N   0  0  0  0  0  0  0  0  0  0  0  0
   10.4755    0.2083   -4.5947 C   0  0  0  0  0  0  0  0  0  0  0  0
   10.4193    0.2721   -6.1357 C   0  0  0  0  0  0  0  0  0  0  0  0
   11.3020   -0.8723   -6.5785 C   0  0  0  0  0  0  0  0  0  0  0  0
   10.6626   -2.0031   -6.3078 C   0  0  0  0  0  0  0  0  0  0  0  0
    9.3373   -1.6418   -5.6767 C   0  0  0  0  0  0  0  0  0  0  0  0
    9.0390   -0.3338   -6.4210 C   0  0  0  0  0  0  0  0  0  0  0  0
    9.7242   -1.1238   -4.2750 C   0  0  0  0  0  0  0  0  0  0  0  0
    3.4550    2.8307   -0.7060 C   0  0  0  0  0  0  0  0  0  0  0  0
    2.6699    3.3099    0.3670 C   0  0  0  0  0  0  0  0  0  0  0  0
    1.4080    2.7093    0.7284 C   0  0  0  0  0  0  0  0  0  0  0  0
    0.8668    3.2993    1.7918 N   0  0  0  0  0  0  0  0  0  0  0  0
    1.8397    4.4826    2.2935 S   0  0  0  0  0  4  0  0  0  0  0  0
    2.9964    4.3020    1.1939 N   0  0  0  0  0  0  0  0  0  0  0  0
    0.8565    1.5894    0.0537 C   0  0  0  0  0  0  0  0  0  0  0  0
    1.5476    1.2442   -1.1320 C   0  0  0  0  0  0  0  0  0  0  0  0
    1.1086    0.4107   -2.0759 N   0  0  0  0  0  0  0  0  0  0  0  0
    2.1639    0.3881   -3.2888 S   0  0  0  0  0  0  0  0  0  0  0  0
    3.2259    1.4316   -2.6910 N   0  0  0  0  0  0  0  0  0  0  0  0
    2.8122    1.8478   -1.4977 C   0  0  0  0  0  0  0  0  0  0  0  0
   -0.3056    0.9674    0.5595 C   0  0  0  0  0  0  0  0  0  0  0  0
   -0.9024   -0.2801    0.2826 C   0  0  0  0  0  0  0  0  0  0  0  0
   -0.4009   -1.3283   -0.4470 N   0  0  0  0  0  0  0  0  0  0  0  0
    0.9431   -1.6699   -0.5408 C   0  0  0  0  0  0  0  0  0  0  0  0
    1.3810   -2.4401   -1.6251 C   0  0  0  0  0  0  0  0  0  0  0  0
    2.7038   -2.7889   -1.7423 C   0  0  0  0  0  0  0  0  0  0  0  0
    3.6332   -2.3936   -0.7770 C   0  0  0  0  0  0  0  0  0  0  0  0
    5.2889   -2.9071   -1.0305 S   0  0  0  0  0  0  0  0  0  0  0  0
    6.2117   -2.1214    0.3161 C   0  0  0  0  0  0  0  0  0  0  0  0
    3.1991   -1.6551    0.3181 C   0  0  0  0  0  0  0  0  0  0  0  0
    1.8707   -1.3045    0.4358 C   0  0  0  0  0  0  0  0  0  0  0  0
   -1.3628   -2.1927   -1.0193 C   0  0  0  0  0  0  0  0  0  0  0  0
   -1.3802   -3.5461   -0.7002 C   0  0  0  0  0  0  0  0  0  0  0  0
   -2.4014   -4.3567   -1.1543 C   0  0  0  0  0  0  0  0  0  0  0  0
   -3.4182   -3.8214   -1.9354 C   0  0  0  0  0  0  0  0  0  0  0  0
   -4.8141   -4.7407   -2.4903 S   0  0  0  0  0  0  0  0  0  0  0  0
   -4.7429   -6.2674   -1.5103 C   0  0  0  0  0  0  0  0  0  0  0  0
   -3.3619   -2.4813   -2.3155 C   0  0  0  0  0  0  0  0  0  0  0  0
   -2.3453   -1.6724   -1.8606 C   0  0  0  0  0  0  0  0  0  0  0  0
   -2.1484   -0.3893    0.9475 C   0  0  0  0  0  0  0  0  0  0  0  0
   -3.3968   -1.5908    0.9633 S   0  0  0  0  0  0  0  0  0  0  0  0
   -4.3269   -0.6562    2.1257 C   0  0  0  0  0  0  0  0  0  0  0  0
   -3.7292    0.5875    2.3979 C   0  0  0  0  0  0  0  0  0  0  0  0
   -4.2590    1.6469    3.0947 N   0  0  0  0  0  0  0  0  0  0  0  0
   -3.3341    2.5368    3.6814 C   0  0  0  0  0  0  0  0  0  0  0  0
   -3.3618    3.8929    3.3762 C   0  0  0  0  0  0  0  0  0  0  0  0
   -2.3812    4.7374    3.8575 C   0  0  0  0  0  0  0  0  0  0  0  0
   -1.3606    4.2338    4.6543 C   0  0  0  0  0  0  0  0  0  0  0  0
   -0.0179    5.1989    5.2610 S   0  0  0  0  0  0  0  0  0  0  0  0
   -0.1880    6.7808    4.3874 C   0  0  0  0  0  0  0  0  0  0  0  0
   -1.3670    2.8862    5.0114 C   0  0  0  0  0  0  0  0  0  0  0  0
   -2.3425    2.0439    4.5287 C   0  0  0  0  0  0  0  0  0  0  0  0
   -5.6168    1.9414    3.1391 C   0  0  0  0  0  0  0  0  0  0  0  0
   -6.1339    2.6599    4.2181 C   0  0  0  0  0  0  0  0  0  0  0  0
   -7.4879    2.8961    4.3277 C   0  0  0  0  0  0  0  0  0  0  0  0
   -8.3592    2.4290    3.3496 C   0  0  0  0  0  0  0  0  0  0  0  0
  -10.1076    2.6123    3.4096 S   0  0  0  0  0  0  0  0  0  0  0  0
  -10.4224    3.2172    5.0918 C   0  0  0  0  0  0  0  0  0  0  0  0
   -7.8384    1.7763    2.2312 C   0  0  0  0  0  0  0  0  0  0  0  0
   -6.4878    1.5435    2.1207 C   0  0  0  0  0  0  0  0  0  0  0  0
   -2.4790    0.6924    1.7446 C   0  0  0  0  0  0  0  0  0  0  0  0
   -1.2360    1.9004    1.7271 S   0  0  0  0  0  0  0  0  0  0  0  0
   -5.5057   -1.2675    2.6198 C   0  0  0  0  0  0  0  0  0  0  0  0
   -6.1163   -2.3125    1.8842 C   0  0  0  0  0  0  0  0  0  0  0  0
   -7.3491   -2.9529    2.2801 C   0  0  0  0  0  0  0  0  0  0  0  0
   -7.7697   -3.8133    1.3538 N   0  0  0  0  0  0  0  0  0  0  0  0
   -6.7177   -3.8636    0.1479 S   0  0  0  0  0  4  0  0  0  0  0  0
   -5.6774   -2.7754    0.7130 N   0  0  0  0  0  0  0  0  0  0  0  0
   -8.0135   -2.6320    3.4814 C   0  0  0  0  0  0  0  0  0  0  0  0
   -7.3953   -1.6088    4.2335 C   0  0  0  0  0  0  0  0  0  0  0  0
   -7.8163   -1.1781    5.4230 N   0  0  0  0  0  0  0  0  0  0  0  0
   -6.7676   -0.1023    5.9946 S   0  0  0  0  0  0  0  0  0  0  0  0
   -5.7309   -0.1106    4.7675 N   0  0  0  0  0  0  0  0  0  0  0  0
   -6.1618   -0.9599    3.8334 C   0  0  0  0  0  0  0  0  0  0  0  0
   -9.1975   -3.2551    3.9541 C   0  0  0  0  0  0  0  0  0  0  0  0
   -9.6660   -4.4953    3.6271 C   0  0  0  0  0  0  0  0  0  0  0  0
   -8.9892   -5.4864    2.8860 C   0  0  0  0  0  0  0  0  0  0  0  0
   -8.4785   -6.3909    2.3952 N   0  0  0  0  0  0  0  0  0  0  0  0
  -10.8930   -4.9416    4.1657 C   0  0  0  0  0  0  0  0  0  0  0  0
  -11.8947   -5.2976    4.5980 N   0  0  0  0  0  0  0  0  0  0  0  0
    4.8865    4.3881   -0.6453 H   0  0  0  0  0  0  0  0  0  0  0  0
    6.9739   -1.2145   -2.6125 H   0  0  0  0  0  0  0  0  0  0  0  0
    9.4495    3.0691   -3.7030 H   0  0  0  0  0  0  0  0  0  0  0  0
   11.4796    0.3484   -4.1987 H   0  0  0  0  0  0  0  0  0  0  0  0
   10.6354    1.2494   -6.5586 H   0  0  0  0  0  0  0  0  0  0  0  0
   12.2910   -0.7472   -6.9787 H   0  0  0  0  0  0  0  0  0  0  0  0
   11.0109   -3.0112   -6.4367 H   0  0  0  0  0  0  0  0  0  0  0  0
    8.5671   -2.4086   -5.6819 H   0  0  0  0  0  0  0  0  0  0  0  0
    8.2099    0.2348   -6.0043 H   0  0  0  0  0  0  0  0  0  0  0  0
    8.8722   -0.4944   -7.4849 H   0  0  0  0  0  0  0  0  0  0  0  0
   10.2283   -1.8746   -3.6689 H   0  0  0  0  0  0  0  0  0  0  0  0
    0.6769   -2.7266   -2.3907 H   0  0  0  0  0  0  0  0  0  0  0  0
    3.0420   -3.3672   -2.5886 H   0  0  0  0  0  0  0  0  0  0  0  0
    5.8988   -2.5309    1.2723 H   0  0  0  0  0  0  0  0  0  0  0  0
    6.0500   -1.0487    0.2615 H   0  0  0  0  0  0  0  0  0  0  0  0
    7.2572   -2.3542    0.1385 H   0  0  0  0  0  0  0  0  0  0  0  0
    3.8880   -1.3441    1.0854 H   0  0  0  0  0  0  0  0  0  0  0  0
    1.5478   -0.7470    1.3021 H   0  0  0  0  0  0  0  0  0  0  0  0
   -0.6044   -3.9554   -0.0702 H   0  0  0  0  0  0  0  0  0  0  0  0
   -2.4023   -5.3981   -0.8773 H   0  0  0  0  0  0  0  0  0  0  0  0
   -3.9219   -6.8938   -1.8468 H   0  0  0  0  0  0  0  0  0  0  0  0
   -4.6481   -6.0210   -0.4570 H   0  0  0  0  0  0  0  0  0  0  0  0
   -5.6861   -6.7754   -1.6863 H   0  0  0  0  0  0  0  0  0  0  0  0
   -4.1363   -2.0835   -2.9523 H   0  0  0  0  0  0  0  0  0  0  0  0
   -2.3081   -0.6282   -2.1313 H   0  0  0  0  0  0  0  0  0  0  0  0
   -4.1406    4.2793    2.7354 H   0  0  0  0  0  0  0  0  0  0  0  0
   -2.4151    5.7803    3.5884 H   0  0  0  0  0  0  0  0  0  0  0  0
    0.6963    7.3549    4.6457 H   0  0  0  0  0  0  0  0  0  0  0  0
   -1.0760    7.3053    4.7279 H   0  0  0  0  0  0  0  0  0  0  0  0
   -0.2157    6.6055    3.3161 H   0  0  0  0  0  0  0  0  0  0  0  0
   -0.5880    2.5108    5.6564 H   0  0  0  0  0  0  0  0  0  0  0  0
   -2.3420    0.9957    4.7860 H   0  0  0  0  0  0  0  0  0  0  0  0
   -5.4684    2.9935    4.9994 H   0  0  0  0  0  0  0  0  0  0  0  0
   -7.8541    3.4349    5.1864 H   0  0  0  0  0  0  0  0  0  0  0  0
  -11.5026    3.2312    5.1988 H   0  0  0  0  0  0  0  0  0  0  0  0
   -9.9880    2.5322    5.8141 H   0  0  0  0  0  0  0  0  0  0  0  0
  -10.0296    4.2227    5.2112 H   0  0  0  0  0  0  0  0  0  0  0  0
   -8.5126    1.4516    1.4535 H   0  0  0  0  0  0  0  0  0  0  0  0
   -6.1023    1.0446    1.2450 H   0  0  0  0  0  0  0  0  0  0  0  0
   -9.7533   -2.6897    4.6925 H   0  0  0  0  0  0  0  0  0  0  0  0
  1  2  2  0  0  0  0
  2  3  1  0  0  0  0
  3  4  2  0  0  0  0
  3  5  1  0  0  0  0
  5  6  2  0  0  0  0
  6  7  1  0  0  0  0
  7  8  2  0  0  0  0
  8  9  1  0  0  0  0
  9 10  2  0  0  0  0
 10 11  1  0  0  0  0
 11 12  2  0  0  0  0
 12 13  1  0  0  0  0
 13 14  3  0  0  0  0
 12 15  1  0  0  0  0
 15 16  3  0  0  0  0
  8 17  1  0  0  0  0
 17 18  1  0  0  0  0
 18 19  1  0  0  0  0
 19 20  2  0  0  0  0
 20 21  1  0  0  0  0
 21 22  1  0  0  0  0
 21 23  1  0  0  0  0
  1 24  1  0  0  0  0
 24 25  2  0  0  0  0
 25 26  1  0  0  0  0
 26 27  1  0  0  0  0
 27 28  2  0  0  0  0
 28 29  2  0  0  0  0
 26 30  2  0  0  0  0
 30 31  1  0  0  0  0
 31 32  2  0  0  0  0
 32 33  1  0  0  0  0
 33 34  1  0  0  0  0
 34 35  2  0  0  0  0
 30 36  1  0  0  0  0
 36 37  2  0  0  0  0
 37 38  1  0  0  0  0
 38 39  1  0  0  0  0
 39 40  2  0  0  0  0
 40 41  1  0  0  0  0
 41 42  2  0  0  0  0
 42 43  1  0  0  0  0
 43 44  1  0  0  0  0
 42 45  1  0  0  0  0
 45 46  2  0  0  0  0
 38 47  1  0  0  0  0
 47 48  2  0  0  0  0
 48 49  1  0  0  0  0
 49 50  2  0  0  0  0
 50 51  1  0  0  0  0
 51 52  1  0  0  0  0
 50 53  1  0  0  0  0
 53 54  2  0  0  0  0
 37 55  1  0  0  0  0
 55 56  1  0  0  0  0
 56 57  1  0  0  0  0
 57 58  2  0  0  0  0
 58 59  1  0  0  0  0
 59 60  1  0  0  0  0
 60 61  2  0  0  0  0
 61 62  1  0  0  0  0
 62 63  2  0  0  0  0
 63 64  1  0  0  0  0
 64 65  1  0  0  0  0
 63 66  1  0  0  0  0
 66 67  2  0  0  0  0
 59 68  1  0  0  0  0
 68 69  2  0  0  0  0
 69 70  1  0  0  0  0
 70 71  2  0  0  0  0
 71 72  1  0  0  0  0
 72 73  1  0  0  0  0
 71 74  1  0  0  0  0
 74 75  2  0  0  0  0
 58 76  1  0  0  0  0
 76 77  1  0  0  0  0
 57 78  1  0  0  0  0
 78 79  2  0  0  0  0
 79 80  1  0  0  0  0
 80 81  1  0  0  0  0
 81 82  2  0  0  0  0
 82 83  2  0  0  0  0
 80 84  2  0  0  0  0
 84 85  1  0  0  0  0
 85 86  2  0  0  0  0
 86 87  1  0  0  0  0
 87 88  1  0  0  0  0
 88 89  2  0  0  0  0
 84 90  1  0  0  0  0
 90 91  2  0  0  0  0
 91 92  1  0  0  0  0
 92 93  3  0  0  0  0
 91 94  1  0  0  0  0
 94 95  3  0  0  0  0
 11  2  1  0  0  0  0
 23 17  1  0  0  0  0
 35 24  1  0  0  0  0
 77 36  1  0  0  0  0
 89 78  1  0  0  0  0
 10  5  1  0  0  0  0
 22 18  1  0  0  0  0
 29 25  1  0  0  0  0
 35 31  1  0  0  0  0
 46 39  1  0  0  0  0
 54 47  1  0  0  0  0
 76 55  2  0  0  0  0
 83 79  1  0  0  0  0
 89 85  1  0  0  0  0
 23  7  1  0  0  0  0
 67 60  1  0  0  0  0
 75 68  1  0  0  0  0
  1 96  1  0  0  0  0
  6 97  1  0  0  0  0
  9 98  1  0  0  0  0
 17 99  1  0  0  0  0
 18100  1  0  0  0  0
 19101  1  0  0  0  0
 20102  1  0  0  0  0
 21103  1  0  0  0  0
 22104  1  0  0  0  0
 22105  1  0  0  0  0
 23106  1  0  0  0  0
 40107  1  0  0  0  0
 41108  1  0  0  0  0
 44109  1  0  0  0  0
 44110  1  0  0  0  0
 44111  1  0  0  0  0
 45112  1  0  0  0  0
 46113  1  0  0  0  0
 48114  1  0  0  0  0
 49115  1  0  0  0  0
 52116  1  0  0  0  0
 52117  1  0  0  0  0
 52118  1  0  0  0  0
 53119  1  0  0  0  0
 54120  1  0  0  0  0
 61121  1  0  0  0  0
 62122  1  0  0  0  0
 65123  1  0  0  0  0
 65124  1  0  0  0  0
 65125  1  0  0  0  0
 66126  1  0  0  0  0
 67127  1  0  0  0  0
 69128  1  0  0  0  0
 70129  1  0  0  0  0
 73130  1  0  0  0  0
 73131  1  0  0  0  0
 73132  1  0  0  0  0
 74133  1  0  0  0  0
 75134  1  0  0  0  0
 90135  1  0  0  0  0
M  END
