211

C          8.93270       -0.52230        2.04650
C          9.36550        0.57000        2.76320
C          8.49570        1.46820        3.51770
O          7.28940        1.35450        3.69090
C          9.35140        2.54770        4.03200
C          8.95250        3.66030        4.76710
C          9.96840        4.54530        5.03570
C         11.28620        4.33460        4.61120
C         11.69690        3.22920        3.90260
C         10.67910        2.31620        3.61760
C         10.72280        1.05390        2.87630
C         11.86060        0.46100        2.38890
C         11.91100       -0.75610        1.67860
N         12.04330       -1.73570        1.09320
C         13.16120        0.98140        2.54640
N         14.24830        1.34340        2.63070
C         11.77230        5.62800        5.21640
C         12.55640        5.55370        6.54940
C         12.09470        4.29930        7.24860
C         10.84670        4.49680        7.65190
C         10.44180        5.88850        7.23290
C         11.79150        6.61280        7.35950
C         10.30290        5.86130        5.69080
C          7.63040       -0.92670        1.75800
S          6.12850       -0.14410        2.22840
C          5.16770       -1.15290        1.18080
C          5.96660       -2.14050        0.56890
C          5.75810       -3.26110       -0.26860
C          6.92440       -3.90880       -0.55910
C          7.12530       -5.13590       -1.32920
O          8.20970       -5.59440       -1.59460
O          5.95850       -5.68920       -1.69610
C          6.04090       -6.95490       -2.35740
C          6.26830       -8.08790       -1.36750
S          8.33950       -3.17360        0.15910
C          7.33020       -1.99160        0.90340
C          3.78880       -0.94920        0.98140
C          2.86830       -0.14570        1.66750
N          3.11500        0.74970        2.69570
C          2.19330        0.71000        3.76590
C          2.01510       -0.48730        4.45420
C          1.12210       -0.55580        5.49920
C          0.37600        0.56360        5.86510
S         -0.75790        0.33840        7.19620
C         -1.48440        1.98230        7.44460
C          0.55100        1.75800        5.17780
C          1.45680        1.82930        4.13760
C          4.01640        1.80400        2.59480
C          4.56530        2.17500        1.36630
C          5.49590        3.19240        1.28940
C          5.88630        3.86600        2.43600
S          7.11030        5.14660        2.41080
C          8.27740        4.50680        1.17210
C          5.30310        3.53780        3.65530
C          4.39260        2.51180        3.73910
C          1.55560       -0.34410        1.17570
S          0.01690        0.31770        1.60980
C         -0.73010       -0.50950        0.25550
C          0.18620       -1.18710       -0.53610
N         -0.15690       -1.72860       -1.76200
C         -0.95030       -0.96910       -2.64550
C         -1.67200       -1.60990       -3.64950
C         -2.48370       -0.88950       -4.50510
C         -2.56830        0.49140       -4.39310
S         -3.54570        1.50440       -5.46600
C         -4.97160        0.45100       -5.85920
C         -1.79510        1.14090       -3.43650
C         -1.00060        0.42230       -2.57270
C          0.70790       -2.67790       -2.38470
C          0.39360       -4.03150       -2.36600
C          1.21530       -4.93790       -3.00200
C          2.35930       -4.50610       -3.67100
S          3.31700       -5.74820       -4.47320
C          4.80350       -4.86760       -5.02870
C          2.66260       -3.15200       -3.70790
C          1.83340       -2.24590       -3.07410
C          1.47340       -1.14330        0.04490
S          3.01030       -1.81810       -0.34910
C         -2.15030       -0.56220        0.05580
C         -2.86470       -1.74670       -0.03150
N         -2.31250       -2.98850        0.24070
C         -2.74770       -4.13030       -0.43630
C         -2.71710       -5.37960        0.18320
C         -3.12950       -6.50500       -0.50290
C         -3.58780       -6.40790       -1.80670
C         -3.63330       -5.16810       -2.42060
C         -3.21630       -4.03650       -1.74660
C         -1.41150       -3.09550        1.31990
C         -1.68480       -2.44510        2.52070
C         -0.81320       -2.55470        3.58630
C          0.34250       -3.30800        3.46700
C          0.62350       -3.94850        2.27220
C         -0.24670       -3.84880        1.20350
C         -4.21980       -1.49760       -0.34360
S         -5.60080       -2.51100       -0.52550
C         -6.61140       -1.10240       -0.87840
C         -5.90180        0.10710       -0.72890
N         -6.44820        1.35560       -0.70070
C         -5.66230        2.49560       -0.98480
C         -5.73140        3.59540       -0.13500
C         -5.00710        4.73540       -0.42710
C         -4.22540        4.79090       -1.56970
C         -4.16470        3.69800       -2.41800
C         -4.87040        2.54640       -2.12560
C         -7.80090        1.57870       -0.39580
C         -8.53120        2.49980       -1.14370
C         -9.87160        2.70660       -0.87070
C        -10.49130        2.01200        0.15340
C         -9.75700        1.12190        0.92340
C         -8.42100        0.90290        0.65350
C         -4.53510       -0.15010       -0.46590
S         -3.15580        0.85530       -0.16290
C         -7.94070       -1.35200       -1.23860
C         -8.71630       -0.53880       -2.03430
C         -8.15750        0.38590       -3.02940
O         -6.97920        0.60940       -3.25100
C         -9.30610        0.88260       -3.81040
C         -9.27180        1.77470       -4.87840
C        -10.50780        2.05910       -5.40930
C        -11.69030        1.49190       -4.91930
C        -11.73710        0.60790       -3.86620
C        -10.49150        0.30990       -3.30980
C        -10.14520       -0.55720       -2.18470
C        -11.02980       -1.16080       -1.32550
C        -10.63880       -1.87470       -0.17560
N        -10.39000       -2.44230        0.79180
C        -12.43020       -1.09100       -1.44380
N        -13.57810       -1.06430       -1.48540
C        -12.54940        2.21100       -5.93040
C        -13.04980        1.37850       -7.12940
C        -13.43040        2.41820       -8.15880
C        -12.30960        2.95630       -8.62220
C        -11.15280        2.28940       -7.91370
C        -11.73080        0.87970       -7.73360
C        -11.22980        2.84530       -6.47590
H          9.68420       -1.14540        1.57530
H          7.92570        3.78640        5.06810
H         12.71580        3.08250        3.58540
H         12.20320        6.34610        4.52130
H         13.63110        5.67910        6.44870
H         12.68470        3.40470        7.32400
H         10.18530        3.79930        8.13180
H          9.59150        6.31940        7.75520
H         12.13640        6.68500        8.38990
H         11.79880        7.59980        6.89890
H          9.77300        6.73000        5.30460
H          4.80820       -3.60420       -0.63340
H          5.08310       -7.06670       -2.86870
H          6.85830       -6.92170       -3.08530
H          7.23040       -7.96660       -0.87560
H          5.48270       -8.09350       -0.61560
H          6.26130       -9.03640       -1.89650
H          2.59370       -1.35190        4.16630
H          0.99400       -1.47240        6.05420
H         -2.16960        1.87410        8.27980
H         -2.03120        2.28650        6.55700
H         -0.70640        2.69700        7.69660
H         -0.01440        2.63840        5.43600
H          1.58890        2.75750        3.60200
H          4.25990        1.66520        0.46460
H          5.91410        3.45280        0.32920
H          9.23600        4.96930        1.38600
H          7.95430        4.77370        0.16990
H          8.35030        3.42930        1.28360
H          5.58920        4.08120        4.54200
H          3.99100        2.23100        4.69970
H         -1.58370       -2.67900       -3.76990
H         -3.04140       -1.41580       -5.26400
H         -5.47860        0.16910       -4.94080
H         -4.66090       -0.41910       -6.42930
H         -5.62710        1.06750       -6.46650
H         -1.81780        2.21680       -3.37390
H         -0.40930        0.94930       -1.83910
H         -0.50800       -4.36860       -1.87750
H          0.97480       -5.99010       -2.99640
H          4.54390       -4.13570       -5.78800
H          5.44960       -5.62660       -5.45900
H          5.29220       -4.40420       -4.17670
H          3.53120       -2.78750       -4.23110
H          2.05640       -1.19010       -3.12350
H         -2.37620       -5.46220        1.20420
H         -3.10080       -7.46530       -0.01000
H         -3.91000       -7.29050       -2.33730
H         -3.99080       -5.07840       -3.43580
H         -3.24060       -3.07490       -2.23520
H         -2.58880       -1.86150        2.61580
H         -1.04330       -2.05400        4.51430
H          1.01680       -3.40430        4.30350
H          1.52690       -4.53110        2.16740
H         -0.02300       -4.35560        0.27810
H         -6.35480        3.54980        0.74640
H         -5.05900        5.58530        0.23690
H         -3.67290        5.68880       -1.80240
H         -3.58570        3.74710       -3.32760
H         -4.85110        1.69950       -2.79150
H         -8.04440        3.04130       -1.94100
H        -10.43410        3.40720       -1.46950
H        -11.54010        2.16510        0.35650
H        -10.22840        0.59110        1.73630
H         -7.85500        0.20580        1.25300
H         -8.35130       -2.29630       -0.90130
H         -8.33890        2.19370       -5.22310
H        -12.65370        0.17530       -3.50090
H        -13.31350        2.86930       -5.52140
H        -13.80230        0.63400       -6.88440
H        -14.44350        2.68550       -8.39550
H        -12.19930        3.76290       -9.32320
H        -10.17660        2.37460       -8.38390
H        -11.88000        0.37130       -8.68480
H        -11.15040        0.24390       -7.06750
H        -11.11500        3.92690       -6.43130
