230

C         -6.58380       -3.22490       -1.77660
C         -7.07300       -3.53360       -3.00410
C         -6.27120       -4.11510       -4.11830
O         -5.20790       -4.69310       -4.04550
C         -7.12790       -4.01690       -5.31490
C         -6.77230       -4.32680       -6.62490
C         -7.79530       -4.18710       -7.53080
C         -9.08520       -3.78240       -7.15910
C         -9.45050       -3.47820       -5.87010
C         -8.42030       -3.60500       -4.93140
C         -8.43560       -3.38030       -3.48770
C         -9.53970       -3.07310       -2.73780
C        -10.84480       -2.92850       -3.25360
N        -11.93120       -2.79540       -3.60060
C         -9.54460       -2.89020       -1.33880
N         -9.63500       -2.73640       -0.20430
C         -9.61290       -3.89620       -8.56850
C         -9.82180       -2.59450       -9.37990
C         -8.85660       -1.58250       -8.81620
C         -7.63060       -1.95300       -9.16090
C         -7.74610       -3.22220       -9.96830
C         -9.08800       -2.97430      -10.67590
C         -8.17380       -4.33740       -8.98280
C         -5.18000       -3.10520       -1.49780
C         -4.62840       -3.39700       -0.26060
C         -3.27010       -3.22870       -0.01360
C         -2.38810       -2.79900       -0.99310
C         -2.89790       -2.58610       -2.29640
N         -2.12780       -2.58630       -3.38760
C         -2.64620       -2.40090       -4.57620
C         -1.91070       -2.91540       -5.72430
C         -2.54120       -3.15810       -6.94600
C         -1.83990       -3.71550       -7.99600
C         -0.49900       -4.05950       -7.86370
C          0.26540       -4.62880       -9.02290
C          0.90450       -3.51210       -9.85180
C          0.12040       -3.84330       -6.63670
C         -0.57380       -3.29170       -5.57970
C         -3.97200       -1.82370       -4.63950
N         -4.76370       -2.05800       -3.62680
C         -4.30780       -2.60370       -2.50200
C         -4.47760       -0.95470       -5.69420
C         -5.84710       -0.69590       -5.77750
C         -6.34100        0.15640       -6.74200
C         -5.49170        0.77680       -7.65280
C         -6.03020        1.72690       -8.68170
C         -6.02730        3.15740       -8.13840
C         -4.12640        0.53080       -7.55830
C         -3.62430       -0.32040       -6.59640
C         -1.00410       -2.54110       -0.64750
C         -0.35720       -1.33000       -0.73630
N         -0.88210       -0.15570       -1.30690
C         -0.77710        0.95330       -0.43870
C          0.00740        2.06090       -0.75010
C          0.25270        3.03110        0.20060
C         -0.29370        2.91220        1.47050
S          0.10250        4.03440        2.78170
C          1.83080        4.46020        2.40180
C         -1.16770        1.86730        1.75010
C         -1.39560        0.88680        0.80830
C         -0.75570        0.06140       -2.68370
C          0.16850       -0.63180       -3.45690
C          0.30840       -0.35680       -4.80400
C         -0.48910        0.60630       -5.40110
S         -0.36740        1.05730       -7.10970
C          0.58910       -0.30190       -7.84200
C         -1.43330        1.28890       -4.63660
C         -1.56430        1.02180       -3.29290
C          0.87610       -1.35590       -0.03770
S          2.03850       -0.14400        0.36030
C          2.98300       -1.32320        1.23860
C          2.40950       -2.57470        1.25360
N          2.92750       -3.65410        1.95950
C          2.97070       -4.92430        1.39150
C          2.96300       -5.09600        0.00580
C          2.98640       -6.35960       -0.53950
C          3.03380       -7.48470        0.27950
S          3.08090       -9.05100       -0.53860
C          3.02410      -10.25520        0.81800
C          3.05410       -7.32080        1.65770
C          3.01560       -6.05420        2.20560
C          3.53300       -3.37850        3.19960
C          4.83340       -3.79770        3.47860
C          5.45400       -3.39040        4.63790
C          4.78660       -2.57080        5.54710
S          5.71180       -2.02790        6.94980
C          4.67690       -0.71990        7.66620
C          3.46380       -2.22510        5.31270
C          2.84490       -2.62490        4.14430
C          1.19030       -2.58140        0.52380
S         -0.06640       -3.73570        0.23060
C          4.13740       -0.83050        1.97980
C          5.44170       -1.18810        1.73260
C          6.49440       -0.62430        2.46040
C          6.27770        0.34270        3.41980
C          4.93630        0.68060        3.74940
N          4.66100        1.56920        4.71580
C          3.41590        1.78290        5.07430
C          3.18360        2.86560        6.03020
C          2.00580        3.61220        6.01240
C          1.80040        4.60450        6.94920
C          2.75160        4.87850        7.92660
C          2.47080        5.88060        9.00800
C          1.81900        5.18920       10.20790
C          3.94340        4.16150        7.91170
C          4.16470        3.17670        6.97120
C          2.37310        0.95530        4.53900
N          2.61950        0.19840        3.49570
C          3.87370        0.06800        3.04700
C          1.06220        0.75140        5.15690
C          0.85870        0.87100        6.53100
C         -0.37720        0.58680        7.07650
C         -1.43760        0.17190        6.27860
C         -2.76760       -0.16430        6.88650
C         -2.80550       -1.63450        7.31030
C         -1.21900        0.01710        4.91460
C          0.01350        0.29410        4.36050
C          7.34910        0.99910        4.13760
C          7.34800        2.32980        4.36850
C          6.42780        3.29530        3.69530
O          5.74610        3.10940        2.71090
C          6.64980        4.58660        4.36860
C          5.98460        5.78350        4.11150
C          6.44900        6.85160        4.83840
C          7.50090        6.73950        5.75920
C          8.16940        5.56840        6.01890
C          7.71540        4.46670        5.28400
C          8.20600        3.09260        5.26470
C          9.27670        2.61260        5.96840
C          9.76930        1.29130        5.89590
N         10.24120        0.24490        5.88360
C         10.06760        3.37950        6.85060
N         10.75000        3.93820        7.58550
C          7.44520        8.20280        6.12100
C          6.76380        8.59000        7.45700
C          5.76230        7.50210        7.75250
C          4.77320        7.60990        6.87540
C          5.08760        8.77620        5.97220
C          5.82220        9.69750        6.95860
C          6.27910        8.32900        5.09070
H         -7.25860       -2.98710       -0.96500
H         -5.77160       -4.65320       -6.86290
H        -10.44830       -3.17530       -5.59950
H        -10.42300       -4.60860       -8.71180
H        -10.85740       -2.27640       -9.46530
H         -9.15580       -0.75970       -8.19420
H         -6.69640       -1.50230       -8.88110
H         -6.89110       -3.47340      -10.59090
H         -9.49370       -3.86130      -11.16050
H         -9.04250       -2.15350      -11.39020
H         -8.04830       -5.33260       -9.40560
H         -5.26620       -3.77720        0.52400
H         -2.88300       -3.44360        0.97240
H         -3.58930       -2.92960       -7.06660
H         -2.34440       -3.90000       -8.93400
H          1.04750       -5.29700       -8.65750
H         -0.40780       -5.20610       -9.65960
H          1.44110       -3.93010      -10.70010
H          0.14090       -2.83300      -10.22490
H          1.60510       -2.94160       -9.24590
H          1.15590       -4.12640       -6.50860
H         -0.10330       -3.15330       -4.62030
H         -6.51160       -1.17460       -5.07510
H         -7.40340        0.34500       -6.79260
H         -7.04970        1.44300       -8.95070
H         -5.41350        1.68490       -9.58190
H         -6.64720        3.22500       -7.24720
H         -5.01600        3.45900       -7.87550
H         -6.41370        3.84790       -8.88430
H         -3.44460        1.01510       -8.24250
H         -2.56260       -0.48920       -6.53390
H          0.46290        2.13790       -1.72610
H          0.89560        3.86070       -0.04760
H          2.37360        3.55980        2.12940
H          2.24460        4.88120        3.31340
H          1.87430        5.19660        1.60450
H         -1.63680        1.82090        2.72030
H         -2.03010        0.04310        1.03780
H          0.80120       -1.37450       -2.99430
H          1.05520       -0.88820       -5.37140
H          0.52930       -0.15660       -8.91620
H          0.14200       -1.25330       -7.56880
H          1.62630       -0.24600       -7.52360
H         -2.05970        2.02930       -5.11050
H         -2.28850        1.55800       -2.69790
H          2.95050       -4.23370       -0.64360
H          2.97830       -6.49090       -1.61070
H          3.91070      -10.16220        1.43880
H          2.11730      -10.11470        1.39910
H          3.00990      -11.23070        0.34190
H          3.09240       -8.17010        2.32060
H          3.01960       -5.93560        3.27900
H          5.36050       -4.41430        2.76600
H          6.47280       -3.67970        4.84470
H          3.77180       -1.14270        8.09310
H          5.27650       -0.26990        8.45150
H          4.44600        0.02060        6.90610
H          2.90390       -1.63420        6.02050
H          1.82740       -2.32170        3.94950
H          5.65980       -1.90490        0.95470
H          7.50870       -0.90800        2.22130
H          1.25030        3.41610        5.26640
H          0.88050        5.17100        6.92620
H          3.39890        6.35790        9.32670
H          1.79910        6.65530        8.63310
H          2.47930        4.42300       10.60820
H          1.60860        5.91120       10.99310
H          0.88560        4.71600        9.91090
H          4.70170        4.37360        8.65140
H          5.08930        2.61870        6.96500
H          1.67090        1.16780        7.17860
H         -0.52190        0.68600        8.14300
H         -3.56320        0.02110        6.16230
H         -2.94560        0.46630        7.75980
H         -3.76950       -1.87780        7.75060
H         -2.64280       -2.28080        6.45080
H         -2.02760       -1.83800        8.04300
H         -2.02590       -0.32700        4.28270
H          0.18730        0.16820        3.30310
H          8.13010        0.36310        4.53250
H          5.18530        5.82560        3.38790
H          8.98390        5.50230        6.72080
H          8.35290        8.77410        5.93790
H          7.45280        8.84090        8.25900
H          5.90740        6.74880        8.50430
H          3.92660        6.96240        6.74360
H          4.25010        9.19730        5.42210
H          6.34170       10.52390        6.47600
H          5.17020       10.08040        7.74230
H          6.42840        8.97850        4.23030
