233

C         -0.88240        4.92760       -7.41100
C         -1.88530        4.66340       -8.30250
C         -3.10450        3.88500       -7.98370
O         -3.33890        3.23830       -6.98020
C         -4.03410        4.11890       -9.10360
C         -5.32320        3.60890       -9.23620
C         -5.95670        3.98580      -10.39600
C         -5.35930        4.82460      -11.34640
C         -4.09150        5.34130      -11.22370
C         -3.42270        4.95620      -10.05850
C         -2.07350        5.27500       -9.60170
C         -1.12220        5.95250      -10.31900
C          0.21160        6.13990       -9.90550
N          1.32170        6.30950       -9.66460
C         -1.33270        6.51870      -11.59300
N         -1.43730        7.00610      -12.62740
C         -6.55980        4.77970      -12.25780
C         -6.47350        3.87850      -13.51440
C         -5.48640        2.78460      -13.19030
C         -6.04820        1.98550      -12.29300
C         -7.42540        2.52450      -11.99440
C         -7.79310        3.10380      -13.36980
C         -7.22290        3.84010      -11.20180
C         -0.73440        4.30620       -6.13710
C         -1.03740        2.97210       -5.82530
O         -1.01890        1.95710       -6.69810
C         -0.43170        2.07970       -7.97630
C          0.13020        0.72240       -8.37190
C         -1.20380        2.55260       -4.46080
O         -1.59020        1.30210       -4.13840
C         -2.66370        0.66570       -4.83740
C         -2.20870       -0.67950       -5.37850
C         -0.80570        3.36270       -3.40560
C         -0.34110        4.66490       -3.70290
C         -0.31080        5.13300       -5.05710
N          0.11210        6.38810       -5.14370
S          0.44260        6.92830       -3.65520
N          0.04830        5.59490       -2.83880
C         -0.78110        2.84060       -2.05660
C          0.28210        2.84310       -1.17070
N          1.54490        3.36680       -1.40600
C          2.15870        4.11410       -0.39160
C          3.54270        4.09660       -0.24440
C          4.16030        4.87060        0.71890
C          3.39860        5.67550        1.55500
S          4.07730        6.76880        2.76250
C          5.86630        6.69010        2.46610
C          2.01050        5.66250        1.43980
C          1.39550        4.89350        0.47790
C          2.06110        3.35960       -2.70580
C          1.83360        2.26220       -3.53910
C          2.17240        2.31830       -4.87160
C          2.75840        3.46410       -5.40320
S          3.00840        3.50690       -7.15170
C          3.31460        5.26300       -7.47960
C          3.09500        4.50960       -4.55380
C          2.75120        4.45580       -3.21770
C         -0.05130        2.13770        0.01250
S          0.80020        1.70420        1.45150
C         -0.57850        0.75750        2.01240
C         -1.65000        0.83550        1.14970
N         -2.95230        0.35680        1.40250
C         -3.58300       -0.35950        0.38920
C         -2.82040       -1.00370       -0.58840
C         -3.42810       -1.71350       -1.60130
C         -4.80920       -1.81620       -1.65120
S         -5.57630       -2.66010       -3.01850
C         -6.46860       -3.98480       -2.14330
C         -5.57510       -1.22550       -0.65840
C         -4.96910       -0.52110        0.36020
C         -3.68300        1.28310        2.20260
C         -4.59200        2.16610        1.62980
C         -5.28130        3.07730        2.40780
C         -5.05140        3.13580        3.77570
S         -5.87480        4.24200        4.87710
C         -6.94200        5.23190        3.79270
C         -4.10680        2.28500        4.34510
C         -3.42750        1.37270        3.56700
C         -1.33100        1.60860        0.00760
S         -2.16370        1.95090       -1.46390
C         -0.38870       -0.02580        3.19290
C         -0.77050       -1.32760        3.45610
N         -1.23740       -2.26980        2.50930
C         -2.58360       -2.59130        2.37650
C         -2.99750       -3.42530        1.33560
C         -4.33030       -3.71890        1.17120
C         -5.28660       -3.16810        2.02070
S         -6.97400       -3.57240        1.67630
C         -7.91390       -2.47740        2.77720
C         -4.88220       -2.34960        3.06270
C         -3.53990       -2.07590        3.24340
C         -0.22680       -3.25030        2.33300
C         -0.42920       -4.59830        2.61540
C          0.64600       -5.46220        2.70420
C          1.93960       -4.98950        2.52980
S          3.37080       -5.99740        2.80600
C          2.80760       -7.07350        4.16070
C          2.14000       -3.66850        2.14570
C          1.06670       -2.81170        2.04130
C         -0.19430       -1.78300        4.66930
S         -0.27820       -3.29440        5.48860
C          1.18930       -2.88530        6.38480
C          1.57500       -1.54850        6.19330
N          2.56830       -0.92640        6.88310
C          3.09620       -1.51300        8.05200
C          4.46340       -1.75350        8.15890
C          4.96260       -2.40400        9.26730
C          4.11040       -2.81130       10.29230
S          4.84630       -3.69900       11.62340
C          3.44270       -4.17340       12.67050
C          2.75410       -2.51360       10.21350
C          2.25370       -1.87720        9.09650
C          3.18490        0.24080        6.39170
C          3.55760        0.35270        5.05310
C          4.13630        1.51540        4.59530
C          4.36380        2.57930        5.46480
S          5.10540        4.02060        4.77590
C          4.78530        5.30140        6.02130
C          4.03330        2.45290        6.80800
C          3.44430        1.29040        7.26590
C          0.73940       -0.92630        5.23260
S          0.70800        0.60470        4.41740
C          1.86820       -3.96920        6.97470
C          3.21110       -4.20220        6.82790
C          4.00120       -3.60780        5.73230
O          3.69720       -2.67180        5.01840
C          5.17520       -4.48370        5.57270
C          6.14330       -4.40430        4.57540
C          7.07540       -5.41300        4.62140
C          7.04540       -6.43000        5.58450
C          6.10330       -6.51250        6.58330
C          5.14600       -5.49520        6.55350
C          3.96980       -5.28970        7.39210
C          3.66180       -5.96160        8.54700
C          4.43760       -6.99890        9.10030
N          5.01960       -7.85560        9.59630
C          2.54920       -5.65840        9.35230
N          1.68110       -5.45310       10.07750
C          8.24230       -7.13320        4.99490
C          7.94720       -8.38250        4.13710
C          9.21030       -8.56770        3.32700
C          9.25650       -7.59620        2.42430
C          8.02450       -6.74030        2.60720
C          7.02220       -7.81170        3.05400
C          8.28580       -5.99030        3.93050
H         -0.23470        5.77790       -7.58530
H         -5.74780        2.97120       -8.47650
H         -3.64840        5.99140      -11.95940
H         -7.03930        5.73460      -12.46340
H         -6.30630        4.41550      -14.44410
H         -4.49100        2.73870      -13.59170
H         -5.61600        1.13780      -11.79420
H         -8.12540        1.82770      -11.54090
H         -8.67300        3.74530      -13.34950
H         -7.91570        2.33510      -14.13130
H         -8.13820        4.17860      -10.72000
H         -1.18960        2.39770       -8.70670
H          0.36660        2.83300       -7.95660
H         -0.66400       -0.01810       -8.41900
H          0.60190        0.80050       -9.34680
H          0.87420        0.39930       -7.64900
H         -3.45450        0.51520       -4.09120
H         -3.04360        1.30810       -5.63270
H         -1.45610       -0.54120       -6.14880
H         -1.78300       -1.27260       -4.57360
H         -3.06040       -1.21000       -5.79390
H          4.13890        3.47760       -0.89860
H          5.23380        4.83330        0.80810
H          6.24090        5.70440        2.72700
H          6.30690        7.43730        3.11910
H          6.07720        6.93810        1.43020
H          1.42320        6.28250        2.09990
H          0.32200        4.91830        0.36880
H          1.35390        1.38000       -3.14320
H          1.96680        1.48080       -5.52030
H          2.55760        5.85970       -6.97910
H          3.22190        5.38840       -8.55340
H          4.31530        5.53510       -7.15580
H          3.60240        5.38520       -4.92560
H          2.97670        5.29310       -2.57420
H         -1.74310       -0.95500       -0.54710
H         -2.83240       -2.19340       -2.36210
H         -6.97570       -3.58120       -1.27350
H         -5.76260       -4.75520       -1.84640
H         -7.18820       -4.39270       -2.84550
H         -6.65130       -1.31140       -0.68180
H         -5.57780       -0.08380        1.13690
H         -4.75670        2.14470        0.56240
H         -5.98310        3.74160        1.92990
H         -7.67250        4.59390        3.30370
H         -6.33770        5.77040        3.06870
H         -7.44790        5.93550        4.44650
H         -3.91310        2.35040        5.40480
H         -2.68410        0.73400        4.01520
H         -2.26540       -3.83260        0.65540
H         -4.64980       -4.36830        0.37140
H         -7.62020       -1.44590        2.60570
H         -7.75900       -2.76390        3.81340
H         -8.95720       -2.61630        2.51090
H         -5.59390       -1.92400        3.75190
H         -3.23330       -1.45840        4.07350
H         -1.42460       -4.96160        2.82210
H          0.46770       -6.49620        2.95490
H          2.23410       -6.48110        4.86780
H          3.70340       -7.45970        4.63790
H          2.21550       -7.89740        3.77310
H          3.14310       -3.31240        1.97300
H          1.23220       -1.77550        1.78640
H          5.12240       -1.44530        7.36090
H          6.01750       -2.61890        9.34580
H          2.71240       -4.72120       12.08100
H          3.00630       -3.29030       13.12830
H          3.86020       -4.81890       13.43710
H          2.07800       -2.78420       11.00660
H          1.19640       -1.66790        9.02860
H          3.41630       -0.48710        4.39260
H          4.41890        1.61380        3.55850
H          5.42890        5.16000        6.88490
H          5.01230        6.24690        5.53950
H          3.73600        5.27590        6.29790
H          4.22720        3.25100        7.50650
H          3.18150        1.19380        8.30930
H          1.24860       -4.74080        7.42030
H          6.12190       -3.61410        3.84190
H          6.08600       -7.30200        7.31690
H          9.09520       -7.26450        5.65800
H          7.59430       -9.24520        4.69610
H          9.94370       -9.32730        3.52490
H         10.03650       -7.38340        1.71680
H          7.73720       -6.10630        1.77320
H          6.08420       -7.40490        3.42630
H          6.81510       -8.53460        2.26690
H          9.16470       -5.34930        3.89280
