
  xtb     02132217343D
 energy: -295.108996788869 gnorm: 0.000499613437 xtb: 6.4.1 (unknown)
168187  0     0  0            999 V2000
    3.9365    2.8281    4.7468 C   0  0  0  0  0  0  0  0  0  0  0  0
    4.2159    4.0906    5.1950 C   0  0  0  0  0  0  0  0  0  0  0  0
    5.6208    4.5633    5.2339 C   0  0  0  0  0  0  0  0  0  0  0  0
    6.6221    3.8985    5.0737 O   0  0  0  0  0  0  0  0  0  0  0  0
    5.5328    6.0271    5.4069 C   0  0  0  0  0  0  0  0  0  0  0  0
    6.5788    6.9453    5.3590 C   0  0  0  0  0  0  0  0  0  0  0  0
    6.1825    8.2551    5.4842 C   0  0  0  0  0  0  0  0  0  0  0  0
    4.8450    8.6266    5.6751 C   0  0  0  0  0  0  0  0  0  0  0  0
    3.8058    7.7303    5.7504 C   0  0  0  0  0  0  0  0  0  0  0  0
    4.1853    6.3962    5.5922 C   0  0  0  0  0  0  0  0  0  0  0  0
    3.3668    5.1880    5.5661 C   0  0  0  0  0  0  0  0  0  0  0  0
    2.0745    5.0633    6.0247 C   0  0  0  0  0  0  0  0  0  0  0  0
    1.2310    6.1422    6.3384 C   0  0  0  0  0  0  0  0  0  0  0  0
    0.4781    6.9820    6.5594 N   0  0  0  0  0  0  0  0  0  0  0  0
    1.4893    3.8130    6.2829 C   0  0  0  0  0  0  0  0  0  0  0  0
    0.9910    2.8092    6.5398 N   0  0  0  0  0  0  0  0  0  0  0  0
    5.1751   10.0973    5.7049 C   0  0  0  0  0  0  0  0  0  0  0  0
    5.2090   10.8056    7.0810 C   0  0  0  0  0  0  0  0  0  0  0  0
    5.5453    9.7454    8.1003 C   0  0  0  0  0  0  0  0  0  0  0  0
    6.8120    9.3966    7.9193 C   0  0  0  0  0  0  0  0  0  0  0  0
    7.3551   10.2134    6.7730 C   0  0  0  0  0  0  0  0  0  0  0  0
    6.5668   11.5178    6.9725 C   0  0  0  0  0  0  0  0  0  0  0  0
    6.6655    9.6840    5.4921 C   0  0  0  0  0  0  0  0  0  0  0  0
    2.7733    2.2972    4.1625 C   0  0  0  0  0  0  0  0  0  0  0  0
    1.6621    2.8792    3.5275 C   0  0  0  0  0  0  0  0  0  0  0  0
    1.4487    4.2101    3.2464 N   0  0  0  0  0  0  0  0  0  0  0  0
    2.4640    5.1136    2.9172 C   0  0  0  0  0  0  0  0  0  0  0  0
    3.6897    4.6975    2.4019 C   0  0  0  0  0  0  0  0  0  0  0  0
    4.6885    5.6096    2.1222 C   0  0  0  0  0  0  0  0  0  0  0  0
    4.4765    6.9645    2.3351 C   0  0  0  0  0  0  0  0  0  0  0  0
    5.6943    8.2076    2.0776 S   0  0  0  0  0  0  0  0  0  0  0  0
    7.2174    7.2615    1.7970 C   0  0  0  0  0  0  0  0  0  0  0  0
    3.2273    7.3946    2.7835 C   0  0  0  0  0  0  0  0  0  0  0  0
    2.2403    6.4860    3.0796 C   0  0  0  0  0  0  0  0  0  0  0  0
    0.1107    4.6266    3.0209 C   0  0  0  0  0  0  0  0  0  0  0  0
   -0.8728    4.3810    3.9722 C   0  0  0  0  0  0  0  0  0  0  0  0
   -2.1715    4.8037    3.7651 C   0  0  0  0  0  0  0  0  0  0  0  0
   -2.5065    5.4761    2.5974 C   0  0  0  0  0  0  0  0  0  0  0  0
   -4.1215    6.0658    2.2232 S   0  0  0  0  0  0  0  0  0  0  0  0
   -5.0914    5.6622    3.7038 C   0  0  0  0  0  0  0  0  0  0  0  0
   -1.5229    5.7111    1.6361 C   0  0  0  0  0  0  0  0  0  0  0  0
   -0.2293    5.2924    1.8435 C   0  0  0  0  0  0  0  0  0  0  0  0
    0.7576    1.8766    3.0966 C   0  0  0  0  0  0  0  0  0  0  0  0
   -0.7102    1.9163    2.1831 S   0  0  0  0  0  0  0  0  0  0  0  0
   -0.7690    0.1658    2.1714 C   0  0  0  0  0  0  0  0  0  0  0  0
    0.3176   -0.4212    2.8060 C   0  0  0  0  0  0  0  0  0  0  0  0
    0.6093   -1.7694    2.8566 N   0  0  0  0  0  0  0  0  0  0  0  0
    1.2713   -2.2678    3.9926 C   0  0  0  0  0  0  0  0  0  0  0  0
    2.2594   -3.2379    3.8605 C   0  0  0  0  0  0  0  0  0  0  0  0
    2.9188   -3.7267    4.9712 C   0  0  0  0  0  0  0  0  0  0  0  0
    2.6045   -3.2437    6.2347 C   0  0  0  0  0  0  0  0  0  0  0  0
    3.3813   -3.7818    7.7241 S   0  0  0  0  0  0  0  0  0  0  0  0
    4.5239   -5.0839    7.1802 C   0  0  0  0  0  0  0  0  0  0  0  0
    1.6148   -2.2715    6.3697 C   0  0  0  0  0  0  0  0  0  0  0  0
    0.9501   -1.7919    5.2640 C   0  0  0  0  0  0  0  0  0  0  0  0
    0.2688   -2.6439    1.8158 C   0  0  0  0  0  0  0  0  0  0  0  0
   -0.1806   -3.9342    2.1066 C   0  0  0  0  0  0  0  0  0  0  0  0
   -0.5551   -4.7861    1.0936 C   0  0  0  0  0  0  0  0  0  0  0  0
   -0.4970   -4.3783   -0.2389 C   0  0  0  0  0  0  0  0  0  0  0  0
   -1.0303   -5.5559   -1.4421 S   0  0  0  0  0  0  0  0  0  0  0  0
   -0.8673   -4.7022   -3.0307 C   0  0  0  0  0  0  0  0  0  0  0  0
   -0.0298   -3.1046   -0.5357 C   0  0  0  0  0  0  0  0  0  0  0  0
    0.3563   -2.2519    0.4814 C   0  0  0  0  0  0  0  0  0  0  0  0
    1.1711    0.5769    3.3413 C   0  0  0  0  0  0  0  0  0  0  0  0
    2.7014    0.5312    4.1261 S   0  0  0  0  0  0  0  0  0  0  0  0
   -1.8038   -0.5336    1.4480 C   0  0  0  0  0  0  0  0  0  0  0  0
   -2.1941   -0.1695    0.1564 C   0  0  0  0  0  0  0  0  0  0  0  0
   -1.7314    0.9695   -0.3793 F   0  0  0  0  0  0  0  0  0  0  0  0
   -2.9641   -1.0007   -0.6335 C   0  0  0  0  0  0  0  0  0  0  0  0
   -3.2190   -0.5920   -1.8871 F   0  0  0  0  0  0  0  0  0  0  0  0
   -3.4013   -2.2652   -0.2013 C   0  0  0  0  0  0  0  0  0  0  0  0
   -3.1560   -2.5369    1.1574 C   0  0  0  0  0  0  0  0  0  0  0  0
   -3.6489   -3.6490    1.7278 F   0  0  0  0  0  0  0  0  0  0  0  0
   -2.3902   -1.7045    1.9467 C   0  0  0  0  0  0  0  0  0  0  0  0
   -2.1915   -2.0335    3.2327 F   0  0  0  0  0  0  0  0  0  0  0  0
   -3.9323   -3.2474   -1.1087 C   0  0  0  0  0  0  0  0  0  0  0  0
   -4.2813   -2.8136   -2.7833 S   0  0  0  0  0  0  0  0  0  0  0  0
   -4.5245   -4.4691   -3.1727 C   0  0  0  0  0  0  0  0  0  0  0  0
   -4.7167   -5.3127   -4.2615 C   0  0  0  0  0  0  0  0  0  0  0  0
   -4.6874   -6.6383   -3.7613 C   0  0  0  0  0  0  0  0  0  0  0  0
   -4.4798   -6.6144   -2.4097 N   0  0  0  0  0  0  0  0  0  0  0  0
   -4.3523   -7.7488   -1.5315 C   0  0  0  0  0  0  0  0  0  0  0  0
   -5.6593   -8.0381   -0.7972 C   0  0  0  0  0  0  0  0  0  0  0  0
   -4.3746   -5.3025   -2.0407 C   0  0  0  0  0  0  0  0  0  0  0  0
   -4.0523   -4.6039   -0.8766 C   0  0  0  0  0  0  0  0  0  0  0  0
   -4.8089   -7.6041   -4.7589 C   0  0  0  0  0  0  0  0  0  0  0  0
   -4.8594   -7.0373   -6.0186 C   0  0  0  0  0  0  0  0  0  0  0  0
   -4.8735   -5.2734   -5.9722 S   0  0  0  0  0  0  0  0  0  0  0  0
   -4.9171   -7.7364   -7.2494 C   0  0  0  0  0  0  0  0  0  0  0  0
   -4.4786   -7.3182   -8.4655 C   0  0  0  0  0  0  0  0  0  0  0  0
   -4.9821   -7.9641   -9.7082 C   0  0  0  0  0  0  0  0  0  0  0  0
   -5.5946   -9.0053   -9.7841 O   0  0  0  0  0  0  0  0  0  0  0  0
   -4.6226   -7.0386  -10.7995 C   0  0  0  0  0  0  0  0  0  0  0  0
   -4.9883   -7.1327  -12.1414 C   0  0  0  0  0  0  0  0  0  0  0  0
   -4.5191   -6.1048  -12.9235 C   0  0  0  0  0  0  0  0  0  0  0  0
   -3.7463   -5.0527  -12.4124 C   0  0  0  0  0  0  0  0  0  0  0  0
   -3.3717   -4.9489  -11.0942 C   0  0  0  0  0  0  0  0  0  0  0  0
   -3.8329   -5.9892  -10.2829 C   0  0  0  0  0  0  0  0  0  0  0  0
   -3.6023   -6.2356   -8.8622 C   0  0  0  0  0  0  0  0  0  0  0  0
   -2.5540   -5.7322   -8.1364 C   0  0  0  0  0  0  0  0  0  0  0  0
   -1.6450   -4.7706   -8.6231 C   0  0  0  0  0  0  0  0  0  0  0  0
   -0.8764   -3.9857   -8.9567 N   0  0  0  0  0  0  0  0  0  0  0  0
   -2.1863   -6.1755   -6.8498 C   0  0  0  0  0  0  0  0  0  0  0  0
   -1.7995   -6.5197   -5.8240 N   0  0  0  0  0  0  0  0  0  0  0  0
   -3.6395   -4.3721  -13.7539 C   0  0  0  0  0  0  0  0  0  0  0  0
   -4.5455   -3.1434  -13.9803 C   0  0  0  0  0  0  0  0  0  0  0  0
   -4.5831   -2.9947  -15.4841 C   0  0  0  0  0  0  0  0  0  0  0  0
   -5.3120   -3.9913  -15.9699 C   0  0  0  0  0  0  0  0  0  0  0  0
   -5.7797   -4.8303  -14.8025 C   0  0  0  0  0  0  0  0  0  0  0  0
   -5.9398   -3.7363  -13.7389 C   0  0  0  0  0  0  0  0  0  0  0  0
   -4.4981   -5.5460  -14.3250 C   0  0  0  0  0  0  0  0  0  0  0  0
    4.7783    2.1420    4.7837 H   0  0  0  0  0  0  0  0  0  0  0  0
    7.5994    6.6187    5.2282 H   0  0  0  0  0  0  0  0  0  0  0  0
    2.7785    8.0236    5.8933 H   0  0  0  0  0  0  0  0  0  0  0  0
    4.7033   10.7035    4.9343 H   0  0  0  0  0  0  0  0  0  0  0  0
    4.3373   11.4180    7.2957 H   0  0  0  0  0  0  0  0  0  0  0  0
    4.8331    9.3294    8.7886 H   0  0  0  0  0  0  0  0  0  0  0  0
    7.3697    8.6311    8.4267 H   0  0  0  0  0  0  0  0  0  0  0  0
    8.4375   10.2885    6.7066 H   0  0  0  0  0  0  0  0  0  0  0  0
    6.6325   12.1979    6.1243 H   0  0  0  0  0  0  0  0  0  0  0  0
    6.8427   12.0413    7.8867 H   0  0  0  0  0  0  0  0  0  0  0  0
    7.1567   10.0203    4.5812 H   0  0  0  0  0  0  0  0  0  0  0  0
    3.8660    3.6518    2.2035 H   0  0  0  0  0  0  0  0  0  0  0  0
    5.6257    5.2435    1.7364 H   0  0  0  0  0  0  0  0  0  0  0  0
    7.3644    6.5607    2.6132 H   0  0  0  0  0  0  0  0  0  0  0  0
    8.0203    7.9919    1.7835 H   0  0  0  0  0  0  0  0  0  0  0  0
    7.1708    6.7513    0.8393 H   0  0  0  0  0  0  0  0  0  0  0  0
    3.0523    8.4505    2.9171 H   0  0  0  0  0  0  0  0  0  0  0  0
    1.2917    6.8323    3.4612 H   0  0  0  0  0  0  0  0  0  0  0  0
   -0.6255    3.8544    4.8806 H   0  0  0  0  0  0  0  0  0  0  0  0
   -2.9060    4.6027    4.5270 H   0  0  0  0  0  0  0  0  0  0  0  0
   -6.0876    6.0495    3.5136 H   0  0  0  0  0  0  0  0  0  0  0  0
   -5.1348    4.5855    3.8390 H   0  0  0  0  0  0  0  0  0  0  0  0
   -4.6635    6.1550    4.5716 H   0  0  0  0  0  0  0  0  0  0  0  0
   -1.7912    6.2219    0.7245 H   0  0  0  0  0  0  0  0  0  0  0  0
    0.5265    5.4741    1.0942 H   0  0  0  0  0  0  0  0  0  0  0  0
    2.5150   -3.6099    2.8793 H   0  0  0  0  0  0  0  0  0  0  0  0
    3.6811   -4.4760    4.8330 H   0  0  0  0  0  0  0  0  0  0  0  0
    3.9716   -5.8839    6.6959 H   0  0  0  0  0  0  0  0  0  0  0  0
    5.2792   -4.6673    6.5202 H   0  0  0  0  0  0  0  0  0  0  0  0
    4.9928   -5.4562    8.0858 H   0  0  0  0  0  0  0  0  0  0  0  0
    1.3705   -1.9028    7.3536 H   0  0  0  0  0  0  0  0  0  0  0  0
    0.1718   -1.0535    5.3806 H   0  0  0  0  0  0  0  0  0  0  0  0
   -0.2533   -4.2508    3.1357 H   0  0  0  0  0  0  0  0  0  0  0  0
   -0.9102   -5.7789    1.3229 H   0  0  0  0  0  0  0  0  0  0  0  0
   -1.2212   -5.4024   -3.7834 H   0  0  0  0  0  0  0  0  0  0  0  0
   -1.4837   -3.8080   -3.0374 H   0  0  0  0  0  0  0  0  0  0  0  0
    0.1759   -4.4635   -3.2157 H   0  0  0  0  0  0  0  0  0  0  0  0
    0.0484   -2.7655   -1.5562 H   0  0  0  0  0  0  0  0  0  0  0  0
    0.7313   -1.2694    0.2354 H   0  0  0  0  0  0  0  0  0  0  0  0
   -3.5534   -7.5354   -0.8159 H   0  0  0  0  0  0  0  0  0  0  0  0
   -4.0560   -8.6102   -2.1338 H   0  0  0  0  0  0  0  0  0  0  0  0
   -5.5362   -8.8981   -0.1452 H   0  0  0  0  0  0  0  0  0  0  0  0
   -6.4555   -8.2492   -1.5075 H   0  0  0  0  0  0  0  0  0  0  0  0
   -5.9511   -7.1820   -0.1938 H   0  0  0  0  0  0  0  0  0  0  0  0
   -3.8660   -5.0705    0.0703 H   0  0  0  0  0  0  0  0  0  0  0  0
   -4.7978   -8.6680   -4.6068 H   0  0  0  0  0  0  0  0  0  0  0  0
   -5.4164   -8.7005   -7.2344 H   0  0  0  0  0  0  0  0  0  0  0  0
   -5.5836   -7.9591  -12.4970 H   0  0  0  0  0  0  0  0  0  0  0  0
   -2.7822   -4.1333  -10.7088 H   0  0  0  0  0  0  0  0  0  0  0  0
   -2.6294   -4.2318  -14.1338 H   0  0  0  0  0  0  0  0  0  0  0  0
   -4.2688   -2.2623  -13.4078 H   0  0  0  0  0  0  0  0  0  0  0  0
   -4.0472   -2.2374  -16.0255 H   0  0  0  0  0  0  0  0  0  0  0  0
   -5.5067   -4.2327  -16.9984 H   0  0  0  0  0  0  0  0  0  0  0  0
   -6.6285   -5.4853  -14.9798 H   0  0  0  0  0  0  0  0  0  0  0  0
   -6.0921   -4.1163  -12.7304 H   0  0  0  0  0  0  0  0  0  0  0  0
   -6.7339   -3.0341  -13.9873 H   0  0  0  0  0  0  0  0  0  0  0  0
   -4.0602   -6.1888  -15.0863 H   0  0  0  0  0  0  0  0  0  0  0  0
  1  2  2  0  0  0  0
  2  3  1  0  0  0  0
  3  4  2  0  0  0  0
  3  5  1  0  0  0  0
  5  6  2  0  0  0  0
  6  7  1  0  0  0  0
  7  8  2  0  0  0  0
  8  9  1  0  0  0  0
  9 10  2  0  0  0  0
 10 11  1  0  0  0  0
 11 12  2  0  0  0  0
 12 13  1  0  0  0  0
 13 14  3  0  0  0  0
 12 15  1  0  0  0  0
 15 16  3  0  0  0  0
  8 17  1  0  0  0  0
 17 18  1  0  0  0  0
 18 19  1  0  0  0  0
 19 20  2  0  0  0  0
 20 21  1  0  0  0  0
 21 22  1  0  0  0  0
 21 23  1  0  0  0  0
  1 24  1  0  0  0  0
 24 25  2  0  0  0  0
 25 26  1  0  0  0  0
 26 27  1  0  0  0  0
 27 28  2  0  0  0  0
 28 29  1  0  0  0  0
 29 30  2  0  0  0  0
 30 31  1  0  0  0  0
 31 32  1  0  0  0  0
 30 33  1  0  0  0  0
 33 34  2  0  0  0  0
 26 35  1  0  0  0  0
 35 36  2  0  0  0  0
 36 37  1  0  0  0  0
 37 38  2  0  0  0  0
 38 39  1  0  0  0  0
 39 40  1  0  0  0  0
 38 41  1  0  0  0  0
 41 42  2  0  0  0  0
 25 43  1  0  0  0  0
 43 44  1  0  0  0  0
 44 45  1  0  0  0  0
 45 46  2  0  0  0  0
 46 47  1  0  0  0  0
 47 48  1  0  0  0  0
 48 49  2  0  0  0  0
 49 50  1  0  0  0  0
 50 51  2  0  0  0  0
 51 52  1  0  0  0  0
 52 53  1  0  0  0  0
 51 54  1  0  0  0  0
 54 55  2  0  0  0  0
 47 56  1  0  0  0  0
 56 57  2  0  0  0  0
 57 58  1  0  0  0  0
 58 59  2  0  0  0  0
 59 60  1  0  0  0  0
 60 61  1  0  0  0  0
 59 62  1  0  0  0  0
 62 63  2  0  0  0  0
 46 64  1  0  0  0  0
 64 65  1  0  0  0  0
 45 66  1  0  0  0  0
 66 67  2  0  0  0  0
 67 68  1  0  0  0  0
 67 69  1  0  0  0  0
 69 70  1  0  0  0  0
 69 71  2  0  0  0  0
 71 72  1  0  0  0  0
 72 73  1  0  0  0  0
 72 74  2  0  0  0  0
 74 75  1  0  0  0  0
 71 76  1  0  0  0  0
 76 77  1  0  0  0  0
 77 78  1  0  0  0  0
 78 79  1  0  0  0  0
 79 80  2  0  0  0  0
 80 81  1  0  0  0  0
 81 82  1  0  0  0  0
 82 83  1  0  0  0  0
 81 84  1  0  0  0  0
 84 85  1  0  0  0  0
 80 86  1  0  0  0  0
 86 87  2  0  0  0  0
 87 88  1  0  0  0  0
 87 89  1  0  0  0  0
 89 90  2  0  0  0  0
 90 91  1  0  0  0  0
 91 92  2  0  0  0  0
 91 93  1  0  0  0  0
 93 94  2  0  0  0  0
 94 95  1  0  0  0  0
 95 96  2  0  0  0  0
 96 97  1  0  0  0  0
 97 98  2  0  0  0  0
 98 99  1  0  0  0  0
 99100  2  0  0  0  0
100101  1  0  0  0  0
101102  3  0  0  0  0
100103  1  0  0  0  0
103104  3  0  0  0  0
 96105  1  0  0  0  0
105106  1  0  0  0  0
106107  1  0  0  0  0
107108  2  0  0  0  0
108109  1  0  0  0  0
109110  1  0  0  0  0
109111  1  0  0  0  0
 11  2  1  0  0  0  0
 23 17  1  0  0  0  0
 65 24  1  0  0  0  0
 74 66  1  0  0  0  0
 85 76  2  0  0  0  0
 99 90  1  0  0  0  0
111105  1  0  0  0  0
 10  5  1  0  0  0  0
 22 18  1  0  0  0  0
 34 27  1  0  0  0  0
 42 35  1  0  0  0  0
 64 43  2  0  0  0  0
 84 78  2  0  0  0  0
 98 93  1  0  0  0  0
110106  1  0  0  0  0
 23  7  1  0  0  0  0
 55 48  1  0  0  0  0
 63 56  1  0  0  0  0
 88 79  1  0  0  0  0
111 95  1  0  0  0  0
  1112  1  0  0  0  0
  6113  1  0  0  0  0
  9114  1  0  0  0  0
 17115  1  0  0  0  0
 18116  1  0  0  0  0
 19117  1  0  0  0  0
 20118  1  0  0  0  0
 21119  1  0  0  0  0
 22120  1  0  0  0  0
 22121  1  0  0  0  0
 23122  1  0  0  0  0
 28123  1  0  0  0  0
 29124  1  0  0  0  0
 32125  1  0  0  0  0
 32126  1  0  0  0  0
 32127  1  0  0  0  0
 33128  1  0  0  0  0
 34129  1  0  0  0  0
 36130  1  0  0  0  0
 37131  1  0  0  0  0
 40132  1  0  0  0  0
 40133  1  0  0  0  0
 40134  1  0  0  0  0
 41135  1  0  0  0  0
 42136  1  0  0  0  0
 49137  1  0  0  0  0
 50138  1  0  0  0  0
 53139  1  0  0  0  0
 53140  1  0  0  0  0
 53141  1  0  0  0  0
 54142  1  0  0  0  0
 55143  1  0  0  0  0
 57144  1  0  0  0  0
 58145  1  0  0  0  0
 61146  1  0  0  0  0
 61147  1  0  0  0  0
 61148  1  0  0  0  0
 62149  1  0  0  0  0
 63150  1  0  0  0  0
 82151  1  0  0  0  0
 82152  1  0  0  0  0
 83153  1  0  0  0  0
 83154  1  0  0  0  0
 83155  1  0  0  0  0
 85156  1  0  0  0  0
 86157  1  0  0  0  0
 89158  1  0  0  0  0
 94159  1  0  0  0  0
 97160  1  0  0  0  0
105161  1  0  0  0  0
106162  1  0  0  0  0
107163  1  0  0  0  0
108164  1  0  0  0  0
109165  1  0  0  0  0
110166  1  0  0  0  0
110167  1  0  0  0  0
111168  1  0  0  0  0
M  END
