207

C          2.21490        6.97200        0.64860
C          3.46710        7.41550        1.01190
C          4.68700        6.61670        1.12500
O          4.79140        5.39900        1.10410
C          5.79450        7.57010        1.30540
C          7.15090        7.27270        1.41490
C          7.95390        8.37890        1.55980
C          7.44560        9.68370        1.59300
C          6.10870        9.98990        1.48710
C          5.27410        8.87910        1.34070
C          3.81810        8.79990        1.22620
C          2.95670        9.86470        1.33960
C          1.55570        9.77650        1.43030
N          0.41370        9.80550        1.56690
C          3.35140       11.21340        1.43940
N          3.57790       12.33810        1.50000
C          8.81260       10.29760        1.76620
C          9.18080       10.77040        3.18850
C         10.68910       10.86710        3.15800
C         11.17200        9.63170        3.12450
C          9.99830        8.67910        3.13230
C          9.01600        9.47800        3.99870
C          9.37980        8.84220        1.72780
C          1.76790        5.69960        0.29590
C          0.44630        5.41910       -0.13600
N         -0.51900        6.34250       -0.43240
C         -0.22800        7.58900       -1.01150
C         -0.98290        8.70670       -0.66840
C         -0.66470        9.95000       -1.17910
C          0.42780       10.09650       -2.02200
S          0.98470       11.65650       -2.62700
C          0.27960       12.82910       -1.43320
C          1.14190        8.96690       -2.42280
C          0.81160        7.72430       -1.93450
C         -1.86930        5.98890       -0.24020
C         -2.26970        5.40050        0.95520
C         -3.58690        5.03950        1.15740
C         -4.52630        5.26550        0.15940
S         -6.22930        4.84790        0.29230
C         -6.37020        4.06110        1.92060
C         -4.12910        5.87200       -1.03310
C         -2.81650        6.23170       -1.23340
C          0.24210        4.03030       -0.25660
S         -1.10520        3.05600       -0.74110
C         -0.12810        1.61190       -0.57990
C          1.18970        1.87990       -0.23760
N          2.21650        0.95490       -0.20500
C          2.17340       -0.19600       -1.00170
C          1.67500       -0.15150       -2.30500
C          1.48120       -1.31430       -3.01820
C          1.79820       -2.54490       -2.45170
S          1.40530       -4.00620       -3.36530
C          1.05830       -5.19480       -2.03090
C          2.40980       -2.58430       -1.20570
C          2.59360       -1.42120       -0.48720
C          3.31390        1.18410        0.63600
C          4.60500        0.88620        0.20220
C          5.69030        1.21110        0.98590
C          5.50540        1.84310        2.21030
S          6.93190        2.34360        3.13020
C          6.39020        3.98300        3.70700
C          4.22080        2.07560        2.67930
C          3.13180        1.74500        1.89840
C          1.37960        3.26950       -0.02300
S          2.74580        4.23260        0.41470
C         -0.70320        0.31190       -0.84240
C         -1.46230        0.05150       -1.96700
F         -1.73470        1.03680       -2.83880
C         -1.92990       -1.23040       -2.26780
F         -2.67390       -1.38030       -3.37980
C         -1.67190       -2.31860       -1.45740
C         -0.87600       -2.08870       -0.30190
N         -0.52180       -3.12940        0.47250
C          0.15750       -2.91040        1.57150
C          0.52060       -4.11830        2.38270
C          1.89130       -4.66920        1.98360
C          0.50600       -1.58450        1.95530
N          0.20430       -0.56640        1.18720
C         -0.44770       -0.78240        0.03080
C          1.22910       -1.26660        3.23000
C          0.25490       -1.06660        4.39310
C         -2.19430       -3.63570       -1.74460
C         -2.83490       -4.50180       -0.86930
N         -3.21790       -4.20000        0.42280
C         -3.30340       -5.22340        1.37920
C         -4.32160       -5.20050        2.33220
C         -4.44290       -6.22740        3.24020
C         -3.56100       -7.30640        3.21050
S         -3.81200       -8.58820        4.39350
C         -3.06320      -10.03230        3.58570
C         -2.52500       -7.31550        2.28660
C         -2.39420       -6.27810        1.38320
C         -3.44180       -2.87010        0.80120
C         -4.09680       -1.98480       -0.05660
C         -4.14960       -0.63930        0.23570
C         -3.56290       -0.15600        1.40000
S         -3.52370        1.59330        1.65030
C         -1.95680        1.81070        2.54710
C         -3.02960       -1.04830        2.32010
C         -2.96960       -2.39390        2.02300
C         -3.14440       -5.72130       -1.52500
S         -3.82500       -7.22190       -1.00950
C         -3.65550       -7.88480       -2.64020
C         -3.05990       -6.97040       -3.52380
N         -2.73200       -7.20600       -4.83300
C         -2.30950       -8.46250       -5.30070
C         -1.51630       -9.29480       -4.51550
C         -1.12450      -10.53460       -4.97870
C         -1.50770      -10.95810       -6.24590
S         -1.07440      -12.51850       -6.93830
C         -0.40290      -13.44630       -5.53000
C         -2.26900      -10.10930       -7.04840
C         -2.66730       -8.87620       -6.58330
C         -2.64700       -6.09580       -5.69910
C         -1.53340       -5.91030       -6.51590
C         -1.42640       -4.77140       -7.28170
C         -2.42400       -3.79790       -7.24580
S         -2.16210       -2.33900       -8.19710
C         -3.26430       -1.13310       -7.40120
C         -3.56390       -4.01210       -6.48120
C         -3.67280       -5.15500       -5.71530
C         -2.79050       -5.74680       -2.86720
S         -2.06900       -4.26210       -3.37060
C         -4.11790       -9.17310       -2.95220
C         -4.48000      -10.15250       -2.06450
C         -4.93120      -11.39950       -2.54180
N         -5.27950      -12.41820       -2.93920
C         -4.35220      -10.06980       -0.66760
N         -4.21700      -10.08060        0.47400
H          1.44900        7.73510        0.60110
H          7.50210        6.25330        1.37680
H          5.73410       10.99970        1.50810
H          9.12040       10.99780        0.99200
H          8.64030       11.64880        3.53020
H         11.22980       11.79390        3.10860
H         12.19680        9.32020        3.04160
H         10.20400        7.65230        3.42350
H          9.36610        9.58750        5.02380
H          8.00200        9.08190        4.00040
H         10.06490        8.57140        0.92660
H         -1.80620        8.60630        0.02110
H         -1.25830       10.79940       -0.88550
H          0.80790       13.76410       -1.59060
H          0.45820       12.46730       -0.42490
H         -0.78100       12.96960       -1.62090
H          1.96110        9.08170       -3.11590
H          1.37340        6.85470       -2.24130
H         -1.53870        5.24160        1.73540
H         -3.86910        4.58630        2.09310
H         -7.40960        3.76080        2.00910
H         -5.72570        3.18810        1.96270
H         -6.12710        4.77700        2.70040
H         -4.86610        6.04780       -1.80120
H         -2.51150        6.69350       -2.16030
H          1.41680        0.79980       -2.74550
H          1.06840       -1.28320       -4.01480
H          0.47100       -5.98740       -2.48460
H          1.98500       -5.60740       -1.64100
H          0.48400       -4.69950       -1.25160
H          2.73130       -3.52210       -0.78240
H          3.04120       -1.45840        0.49530
H          4.75020        0.43300       -0.76720
H          6.69290        1.01060        0.64130
H          5.79230        3.89160        4.60940
H          5.82620        4.45590        2.90820
H          7.29270        4.54620        3.92310
H          4.06450        2.52450        3.64770
H          2.13040        1.93450        2.25640
H         -0.23580       -4.88470        2.20450
H          0.52110       -3.87200        3.44430
H          1.86890       -5.01090        0.95250
H          2.15220       -5.51080        2.62030
H          2.66350       -3.90870        2.08050
H          1.79390       -0.34570        3.07660
H          1.92930       -2.06590        3.47290
H         -0.37490       -1.94270        4.53400
H          0.80700       -0.88590        5.31200
H         -0.38320       -0.20850        4.20060
H         -5.02470       -4.38070        2.33950
H         -5.23750       -6.21960        3.97000
H         -3.43350      -10.89680        4.12780
H         -1.98010       -9.99020        3.66270
H         -3.39270      -10.06900        2.55170
H         -1.81490       -8.12620        2.26240
H         -1.57940       -6.28170        0.67350
H         -4.53690       -2.35450       -0.97070
H         -4.62530        0.05150       -0.44340
H         -2.10110        1.62160        3.60770
H         -1.66820        2.84550        2.39460
H         -1.20710        1.14800        2.12220
H         -2.63950       -0.69690        3.26190
H         -2.52290       -3.08210        2.72520
H         -1.20820       -8.97080       -3.53200
H         -0.51160      -11.15580       -4.34610
H         -0.25430      -14.45850       -5.89290
H          0.54930      -13.02550       -5.21960
H         -1.12250      -13.44760       -4.71660
H         -2.55270      -10.43710       -8.03620
H         -3.26690       -8.22730       -7.20380
H         -0.74450       -6.64710       -6.52170
H         -0.55470       -4.60760       -7.89550
H         -3.13490       -1.18300       -6.32420
H         -4.29650       -1.31570       -7.68580
H         -2.95170       -0.16070       -7.76900
H         -4.36860       -3.29560       -6.47050
H         -4.55510       -5.31720       -5.11300
H         -4.19140       -9.42110       -4.00400
