
  xtb     02082212073D
 energy: -314.574175886341 gnorm: 0.000617335255 xtb: 6.4.1 (unknown)
181199  0     0  0            999 V2000
   -2.1554   -5.6864    1.9580 C   0  0  0  0  0  0  0  0  0  0  0  0
   -3.1414   -5.3534    2.8411 C   0  0  0  0  0  0  0  0  0  0  0  0
   -3.9026   -4.0932    2.8803 C   0  0  0  0  0  0  0  0  0  0  0  0
   -3.6150   -3.0363    2.3502 O   0  0  0  0  0  0  0  0  0  0  0  0
   -5.1054   -4.3747    3.6841 C   0  0  0  0  0  0  0  0  0  0  0  0
   -6.1775   -3.5165    3.9211 C   0  0  0  0  0  0  0  0  0  0  0  0
   -7.1718   -4.0649    4.6955 C   0  0  0  0  0  0  0  0  0  0  0  0
   -7.1106   -5.3734    5.1948 C   0  0  0  0  0  0  0  0  0  0  0  0
   -6.0580   -6.2297    4.9737 C   0  0  0  0  0  0  0  0  0  0  0  0
   -5.0323   -5.6889    4.1931 C   0  0  0  0  0  0  0  0  0  0  0  0
   -3.7673   -6.2771    3.7686 C   0  0  0  0  0  0  0  0  0  0  0  0
   -3.2050   -7.4313    4.2456 C   0  0  0  0  0  0  0  0  0  0  0  0
   -3.8362   -8.3075    5.1522 C   0  0  0  0  0  0  0  0  0  0  0  0
   -4.3058   -9.0586    5.8824 N   0  0  0  0  0  0  0  0  0  0  0  0
   -1.8809   -7.8318    3.9730 C   0  0  0  0  0  0  0  0  0  0  0  0
   -0.7911   -8.1783    3.8654 N   0  0  0  0  0  0  0  0  0  0  0  0
   -8.4489   -5.2603    5.8803 C   0  0  0  0  0  0  0  0  0  0  0  0
   -8.4243   -5.0466    7.4086 C   0  0  0  0  0  0  0  0  0  0  0  0
   -9.7996   -4.5012    7.7189 C   0  0  0  0  0  0  0  0  0  0  0  0
   -9.8574   -3.2616    7.2491 C   0  0  0  0  0  0  0  0  0  0  0  0
   -8.5220   -2.9480    6.6135 C   0  0  0  0  0  0  0  0  0  0  0  0
   -7.5971   -3.7602    7.5293 C   0  0  0  0  0  0  0  0  0  0  0  0
   -8.5162   -3.8007    5.3266 C   0  0  0  0  0  0  0  0  0  0  0  0
   -1.4796   -4.8787    1.0235 C   0  0  0  0  0  0  0  0  0  0  0  0
   -1.5405   -3.1384    0.9945 S   0  0  0  0  0  0  0  0  0  0  0  0
   -0.3185   -3.0717   -0.2308 C   0  0  0  0  0  0  0  0  0  0  0  0
    0.0728   -4.3359   -0.6488 C   0  0  0  0  0  0  0  0  0  0  0  0
    1.1753   -4.5685   -1.5921 C   0  0  0  0  0  0  0  0  0  0  0  0
    1.7376   -3.6686   -2.1977 O   0  0  0  0  0  0  0  0  0  0  0  0
    1.5587   -5.9706   -1.6952 C   0  0  0  0  0  0  0  0  0  0  0  0
    2.5830   -6.4264   -2.4893 C   0  0  0  0  0  0  0  0  0  0  0  0
    3.4709   -5.6283   -3.3718 C   0  0  0  0  0  0  0  0  0  0  0  0
    4.3783   -6.4881   -4.2391 C   0  0  0  0  0  0  0  0  0  0  0  0
    2.7397   -8.1438   -2.3610 S   0  0  0  0  0  0  0  0  0  0  0  0
    1.4124   -8.2615   -1.2603 C   0  0  0  0  0  0  0  0  0  0  0  0
    1.0153   -9.5878   -0.7223 C   0  0  0  0  0  0  0  0  0  0  0  0
    1.4855   -9.7642    0.7244 C   0  0  0  0  0  0  0  0  0  0  0  0
    0.8860   -7.0212   -0.9916 C   0  0  0  0  0  0  0  0  0  0  0  0
   -0.2680   -6.7887   -0.1299 C   0  0  0  0  0  0  0  0  0  0  0  0
   -0.9212   -7.6923    0.3709 O   0  0  0  0  0  0  0  0  0  0  0  0
   -0.5734   -5.3621    0.0719 C   0  0  0  0  0  0  0  0  0  0  0  0
    0.1791   -1.7860   -0.6095 C   0  0  0  0  0  0  0  0  0  0  0  0
    0.6151   -0.8394    0.3106 C   0  0  0  0  0  0  0  0  0  0  0  0
    0.9000   -1.1661    1.6258 N   0  0  0  0  0  0  0  0  0  0  0  0
    1.4662   -2.4366    1.8593 C   0  0  0  0  0  0  0  0  0  0  0  0
    1.0054   -3.2550    2.8855 C   0  0  0  0  0  0  0  0  0  0  0  0
    1.4624   -4.5557    3.0069 C   0  0  0  0  0  0  0  0  0  0  0  0
    2.4007   -5.0500    2.1102 C   0  0  0  0  0  0  0  0  0  0  0  0
    2.9972   -6.7064    2.0943 S   0  0  0  0  0  0  0  0  0  0  0  0
    2.3505   -7.4349    3.6235 C   0  0  0  0  0  0  0  0  0  0  0  0
    2.9138   -4.2080    1.1237 C   0  0  0  0  0  0  0  0  0  0  0  0
    2.4555   -2.9181    1.0004 C   0  0  0  0  0  0  0  0  0  0  0  0
    0.7911   -0.2103    2.6331 C   0  0  0  0  0  0  0  0  0  0  0  0
   -0.2075    0.7635    2.5733 C   0  0  0  0  0  0  0  0  0  0  0  0
   -0.2792    1.7440    3.5368 C   0  0  0  0  0  0  0  0  0  0  0  0
    0.6308    1.7632    4.5897 C   0  0  0  0  0  0  0  0  0  0  0  0
    0.4550    3.0553    5.7839 S   0  0  0  0  0  0  0  0  0  0  0  0
    2.0851    3.1098    6.5847 C   0  0  0  0  0  0  0  0  0  0  0  0
    1.5987    0.7722    4.6781 C   0  0  0  0  0  0  0  0  0  0  0  0
    1.6822   -0.2016    3.7035 C   0  0  0  0  0  0  0  0  0  0  0  0
    0.9070    0.3904   -0.3207 C   0  0  0  0  0  0  0  0  0  0  0  0
    1.3480    1.9664    0.2302 S   0  0  0  0  0  0  0  0  0  0  0  0
    1.4223    2.5442   -1.4348 C   0  0  0  0  0  0  0  0  0  0  0  0
    1.0491    1.5503   -2.3487 C   0  0  0  0  0  0  0  0  0  0  0  0
    1.0402    1.6439   -3.7393 N   0  0  0  0  0  0  0  0  0  0  0  0
    1.6240    0.5426   -4.3970 C   0  0  0  0  0  0  0  0  0  0  0  0
    2.8650    0.0867   -3.9608 C   0  0  0  0  0  0  0  0  0  0  0  0
    3.4453   -1.0309   -4.5236 C   0  0  0  0  0  0  0  0  0  0  0  0
    2.7961   -1.7031   -5.5494 C   0  0  0  0  0  0  0  0  0  0  0  0
    3.4498   -3.1480   -6.3253 S   0  0  0  0  0  0  0  0  0  0  0  0
    5.2209   -3.0630   -5.9224 C   0  0  0  0  0  0  0  0  0  0  0  0
    1.5587   -1.2461   -5.9958 C   0  0  0  0  0  0  0  0  0  0  0  0
    0.9733   -0.1375   -5.4240 C   0  0  0  0  0  0  0  0  0  0  0  0
    0.2482    2.5573   -4.4334 C   0  0  0  0  0  0  0  0  0  0  0  0
    0.5698    2.8873   -5.7506 C   0  0  0  0  0  0  0  0  0  0  0  0
   -0.1854    3.8009   -6.4558 C   0  0  0  0  0  0  0  0  0  0  0  0
   -1.2735    4.4149   -5.8522 C   0  0  0  0  0  0  0  0  0  0  0  0
   -2.3181    5.5804   -6.6755 S   0  0  0  0  0  0  0  0  0  0  0  0
   -1.4005    6.0011   -8.1839 C   0  0  0  0  0  0  0  0  0  0  0  0
   -1.5946    4.0986   -4.5348 C   0  0  0  0  0  0  0  0  0  0  0  0
   -0.8458    3.1818   -3.8321 C   0  0  0  0  0  0  0  0  0  0  0  0
    0.7445    0.3396   -1.6981 C   0  0  0  0  0  0  0  0  0  0  0  0
    0.2297   -1.2164   -2.2580 S   0  0  0  0  0  0  0  0  0  0  0  0
    1.9101    3.8338   -1.7569 C   0  0  0  0  0  0  0  0  0  0  0  0
    2.3107    4.1809   -3.4284 S   0  0  0  0  0  0  0  0  0  0  0  0
    2.7887    5.7906   -3.0523 C   0  0  0  0  0  0  0  0  0  0  0  0
    2.6735    6.0443   -1.7104 C   0  0  0  0  0  0  0  0  0  0  0  0
    2.9358    7.3855   -1.2023 C   0  0  0  0  0  0  0  0  0  0  0  0
    3.2803    8.2909   -1.9517 O   0  0  0  0  0  0  0  0  0  0  0  0
    2.7250    7.5020    0.2345 C   0  0  0  0  0  0  0  0  0  0  0  0
    2.9594    8.6305    0.9789 C   0  0  0  0  0  0  0  0  0  0  0  0
    3.4181    9.9657    0.5177 C   0  0  0  0  0  0  0  0  0  0  0  0
    2.2203   10.8414    0.1372 C   0  0  0  0  0  0  0  0  0  0  0  0
    2.5809    8.3585    2.6441 S   0  0  0  0  0  0  0  0  0  0  0  0
    2.1091    6.7182    2.3487 C   0  0  0  0  0  0  0  0  0  0  0  0
    1.5789    5.8922    3.4633 C   0  0  0  0  0  0  0  0  0  0  0  0
    0.0473    5.9119    3.4611 C   0  0  0  0  0  0  0  0  0  0  0  0
    2.2403    6.4008    1.0192 C   0  0  0  0  0  0  0  0  0  0  0  0
    1.9515    5.0729    0.4698 C   0  0  0  0  0  0  0  0  0  0  0  0
    1.5573    4.1497    1.1767 O   0  0  0  0  0  0  0  0  0  0  0  0
    2.1820    4.9438   -0.9563 C   0  0  0  0  0  0  0  0  0  0  0  0
    3.1448    6.7612   -4.0634 C   0  0  0  0  0  0  0  0  0  0  0  0
    2.1933    7.3115   -4.8491 C   0  0  0  0  0  0  0  0  0  0  0  0
    0.7409    7.1411   -4.5626 C   0  0  0  0  0  0  0  0  0  0  0  0
    0.2407    6.4086   -3.7387 O   0  0  0  0  0  0  0  0  0  0  0  0
    0.0547    8.0923   -5.4531 C   0  0  0  0  0  0  0  0  0  0  0  0
   -1.2981    8.3716   -5.5326 C   0  0  0  0  0  0  0  0  0  0  0  0
   -1.7264    9.2988   -6.4690 C   0  0  0  0  0  0  0  0  0  0  0  0
   -0.7901    9.9182   -7.2845 C   0  0  0  0  0  0  0  0  0  0  0  0
   -1.2241   10.8083   -8.1910 F   0  0  0  0  0  0  0  0  0  0  0  0
    0.5739    9.6718   -7.2091 C   0  0  0  0  0  0  0  0  0  0  0  0
    0.9981    8.7423   -6.2721 C   0  0  0  0  0  0  0  0  0  0  0  0
    2.3375    8.2682   -5.9341 C   0  0  0  0  0  0  0  0  0  0  0  0
    3.5031    8.6188   -6.5541 C   0  0  0  0  0  0  0  0  0  0  0  0
    4.7685    8.0836   -6.2265 C   0  0  0  0  0  0  0  0  0  0  0  0
    5.8191    7.6658   -6.0306 N   0  0  0  0  0  0  0  0  0  0  0  0
    3.5901    9.5367   -7.6232 C   0  0  0  0  0  0  0  0  0  0  0  0
    3.7192   10.2717   -8.4946 N   0  0  0  0  0  0  0  0  0  0  0  0
   -1.8578   -6.7291    1.9141 H   0  0  0  0  0  0  0  0  0  0  0  0
   -6.1896   -2.5185    3.5119 H   0  0  0  0  0  0  0  0  0  0  0  0
   -6.0257   -7.2368    5.3552 H   0  0  0  0  0  0  0  0  0  0  0  0
   -9.2064   -5.9740    5.5622 H   0  0  0  0  0  0  0  0  0  0  0  0
   -8.0977   -5.9090    7.9831 H   0  0  0  0  0  0  0  0  0  0  0  0
  -10.5811   -5.0735    8.1832 H   0  0  0  0  0  0  0  0  0  0  0  0
  -10.6970   -2.5916    7.2426 H   0  0  0  0  0  0  0  0  0  0  0  0
   -8.2852   -1.8979    6.4654 H   0  0  0  0  0  0  0  0  0  0  0  0
   -7.5838   -3.3740    8.5470 H   0  0  0  0  0  0  0  0  0  0  0  0
   -6.5767   -3.8518    7.1616 H   0  0  0  0  0  0  0  0  0  0  0  0
   -9.3194   -3.5398    4.6400 H   0  0  0  0  0  0  0  0  0  0  0  0
    2.8449   -4.9815   -3.9953 H   0  0  0  0  0  0  0  0  0  0  0  0
    4.0657   -4.9559   -2.7442 H   0  0  0  0  0  0  0  0  0  0  0  0
    3.7851   -7.1533   -4.8623 H   0  0  0  0  0  0  0  0  0  0  0  0
    4.9833   -5.8635   -4.8898 H   0  0  0  0  0  0  0  0  0  0  0  0
    5.0406   -7.0928   -3.6225 H   0  0  0  0  0  0  0  0  0  0  0  0
   -0.0741   -9.6651   -0.7440 H   0  0  0  0  0  0  0  0  0  0  0  0
    1.4434  -10.3727   -1.3492 H   0  0  0  0  0  0  0  0  0  0  0  0
    2.5551   -9.5832    0.8047 H   0  0  0  0  0  0  0  0  0  0  0  0
    0.9594   -9.0688    1.3711 H   0  0  0  0  0  0  0  0  0  0  0  0
    1.2711  -10.7752    1.0595 H   0  0  0  0  0  0  0  0  0  0  0  0
    0.2606   -2.8784    3.5712 H   0  0  0  0  0  0  0  0  0  0  0  0
    1.0594   -5.1821    3.7869 H   0  0  0  0  0  0  0  0  0  0  0  0
    2.6629   -6.8331    4.4719 H   0  0  0  0  0  0  0  0  0  0  0  0
    2.7984   -8.4218    3.6859 H   0  0  0  0  0  0  0  0  0  0  0  0
    1.2695   -7.5294    3.5749 H   0  0  0  0  0  0  0  0  0  0  0  0
    3.6682   -4.5871    0.4513 H   0  0  0  0  0  0  0  0  0  0  0  0
    2.8400   -2.2829    0.2169 H   0  0  0  0  0  0  0  0  0  0  0  0
   -0.9279    0.7401    1.7705 H   0  0  0  0  0  0  0  0  0  0  0  0
   -1.0413    2.5053    3.4843 H   0  0  0  0  0  0  0  0  0  0  0  0
    2.2075    2.2646    7.2561 H   0  0  0  0  0  0  0  0  0  0  0  0
    2.1047    4.0334    7.1547 H   0  0  0  0  0  0  0  0  0  0  0  0
    2.8596    3.1238    5.8241 H   0  0  0  0  0  0  0  0  0  0  0  0
    2.3006    0.7521    5.4967 H   0  0  0  0  0  0  0  0  0  0  0  0
    2.4510   -0.9579    3.7649 H   0  0  0  0  0  0  0  0  0  0  0  0
    3.3707    0.6094   -3.1620 H   0  0  0  0  0  0  0  0  0  0  0  0
    4.3967   -1.3706   -4.1488 H   0  0  0  0  0  0  0  0  0  0  0  0
    5.5995   -2.0750   -6.1660 H   0  0  0  0  0  0  0  0  0  0  0  0
    5.3835   -3.2983   -4.8747 H   0  0  0  0  0  0  0  0  0  0  0  0
    5.7034   -3.8074   -6.5482 H   0  0  0  0  0  0  0  0  0  0  0  0
    1.0545   -1.7810   -6.7859 H   0  0  0  0  0  0  0  0  0  0  0  0
    0.0039    0.1986   -5.7596 H   0  0  0  0  0  0  0  0  0  0  0  0
    1.4270    2.4277   -6.2188 H   0  0  0  0  0  0  0  0  0  0  0  0
    0.0912    4.0276   -7.4731 H   0  0  0  0  0  0  0  0  0  0  0  0
   -0.3960    6.3247   -7.9253 H   0  0  0  0  0  0  0  0  0  0  0  0
   -1.9455    6.8211   -8.6413 H   0  0  0  0  0  0  0  0  0  0  0  0
   -1.3795    5.1531   -8.8621 H   0  0  0  0  0  0  0  0  0  0  0  0
   -2.4398    4.5799   -4.0688 H   0  0  0  0  0  0  0  0  0  0  0  0
   -1.1037    2.9442   -2.8112 H   0  0  0  0  0  0  0  0  0  0  0  0
    4.0535    9.8361   -0.3601 H   0  0  0  0  0  0  0  0  0  0  0  0
    3.9897   10.4526    1.3104 H   0  0  0  0  0  0  0  0  0  0  0  0
    1.6726   10.3832   -0.6825 H   0  0  0  0  0  0  0  0  0  0  0  0
    1.5500   10.9627    0.9858 H   0  0  0  0  0  0  0  0  0  0  0  0
    2.5645   11.8217   -0.1803 H   0  0  0  0  0  0  0  0  0  0  0  0
    1.9493    6.2782    4.4148 H   0  0  0  0  0  0  0  0  0  0  0  0
    1.9105    4.8605    3.3337 H   0  0  0  0  0  0  0  0  0  0  0  0
   -0.3252    5.3305    4.2994 H   0  0  0  0  0  0  0  0  0  0  0  0
   -0.3241    5.4719    2.5397 H   0  0  0  0  0  0  0  0  0  0  0  0
   -0.3236    6.9314    3.5439 H   0  0  0  0  0  0  0  0  0  0  0  0
    4.1871    7.0389   -4.1489 H   0  0  0  0  0  0  0  0  0  0  0  0
   -1.9940    7.8710   -4.8795 H   0  0  0  0  0  0  0  0  0  0  0  0
   -2.7703    9.5463   -6.5780 H   0  0  0  0  0  0  0  0  0  0  0  0
    1.2484   10.2014   -7.8614 H   0  0  0  0  0  0  0  0  0  0  0  0
  1  2  2  0  0  0  0
  2  3  1  0  0  0  0
  3  4  2  0  0  0  0
  3  5  1  0  0  0  0
  5  6  2  0  0  0  0
  6  7  1  0  0  0  0
  7  8  2  0  0  0  0
  8  9  1  0  0  0  0
  9 10  2  0  0  0  0
 10 11  1  0  0  0  0
 11 12  2  0  0  0  0
 12 13  1  0  0  0  0
 13 14  3  0  0  0  0
 12 15  1  0  0  0  0
 15 16  3  0  0  0  0
  8 17  1  0  0  0  0
 17 18  1  0  0  0  0
 18 19  1  0  0  0  0
 19 20  2  0  0  0  0
 20 21  1  0  0  0  0
 21 22  1  0  0  0  0
 21 23  1  0  0  0  0
  1 24  1  0  0  0  0
 24 25  1  0  0  0  0
 25 26  1  0  0  0  0
 26 27  2  0  0  0  0
 27 28  1  0  0  0  0
 28 29  2  0  0  0  0
 28 30  1  0  0  0  0
 30 31  2  0  0  0  0
 31 32  1  0  0  0  0
 32 33  1  0  0  0  0
 31 34  1  0  0  0  0
 34 35  1  0  0  0  0
 35 36  1  0  0  0  0
 36 37  1  0  0  0  0
 35 38  2  0  0  0  0
 38 39  1  0  0  0  0
 39 40  2  0  0  0  0
 39 41  1  0  0  0  0
 26 42  1  0  0  0  0
 42 43  2  0  0  0  0
 43 44  1  0  0  0  0
 44 45  1  0  0  0  0
 45 46  2  0  0  0  0
 46 47  1  0  0  0  0
 47 48  2  0  0  0  0
 48 49  1  0  0  0  0
 49 50  1  0  0  0  0
 48 51  1  0  0  0  0
 51 52  2  0  0  0  0
 44 53  1  0  0  0  0
 53 54  2  0  0  0  0
 54 55  1  0  0  0  0
 55 56  2  0  0  0  0
 56 57  1  0  0  0  0
 57 58  1  0  0  0  0
 56 59  1  0  0  0  0
 59 60  2  0  0  0  0
 43 61  1  0  0  0  0
 61 62  1  0  0  0  0
 62 63  1  0  0  0  0
 63 64  2  0  0  0  0
 64 65  1  0  0  0  0
 65 66  1  0  0  0  0
 66 67  2  0  0  0  0
 67 68  1  0  0  0  0
 68 69  2  0  0  0  0
 69 70  1  0  0  0  0
 70 71  1  0  0  0  0
 69 72  1  0  0  0  0
 72 73  2  0  0  0  0
 65 74  1  0  0  0  0
 74 75  2  0  0  0  0
 75 76  1  0  0  0  0
 76 77  2  0  0  0  0
 77 78  1  0  0  0  0
 78 79  1  0  0  0  0
 77 80  1  0  0  0  0
 80 81  2  0  0  0  0
 64 82  1  0  0  0  0
 82 83  1  0  0  0  0
 63 84  1  0  0  0  0
 84 85  1  0  0  0  0
 85 86  1  0  0  0  0
 86 87  2  0  0  0  0
 87 88  1  0  0  0  0
 88 89  2  0  0  0  0
 88 90  1  0  0  0  0
 90 91  2  0  0  0  0
 91 92  1  0  0  0  0
 92 93  1  0  0  0  0
 91 94  1  0  0  0  0
 94 95  1  0  0  0  0
 95 96  1  0  0  0  0
 96 97  1  0  0  0  0
 95 98  2  0  0  0  0
 98 99  1  0  0  0  0
 99100  2  0  0  0  0
 99101  1  0  0  0  0
 86102  1  0  0  0  0
102103  2  0  0  0  0
103104  1  0  0  0  0
104105  2  0  0  0  0
104106  1  0  0  0  0
106107  2  0  0  0  0
107108  1  0  0  0  0
108109  2  0  0  0  0
109110  1  0  0  0  0
109111  1  0  0  0  0
111112  2  0  0  0  0
112113  1  0  0  0  0
113114  2  0  0  0  0
114115  1  0  0  0  0
115116  3  0  0  0  0
114117  1  0  0  0  0
117118  3  0  0  0  0
 11  2  1  0  0  0  0
 23 17  1  0  0  0  0
 41 24  2  0  0  0  0
 83 42  1  0  0  0  0
101 84  2  0  0  0  0
113103  1  0  0  0  0
 10  5  1  0  0  0  0
 22 18  1  0  0  0  0
 41 27  1  0  0  0  0
 52 45  1  0  0  0  0
 60 53  1  0  0  0  0
 82 61  2  0  0  0  0
101 87  1  0  0  0  0
112106  1  0  0  0  0
 23  7  1  0  0  0  0
 38 30  1  0  0  0  0
 73 66  1  0  0  0  0
 81 74  1  0  0  0  0
 98 90  1  0  0  0  0
  1119  1  0  0  0  0
  6120  1  0  0  0  0
  9121  1  0  0  0  0
 17122  1  0  0  0  0
 18123  1  0  0  0  0
 19124  1  0  0  0  0
 20125  1  0  0  0  0
 21126  1  0  0  0  0
 22127  1  0  0  0  0
 22128  1  0  0  0  0
 23129  1  0  0  0  0
 32130  1  0  0  0  0
 32131  1  0  0  0  0
 33132  1  0  0  0  0
 33133  1  0  0  0  0
 33134  1  0  0  0  0
 36135  1  0  0  0  0
 36136  1  0  0  0  0
 37137  1  0  0  0  0
 37138  1  0  0  0  0
 37139  1  0  0  0  0
 46140  1  0  0  0  0
 47141  1  0  0  0  0
 50142  1  0  0  0  0
 50143  1  0  0  0  0
 50144  1  0  0  0  0
 51145  1  0  0  0  0
 52146  1  0  0  0  0
 54147  1  0  0  0  0
 55148  1  0  0  0  0
 58149  1  0  0  0  0
 58150  1  0  0  0  0
 58151  1  0  0  0  0
 59152  1  0  0  0  0
 60153  1  0  0  0  0
 67154  1  0  0  0  0
 68155  1  0  0  0  0
 71156  1  0  0  0  0
 71157  1  0  0  0  0
 71158  1  0  0  0  0
 72159  1  0  0  0  0
 73160  1  0  0  0  0
 75161  1  0  0  0  0
 76162  1  0  0  0  0
 79163  1  0  0  0  0
 79164  1  0  0  0  0
 79165  1  0  0  0  0
 80166  1  0  0  0  0
 81167  1  0  0  0  0
 92168  1  0  0  0  0
 92169  1  0  0  0  0
 93170  1  0  0  0  0
 93171  1  0  0  0  0
 93172  1  0  0  0  0
 96173  1  0  0  0  0
 96174  1  0  0  0  0
 97175  1  0  0  0  0
 97176  1  0  0  0  0
 97177  1  0  0  0  0
102178  1  0  0  0  0
107179  1  0  0  0  0
108180  1  0  0  0  0
111181  1  0  0  0  0
M  END
