153

C         -2.00480        5.35530        1.29970
C         -3.32550        5.37530        0.91780
C         -4.07740        4.28000        0.29910
O         -3.79020        3.09370        0.27630
C         -5.29440        4.88420       -0.26770
C         -6.27090        4.24670       -1.02800
C         -7.30870        5.06610       -1.40260
C         -7.36990        6.41940       -1.04700
C         -6.40320        7.06400       -0.31050
C         -5.33610        6.25030        0.07800
C         -4.14140        6.56700        0.86100
C         -3.85210        7.79040        1.41680
C         -4.59690        8.96300        1.18570
N         -5.13070        9.96260        0.99660
C         -2.78920        8.04650        2.30480
N         -1.97560        8.32550        3.06770
C         -8.69450        6.62310       -1.73870
C         -9.96590        6.68300       -0.85600
C         -9.66290        5.88730        0.38920
C         -9.60410        4.60720        0.04750
C         -9.86540        4.51430       -1.43550
C        -10.85290        5.67910       -1.60960
C         -8.62360        5.11560       -2.13930
C         -1.04910        4.34450        1.17570
C          0.34460        4.54540        1.32610
N          0.97640        5.74060        1.55080
C          2.19200        5.71620        2.26520
C          3.29530        6.43240        1.81470
C          4.48790        6.39240        2.50940
C          4.59680        5.62910        3.66600
S          6.05690        5.50290        4.63570
C          7.31110        6.37660        3.65510
C          3.48730        4.91890        4.12480
C          2.29770        4.96410        3.43600
C          0.52950        6.96270        1.02220
C          0.69400        8.13930        1.75310
C          0.22040        9.33400        1.25790
C         -0.44490        9.37920        0.03520
S         -1.07330       10.94560       -0.47480
C         -2.30700       10.51620       -1.73600
C         -0.57000        8.21600       -0.71660
C         -0.07340        7.02290       -0.23320
C          1.04310        3.33070        1.17290
S          2.72090        2.89460        1.21600
C          2.30760        1.23130        0.81220
C          0.93300        1.02590        0.71310
N          0.28910       -0.18230        0.54310
C         -0.98330       -0.15260       -0.06580
C         -2.07880       -0.72910        0.56640
C         -3.34260       -0.58470        0.03230
C         -3.52460        0.13690       -1.14050
S         -5.12050        0.43360       -1.83030
C         -6.16950        0.46020       -0.34480
C         -2.42120        0.64940       -1.81420
C         -1.15890        0.50780       -1.28020
C          0.79480       -1.38540        1.04190
C          0.61060       -2.56520        0.32160
C          1.22540       -3.73810        0.71450
C          2.03440       -3.75200        1.84290
S          2.96380       -5.15430        2.37310
C          2.24840       -6.53520        1.44040
C          2.16100       -2.59270        2.60870
C          1.54150       -1.42650        2.22250
C          0.22900        2.24240        0.89790
S         -1.44090        2.66540        0.80360
C          3.33260        0.25530        0.67470
C          4.46110        0.07350        1.47020
C          4.81120        0.94940        2.51210
N          5.10110        1.65400        3.36980
C          5.13810       -1.13010        1.20160
C          4.56430       -1.86220        0.19030
S          3.21830       -1.00270       -0.51480
C          4.83640       -3.19230       -0.21880
C          4.16560       -3.87100       -1.22670
C          4.48080       -5.21410       -1.36040
C          5.42110       -5.69960       -0.46230
Se         6.03360       -4.31340        0.67220
C          5.97570       -6.98660       -0.32670
C          5.49320       -8.18890       -0.77410
C          4.11170       -8.48970       -1.20540
O          3.18710       -7.71700       -1.38000
C          4.03010       -9.95680       -1.30780
C          2.90360      -10.70390       -1.64770
C          3.11880      -12.06040       -1.67030
C          4.36100      -12.63400       -1.36670
C          5.47730      -11.90940       -1.02230
C          5.28210      -10.52480       -1.00170
C          6.21800       -9.44410       -0.70430
C          7.56450       -9.59320       -0.49210
C          8.48540       -8.53700       -0.32600
N          9.30220       -7.73760       -0.21070
C          8.23270      -10.83460       -0.45470
N          8.83940      -11.80840       -0.40670
C          3.85890      -14.03760       -1.59720
C          4.26480      -14.70170       -2.93010
C          3.26740      -15.82600       -3.09240
C          2.09110      -15.28370       -3.38020
C          2.27370      -13.78350       -3.41770
C          3.70820      -13.70580       -3.95600
C          2.47430      -13.39800       -1.93650
H         -1.61320        6.28630        1.68700
H         -6.17880        3.20510       -1.29110
H         -6.46250        8.10840       -0.05300
H         -8.70900        7.36360       -2.53600
H        -10.36080        7.68350       -0.70140
H         -9.47130        6.32840        1.34990
H         -9.35360        3.76540        0.66660
H        -10.16950        3.54030       -1.81030
H        -11.80520        5.50200       -1.11190
H        -11.02620        5.94900       -2.65040
H         -8.58750        4.87080       -3.19900
H          3.21800        7.01890        0.91100
H          5.32560        6.95630        2.13290
H          8.24410        6.24810        4.19480
H          7.38880        5.92340        2.67150
H          7.06930        7.43340        3.58810
H          3.57690        4.33200        5.02500
H          1.43830        4.42000        3.79910
H          1.16840        8.10550        2.72110
H          0.32810       10.24060        1.83120
H         -2.85750       11.43150       -1.92840
H         -1.82110       10.18120       -2.64800
H         -2.98060        9.76000       -1.34380
H         -1.04360        8.22990       -1.68540
H         -0.17090        6.12440       -0.82500
H         -1.93760       -1.26610        1.49290
H         -4.18260       -1.02080        0.54860
H         -5.68450        1.07920        0.40420
H         -6.34090       -0.54770        0.02170
H         -7.11530        0.89940       -0.64770
H         -2.56760        1.18000       -2.74210
H         -0.30170        0.93230       -1.78250
H          0.01090       -2.54700       -0.57620
H          1.09610       -4.62460        0.11520
H          2.67610       -7.43240        1.87870
H          1.17090       -6.53950        1.57340
H          2.51940       -6.48150        0.38940
H          2.75830       -2.61970        3.50730
H          1.64570       -0.53600        2.82460
H          5.98960       -1.47500        1.76510
H          3.44030       -3.37320       -1.84930
H          4.03340       -5.84050       -2.11050
H          6.90140       -7.01410        0.23990
H          1.96500      -10.22040       -1.86960
H          6.42200      -12.36700       -0.78130
H          3.92730      -14.71310       -0.74670
H          5.31630      -14.96440       -3.00560
H          3.50040      -16.86220       -2.93200
H          1.14510      -15.77620       -3.50830
H          1.51080      -13.21060       -3.93820
H          3.78560      -14.07940       -4.97570
H          4.15160      -12.71350       -3.89760
H          1.61820      -13.64650       -1.31200
