193

C          7.95670       -0.33440        4.97840
C          8.78260        0.70780        5.28820
C          8.73480        2.06500        4.71430
O          8.03210        2.46470        3.80510
C          9.71860        2.86190        5.46590
C          9.99000        4.21910        5.30890
C         10.94650        4.70200        6.16880
C         11.58240        3.89440        7.12170
C         11.32590        2.55420        7.28550
C         10.36130        2.03980        6.41380
C          9.83160        0.68380        6.29320
C         10.28010       -0.40670        6.99290
C          9.80130       -1.72760        6.86550
N          9.48220       -2.83080        6.82420
C         11.32110       -0.37260        7.94500
N         12.15890       -0.42720        8.72820
C         12.42020        5.03350        7.64520
C         13.90710        5.09140        7.21660
C         13.99730        4.38230        5.88810
C         13.39940        5.14360        4.98150
C         12.89420        6.38170        5.68050
C         13.98550        6.55360        6.74920
C         11.71600        5.93200        6.58010
C          6.88520       -0.41730        4.06550
C          6.12670       -1.56710        3.93990
C          5.07600       -1.46730        3.01740
C          4.12040       -2.45740        2.66990
C          4.23690       -3.81480        3.14760
C          5.38030       -4.55320        3.32510
C          5.14000       -5.85760        3.78280
C          3.81210       -6.11210        3.96690
S          3.08060       -7.59800        4.53600
C          3.71240       -7.61790        6.25810
C          3.22140       -6.42420        7.05050
S          2.82620       -4.74420        3.56280
C          3.07560       -2.03470        1.86190
C          2.99270       -0.72620        1.32160
C          4.02940        0.20780        1.53810
C          4.05410        1.45620        0.81840
C          3.66410        1.67880       -0.47920
C          3.87710        2.99130       -0.91880
C          4.42730        3.78720        0.04950
S          4.81260        5.47660       -0.12700
C          5.76130        5.77530        1.41220
C          6.34240        7.17450        1.39260
S          4.69560        2.91350        1.52560
C          5.02190       -0.17110        2.43940
S          6.31340        0.84960        3.00310
C          1.78620       -0.52620        0.62430
C          0.97830       -1.63330        0.56920
S          1.70680       -3.00430        1.37690
C         -0.27460       -1.67690       -0.09840
C         -1.12630       -2.73250       -0.40400
N         -0.98660       -4.06590       -0.04840
C         -0.83470       -4.47150        1.27940
C         -0.27090       -5.71390        1.56940
C         -0.13020       -6.13690        2.87410
C         -0.54700       -5.32020        3.91820
S         -0.40180       -5.77980        5.61590
C         -0.44680       -7.59640        5.54550
C         -1.08580       -4.06870        3.63690
C         -1.23500       -3.64900        2.33330
C         -1.28980       -4.99610       -1.05880
C         -2.12620       -6.08800       -0.82710
C         -2.43660       -6.94960       -1.85430
C         -1.92940       -6.74140       -3.13680
S         -2.42130       -7.90060       -4.37170
C         -1.45770       -7.42290       -5.83560
C         -1.09720       -5.65540       -3.37180
C         -0.77900       -4.79620       -2.33880
C         -2.19390       -2.29180       -1.22840
S         -3.54630       -3.07860       -1.95640
C         -4.09790       -1.55700       -2.65020
C         -3.27170       -0.49050       -2.30850
N         -3.35460        0.80130       -2.78550
C         -4.52490        1.58160       -2.58360
C         -4.93350        1.89230       -1.29040
C         -6.00730        2.73240       -1.09500
C         -6.70660        3.24420       -2.18620
S         -8.08240        4.27480       -1.80870
C         -8.62020        4.89410       -3.42410
C         -6.31320        2.91410       -3.47800
C         -5.21360        2.09910       -3.67100
C         -2.17010        1.46980       -3.11050
C         -1.12420        0.78060       -3.73160
C          0.06490        1.41510       -4.00530
C          0.24010        2.76000       -3.68240
S          1.82090        3.45590       -4.03810
C          1.74380        5.12210       -3.32120
C         -0.81420        3.46430       -3.11750
C         -2.00540        2.82530       -2.83510
C         -2.18780       -0.94050       -1.51090
S         -0.84720       -0.14760       -0.76650
C         -5.22660       -1.56640       -3.53000
C         -6.41080       -0.83940       -3.46750
C         -7.17860       -1.14600       -4.61370
C         -6.43930       -2.08590       -5.42350
O         -6.66480       -2.59970       -6.49690
N         -5.26960       -2.33350       -4.66910
C         -4.27420       -3.26240       -5.14860
C         -4.64750       -4.69980       -4.79800
C         -8.38370       -0.44490       -4.55110
N         -8.39340        0.24130       -3.35840
C         -9.53450        0.87360       -2.74060
C        -10.60480       -0.14510       -2.35950
C         -7.24420       -0.03840       -2.59310
O         -7.11340        0.28380       -1.43260
C         -9.39340       -0.53920       -5.53270
C        -10.25360        0.42820       -5.99600
C         -9.95450        1.86360       -5.95990
O         -9.03320        2.41810       -5.39130
C        -10.95080        2.49840       -6.85250
C        -11.10880        3.84080       -7.14470
Cl       -10.01290        5.02120       -6.57670
C        -12.20400        4.22980       -7.92760
Cl       -12.42030        5.87550       -8.34040
C        -13.13820        3.28010       -8.33320
Cl       -14.51580        3.78810       -9.21090
C        -12.97730        1.91730       -8.02930
Cl       -14.25700        0.85230       -8.43890
C        -11.83280        1.51340       -7.34960
C        -11.35700        0.20580       -6.90660
C        -11.81020       -1.04010       -7.27270
C        -11.50080       -2.21670       -6.55400
N        -11.38970       -3.19900       -5.96920
C        -12.55100       -1.37380       -8.42440
N        -13.02840       -1.77750       -9.38750
H          8.10870       -1.25740        5.52510
H          9.46970        4.80510        4.56730
H         11.82150        1.95060        8.02700
H         12.28050        5.28310        8.69510
H         14.60970        4.77070        7.98080
H         14.42300        3.40440        5.75950
H         13.22540        4.92880        3.94340
H         12.67640        7.23650        5.04550
H         14.95500        6.80810        6.32380
H         13.72400        7.27190        7.52500
H         11.12060        6.77160        6.93390
H          6.31530       -2.43890        4.54050
H          6.36140       -4.18920        3.07880
H          5.91240       -6.58390        3.96220
H          4.80020       -7.65330        6.20860
H          3.33890       -8.55450        6.67030
H          3.61680       -5.49910        6.63540
H          2.13520       -6.36950        7.03380
H          3.55300       -6.50810        8.08330
H          3.28830        0.90300       -1.12150
H          3.65790        3.33460       -1.91220
H          5.07390        5.64090        2.24820
H          6.54350        5.01710        1.46180
H          7.00880        7.29920        0.54220
H          5.55070        7.91690        1.32210
H          6.90500        7.34970        2.30680
H          1.49500        0.41950        0.20390
H          0.07120       -6.34510        0.76350
H          0.32630       -7.09390        3.06970
H          0.50070       -7.98530        5.18420
H         -1.26800       -7.90750        4.90770
H         -0.61970       -7.92890        6.56440
H         -1.39860       -3.43390        4.45150
H         -1.67350       -2.68420        2.12640
H         -2.53790       -6.24690        0.15780
H         -3.08880       -7.79140       -1.68070
H         -1.75420       -6.43640       -6.18080
H         -1.69790       -8.16190       -6.59350
H         -0.39660       -7.45950       -5.60810
H         -0.68690       -5.46740       -4.35070
H         -0.12540       -3.95570       -2.52400
H         -4.39940        1.48300       -0.44660
H         -6.32920        2.98500       -0.09720
H         -7.82440        5.47940       -3.87580
H         -8.90410        4.06250       -4.06160
H         -9.48000        5.52720       -3.22790
H         -6.86060        3.26460       -4.33650
H         -4.89350        1.85170       -4.67250
H         -1.24980       -0.26010       -3.99250
H          0.87560        0.87760       -4.47300
H          1.01590        5.72530       -3.85580
H          2.73610        5.54410       -3.45010
H          1.50860        5.05790       -2.26290
H         -0.71940        4.51090       -2.87800
H         -2.81020        3.37990       -2.37760
H         -4.24000       -3.15440       -6.23710
H         -3.30150       -2.99620       -4.72850
H         -3.90630       -5.38480       -5.19700
H         -5.61320       -4.94300       -5.23290
H         -4.70050       -4.83660       -3.72050
H         -9.15150        1.36310       -1.84090
H         -9.94450        1.63260       -3.40600
H        -11.44000        0.36110       -1.88370
H        -10.19600       -0.87220       -1.66200
H        -10.97000       -0.67440       -3.23790
H         -9.40900       -1.50650       -6.02340
