
  xtb     02082219043D
 energy: -370.992052750881 gnorm: 0.000310114393 xtb: 6.4.1 (unknown)
222246  0     0  0            999 V2000
    0.4592    4.0348   -2.9465 C   0  0  0  0  0  0  0  0  0  0  0  0
    0.3603    5.3973   -2.9953 C   0  0  0  0  0  0  0  0  0  0  0  0
   -0.8307    6.2769   -3.0543 C   0  0  0  0  0  0  0  0  0  0  0  0
   -1.9535    6.0104   -3.4375 O   0  0  0  0  0  0  0  0  0  0  0  0
   -0.3729    7.6090   -2.6135 C   0  0  0  0  0  0  0  0  0  0  0  0
   -1.1636    8.7298   -2.3725 C   0  0  0  0  0  0  0  0  0  0  0  0
   -0.4599    9.8261   -1.9352 C   0  0  0  0  0  0  0  0  0  0  0  0
    0.9292    9.8109   -1.7492 C   0  0  0  0  0  0  0  0  0  0  0  0
    1.7225    8.7160   -1.9953 C   0  0  0  0  0  0  0  0  0  0  0  0
    1.0252    7.5925   -2.4474 C   0  0  0  0  0  0  0  0  0  0  0  0
    1.5123    6.2719   -2.8300 C   0  0  0  0  0  0  0  0  0  0  0  0
    2.8257    5.9589   -3.0616 C   0  0  0  0  0  0  0  0  0  0  0  0
    3.9101    6.8299   -2.8347 C   0  0  0  0  0  0  0  0  0  0  0  0
    4.8534    7.4602   -2.6524 N   0  0  0  0  0  0  0  0  0  0  0  0
    3.2951    4.7593   -3.6329 C   0  0  0  0  0  0  0  0  0  0  0  0
    3.7928    3.8547   -4.1377 N   0  0  0  0  0  0  0  0  0  0  0  0
    0.9638   11.2465   -1.2892 C   0  0  0  0  0  0  0  0  0  0  0  0
    1.4613   12.3137   -2.2948 C   0  0  0  0  0  0  0  0  0  0  0  0
    1.1798   11.7673   -3.6726 C   0  0  0  0  0  0  0  0  0  0  0  0
   -0.1341   11.7830   -3.8534 C   0  0  0  0  0  0  0  0  0  0  0  0
   -0.7647   12.3397   -2.6009 C   0  0  0  0  0  0  0  0  0  0  0  0
    0.3221   13.3381   -2.1712 C   0  0  0  0  0  0  0  0  0  0  0  0
   -0.5831   11.2650   -1.5004 C   0  0  0  0  0  0  0  0  0  0  0  0
   -0.5117    2.9988   -2.8326 C   0  0  0  0  0  0  0  0  0  0  0  0
   -1.8924    3.1728   -2.7283 C   0  0  0  0  0  0  0  0  0  0  0  0
   -2.7669    2.1193   -2.5167 C   0  0  0  0  0  0  0  0  0  0  0  0
   -2.3267    0.8054   -2.4854 C   0  0  0  0  0  0  0  0  0  0  0  0
   -0.9190    0.5808   -2.5740 C   0  0  0  0  0  0  0  0  0  0  0  0
   -0.4576   -0.6712   -2.5022 N   0  0  0  0  0  0  0  0  0  0  0  0
    0.8331   -0.9033   -2.5287 C   0  0  0  0  0  0  0  0  0  0  0  0
    1.1763   -2.3278   -2.6165 C   0  0  0  0  0  0  0  0  0  0  0  0
    2.1582   -2.8045   -3.4835 C   0  0  0  0  0  0  0  0  0  0  0  0
    2.3821   -4.1649   -3.5909 C   0  0  0  0  0  0  0  0  0  0  0  0
    1.6245   -5.0609   -2.8516 C   0  0  0  0  0  0  0  0  0  0  0  0
    0.6292   -4.5912   -2.0116 C   0  0  0  0  0  0  0  0  0  0  0  0
    0.4060   -3.2345   -1.8931 C   0  0  0  0  0  0  0  0  0  0  0  0
    1.7525    0.1887   -2.5084 C   0  0  0  0  0  0  0  0  0  0  0  0
    1.3040    1.4216   -2.6282 N   0  0  0  0  0  0  0  0  0  0  0  0
   -0.0128    1.6594   -2.7039 C   0  0  0  0  0  0  0  0  0  0  0  0
    3.1964    0.0320   -2.3001 C   0  0  0  0  0  0  0  0  0  0  0  0
    3.7358   -1.0497   -1.6032 C   0  0  0  0  0  0  0  0  0  0  0  0
    5.1010   -1.1482   -1.4138 C   0  0  0  0  0  0  0  0  0  0  0  0
    5.9503   -0.1708   -1.9061 C   0  0  0  0  0  0  0  0  0  0  0  0
    5.4228    0.9118   -2.5893 C   0  0  0  0  0  0  0  0  0  0  0  0
    4.0594    1.0135   -2.7851 C   0  0  0  0  0  0  0  0  0  0  0  0
   -3.1690   -0.3275   -2.2211 C   0  0  0  0  0  0  0  0  0  0  0  0
   -3.0065   -1.6407   -2.6805 C   0  0  0  0  0  0  0  0  0  0  0  0
   -2.5109   -1.9965   -3.9010 N   0  0  0  0  0  0  0  0  0  0  0  0
   -2.1131   -0.9798   -4.8049 C   0  0  0  0  0  0  0  0  0  0  0  0
   -3.0152    0.0365   -5.1091 C   0  0  0  0  0  0  0  0  0  0  0  0
   -2.6150    1.1607   -5.8029 C   0  0  0  0  0  0  0  0  0  0  0  0
   -1.2937    1.2844   -6.2130 C   0  0  0  0  0  0  0  0  0  0  0  0
   -0.6387    2.7353   -6.9697 S   0  0  0  0  0  0  0  0  0  0  0  0
   -1.8286    4.0254   -6.5016 C   0  0  0  0  0  0  0  0  0  0  0  0
   -0.4228    0.2155   -6.0228 C   0  0  0  0  0  0  0  0  0  0  0  0
   -0.8269   -0.9072   -5.3307 C   0  0  0  0  0  0  0  0  0  0  0  0
   -2.5317   -3.3659   -4.2686 C   0  0  0  0  0  0  0  0  0  0  0  0
   -1.3726   -4.0776   -4.5407 C   0  0  0  0  0  0  0  0  0  0  0  0
   -1.4263   -5.4287   -4.8272 C   0  0  0  0  0  0  0  0  0  0  0  0
   -2.6450   -6.0911   -4.8459 C   0  0  0  0  0  0  0  0  0  0  0  0
   -2.8166   -7.8185   -5.1494 S   0  0  0  0  0  0  0  0  0  0  0  0
   -1.1204   -8.4502   -4.9987 C   0  0  0  0  0  0  0  0  0  0  0  0
   -3.8167   -5.3719   -4.6164 C   0  0  0  0  0  0  0  0  0  0  0  0
   -3.7600   -4.0258   -4.3319 C   0  0  0  0  0  0  0  0  0  0  0  0
   -3.4307   -2.5590   -1.6850 C   0  0  0  0  0  0  0  0  0  0  0  0
   -3.0147   -4.2113   -1.3482 S   0  0  0  0  0  0  0  0  0  0  0  0
   -3.3966   -3.9925    0.3571 C   0  0  0  0  0  0  0  0  0  0  0  0
   -4.0050   -2.7667    0.5900 C   0  0  0  0  0  0  0  0  0  0  0  0
   -4.4890   -2.3255    1.8365 N   0  0  0  0  0  0  0  0  0  0  0  0
   -5.8422   -2.6537    2.0735 C   0  0  0  0  0  0  0  0  0  0  0  0
   -6.8107   -1.6702    2.2424 C   0  0  0  0  0  0  0  0  0  0  0  0
   -8.1332   -2.0119    2.4527 C   0  0  0  0  0  0  0  0  0  0  0  0
   -8.5108   -3.3474    2.4772 C   0  0  0  0  0  0  0  0  0  0  0  0
  -10.1653   -3.9087    2.7347 S   0  0  0  0  0  0  0  0  0  0  0  0
  -11.1122   -2.3826    2.9984 C   0  0  0  0  0  0  0  0  0  0  0  0
   -7.5475   -4.3344    2.2786 C   0  0  0  0  0  0  0  0  0  0  0  0
   -6.2283   -3.9928    2.0790 C   0  0  0  0  0  0  0  0  0  0  0  0
   -3.8266   -1.3081    2.5212 C   0  0  0  0  0  0  0  0  0  0  0  0
   -2.6036   -0.8104    2.0599 C   0  0  0  0  0  0  0  0  0  0  0  0
   -1.9586    0.2003    2.7344 C   0  0  0  0  0  0  0  0  0  0  0  0
   -2.4951    0.7303    3.9046 C   0  0  0  0  0  0  0  0  0  0  0  0
   -1.6183    2.0774    4.6366 S   0  0  0  0  0  0  0  0  0  0  0  0
   -2.6453    2.5355    6.0614 C   0  0  0  0  0  0  0  0  0  0  0  0
   -3.6572    0.1765    4.4212 C   0  0  0  0  0  0  0  0  0  0  0  0
   -4.3080   -0.8343    3.7410 C   0  0  0  0  0  0  0  0  0  0  0  0
   -3.9926   -1.9599   -0.5634 C   0  0  0  0  0  0  0  0  0  0  0  0
   -4.1510   -0.2488   -0.7514 S   0  0  0  0  0  0  0  0  0  0  0  0
   -2.6429   -4.7226    1.3284 C   0  0  0  0  0  0  0  0  0  0  0  0
   -2.2922   -4.2249    2.5543 C   0  0  0  0  0  0  0  0  0  0  0  0
   -1.0051   -4.6282    2.9763 C   0  0  0  0  0  0  0  0  0  0  0  0
   -0.2318   -3.9032    3.9095 C   0  0  0  0  0  0  0  0  0  0  0  0
   -0.8873   -3.0706    4.9155 C   0  0  0  0  0  0  0  0  0  0  0  0
   -2.0824   -3.5190    5.4910 C   0  0  0  0  0  0  0  0  0  0  0  0
   -2.7247   -2.7885    6.4650 C   0  0  0  0  0  0  0  0  0  0  0  0
   -2.1960   -1.5884    6.9310 C   0  0  0  0  0  0  0  0  0  0  0  0
   -3.1074   -0.6891    8.1553 S   0  0  0  0  0  0  0  0  0  0  0  0
   -1.8242   -0.2314    9.3810 C   0  0  0  0  0  0  0  0  0  0  0  0
   -1.1172   -1.4510    9.9359 C   0  0  0  0  0  0  0  0  0  0  0  0
   -1.0065   -1.1505    6.3604 C   0  0  0  0  0  0  0  0  0  0  0  0
   -0.4363   -0.0008    6.7719 F   0  0  0  0  0  0  0  0  0  0  0  0
   -0.3628   -1.8636    5.3712 C   0  0  0  0  0  0  0  0  0  0  0  0
    1.1393   -3.9849    3.6853 C   0  0  0  0  0  0  0  0  0  0  0  0
    1.7183   -4.9931    2.8768 C   0  0  0  0  0  0  0  0  0  0  0  0
    0.9191   -5.9259    2.1777 C   0  0  0  0  0  0  0  0  0  0  0  0
    1.5430   -7.0674    1.5113 C   0  0  0  0  0  0  0  0  0  0  0  0
    2.5635   -7.7637    2.1679 C   0  0  0  0  0  0  0  0  0  0  0  0
    3.1522   -8.8679    1.5939 C   0  0  0  0  0  0  0  0  0  0  0  0
    2.7728   -9.3218    0.3304 C   0  0  0  0  0  0  0  0  0  0  0  0
    3.6335  -10.7210   -0.3197 S   0  0  0  0  0  0  0  0  0  0  0  0
    2.3418  -11.6735   -1.2021 C   0  0  0  0  0  0  0  0  0  0  0  0
    1.1880  -12.0462   -0.2932 C   0  0  0  0  0  0  0  0  0  0  0  0
    1.7803   -8.6017   -0.3260 C   0  0  0  0  0  0  0  0  0  0  0  0
    1.1564   -7.5169    0.2531 C   0  0  0  0  0  0  0  0  0  0  0  0
    1.3899   -8.9357   -1.5793 F   0  0  0  0  0  0  0  0  0  0  0  0
   -0.4258   -5.5858    2.1080 C   0  0  0  0  0  0  0  0  0  0  0  0
   -1.5576   -6.0153    0.8427 S   0  0  0  0  0  0  0  0  0  0  0  0
    3.0904   -4.7390    2.6030 C   0  0  0  0  0  0  0  0  0  0  0  0
    3.5082   -3.5217    3.0445 C   0  0  0  0  0  0  0  0  0  0  0  0
    2.3192   -2.7604    4.0822 S   0  0  0  0  0  0  0  0  0  0  0  0
    4.6887   -2.8077    2.6441 C   0  0  0  0  0  0  0  0  0  0  0  0
    4.7534   -1.5754    2.0911 C   0  0  0  0  0  0  0  0  0  0  0  0
    6.0970   -0.9471    1.8967 C   0  0  0  0  0  0  0  0  0  0  0  0
    7.1633   -1.4786    2.1102 O   0  0  0  0  0  0  0  0  0  0  0  0
    5.8415    0.4116    1.4014 C   0  0  0  0  0  0  0  0  0  0  0  0
    6.7929    1.3631    1.0357 C   0  0  0  0  0  0  0  0  0  0  0  0
    6.2647    2.5077    0.4904 C   0  0  0  0  0  0  0  0  0  0  0  0
    4.8845    2.6974    0.3253 C   0  0  0  0  0  0  0  0  0  0  0  0
    3.9355    1.7797    0.6998 C   0  0  0  0  0  0  0  0  0  0  0  0
    4.4510    0.6015    1.2508 C   0  0  0  0  0  0  0  0  0  0  0  0
    3.7561   -0.6333    1.5983 C   0  0  0  0  0  0  0  0  0  0  0  0
    2.4487   -0.8780    1.2714 C   0  0  0  0  0  0  0  0  0  0  0  0
    1.5228    0.0860    0.8136 C   0  0  0  0  0  0  0  0  0  0  0  0
    0.6656    0.7711    0.4728 N   0  0  0  0  0  0  0  0  0  0  0  0
    1.8073   -2.1290    1.1703 C   0  0  0  0  0  0  0  0  0  0  0  0
    1.1942   -3.0681    0.9191 N   0  0  0  0  0  0  0  0  0  0  0  0
    5.0661    4.0427   -0.3291 C   0  0  0  0  0  0  0  0  0  0  0  0
    4.7733    5.3070    0.5139 C   0  0  0  0  0  0  0  0  0  0  0  0
    4.9977    4.9165    1.9540 C   0  0  0  0  0  0  0  0  0  0  0  0
    6.3011    4.7411    2.1263 C   0  0  0  0  0  0  0  0  0  0  0  0
    6.9812    5.0104    0.8068 C   0  0  0  0  0  0  0  0  0  0  0  0
    6.0591    6.1043    0.2446 C   0  0  0  0  0  0  0  0  0  0  0  0
    6.6012    3.8392   -0.1331 C   0  0  0  0  0  0  0  0  0  0  0  0
    1.4657    3.6329   -2.8913 H   0  0  0  0  0  0  0  0  0  0  0  0
   -2.2317    8.6983   -2.5212 H   0  0  0  0  0  0  0  0  0  0  0  0
    2.7895    8.7166   -1.8443 H   0  0  0  0  0  0  0  0  0  0  0  0
    1.3425   11.4154   -0.2830 H   0  0  0  0  0  0  0  0  0  0  0  0
    2.4737   12.6655   -2.1157 H   0  0  0  0  0  0  0  0  0  0  0  0
    1.9374   11.3835   -4.3304 H   0  0  0  0  0  0  0  0  0  0  0  0
   -0.6940   11.4148   -4.6931 H   0  0  0  0  0  0  0  0  0  0  0  0
   -1.7793   12.7165   -2.7007 H   0  0  0  0  0  0  0  0  0  0  0  0
    0.4271   14.1708   -2.8649 H   0  0  0  0  0  0  0  0  0  0  0  0
    0.1873   13.7171   -1.1589 H   0  0  0  0  0  0  0  0  0  0  0  0
   -1.2139   11.4493   -0.6328 H   0  0  0  0  0  0  0  0  0  0  0  0
   -2.3050    4.1653   -2.8079 H   0  0  0  0  0  0  0  0  0  0  0  0
   -3.8230    2.3206   -2.4095 H   0  0  0  0  0  0  0  0  0  0  0  0
    2.7357   -2.1093   -4.0765 H   0  0  0  0  0  0  0  0  0  0  0  0
    3.1470   -4.5274   -4.2621 H   0  0  0  0  0  0  0  0  0  0  0  0
    1.8063   -6.1221   -2.9399 H   0  0  0  0  0  0  0  0  0  0  0  0
    0.0064   -5.2746   -1.4578 H   0  0  0  0  0  0  0  0  0  0  0  0
   -0.3649   -2.8569   -1.2408 H   0  0  0  0  0  0  0  0  0  0  0  0
    3.0909   -1.8170   -1.2011 H   0  0  0  0  0  0  0  0  0  0  0  0
    5.5047   -1.9950   -0.8764 H   0  0  0  0  0  0  0  0  0  0  0  0
    7.0159   -0.2572   -1.7548 H   0  0  0  0  0  0  0  0  0  0  0  0
    6.0737    1.6791   -2.9800 H   0  0  0  0  0  0  0  0  0  0  0  0
    3.6492    1.8494   -3.3295 H   0  0  0  0  0  0  0  0  0  0  0  0
   -4.0375   -0.0392   -4.7689 H   0  0  0  0  0  0  0  0  0  0  0  0
   -3.3325    1.9402   -6.0017 H   0  0  0  0  0  0  0  0  0  0  0  0
   -2.7511    3.9135   -7.0639 H   0  0  0  0  0  0  0  0  0  0  0  0
   -1.3559    4.9670   -6.7634 H   0  0  0  0  0  0  0  0  0  0  0  0
   -2.0077    3.9892   -5.4314 H   0  0  0  0  0  0  0  0  0  0  0  0
    0.5897    0.2929   -6.3890 H   0  0  0  0  0  0  0  0  0  0  0  0
   -0.1177   -1.6992   -5.1594 H   0  0  0  0  0  0  0  0  0  0  0  0
   -0.4121   -3.5949   -4.5010 H   0  0  0  0  0  0  0  0  0  0  0  0
   -0.5033   -5.9510   -5.0186 H   0  0  0  0  0  0  0  0  0  0  0  0
   -0.6979   -8.1422   -4.0471 H   0  0  0  0  0  0  0  0  0  0  0  0
   -0.5140   -8.1076   -5.8321 H   0  0  0  0  0  0  0  0  0  0  0  0
   -1.2086   -9.5317   -5.0314 H   0  0  0  0  0  0  0  0  0  0  0  0
   -4.7654   -5.8847   -4.6539 H   0  0  0  0  0  0  0  0  0  0  0  0
   -4.6710   -3.4765   -4.1431 H   0  0  0  0  0  0  0  0  0  0  0  0
   -6.5271   -0.6291    2.1995 H   0  0  0  0  0  0  0  0  0  0  0  0
   -8.8578   -1.2241    2.5816 H   0  0  0  0  0  0  0  0  0  0  0  0
  -12.1323   -2.7021    3.1872 H   0  0  0  0  0  0  0  0  0  0  0  0
  -11.0798   -1.7641    2.1062 H   0  0  0  0  0  0  0  0  0  0  0  0
  -10.7261   -1.8513    3.8634 H   0  0  0  0  0  0  0  0  0  0  0  0
   -7.8488   -5.3707    2.2876 H   0  0  0  0  0  0  0  0  0  0  0  0
   -5.4864   -4.7620    1.9262 H   0  0  0  0  0  0  0  0  0  0  0  0
   -2.1465   -1.2148    1.1699 H   0  0  0  0  0  0  0  0  0  0  0  0
   -1.0347    0.5993    2.3442 H   0  0  0  0  0  0  0  0  0  0  0  0
   -3.6349    2.8296    5.7241 H   0  0  0  0  0  0  0  0  0  0  0  0
   -2.7007    1.7114    6.7661 H   0  0  0  0  0  0  0  0  0  0  0  0
   -2.1436    3.3805    6.5225 H   0  0  0  0  0  0  0  0  0  0  0  0
   -4.0737    0.5160    5.3557 H   0  0  0  0  0  0  0  0  0  0  0  0
   -5.2014   -1.2611    4.1706 H   0  0  0  0  0  0  0  0  0  0  0  0
   -2.8267   -3.4345    3.0427 H   0  0  0  0  0  0  0  0  0  0  0  0
   -2.4949   -4.4692    5.1885 H   0  0  0  0  0  0  0  0  0  0  0  0
   -3.6480   -3.1446    6.8948 H   0  0  0  0  0  0  0  0  0  0  0  0
   -1.1284    0.4675    8.9217 H   0  0  0  0  0  0  0  0  0  0  0  0
   -2.3894    0.2854   10.1566 H   0  0  0  0  0  0  0  0  0  0  0  0
   -0.5643   -1.9671    9.1527 H   0  0  0  0  0  0  0  0  0  0  0  0
   -0.4147   -1.1462   10.7090 H   0  0  0  0  0  0  0  0  0  0  0  0
   -1.8343   -2.1456   10.3687 H   0  0  0  0  0  0  0  0  0  0  0  0
    0.5295   -1.4319    4.9504 H   0  0  0  0  0  0  0  0  0  0  0  0
    2.8707   -7.4508    3.1544 H   0  0  0  0  0  0  0  0  0  0  0  0
    3.9248   -9.4090    2.1177 H   0  0  0  0  0  0  0  0  0  0  0  0
    2.0119  -11.1060   -2.0694 H   0  0  0  0  0  0  0  0  0  0  0  0
    2.8776  -12.5602   -1.5410 H   0  0  0  0  0  0  0  0  0  0  0  0
    1.5484  -12.5864    0.5797 H   0  0  0  0  0  0  0  0  0  0  0  0
    0.4880  -12.6807   -0.8330 H   0  0  0  0  0  0  0  0  0  0  0  0
    0.6559  -11.1589    0.0444 H   0  0  0  0  0  0  0  0  0  0  0  0
    0.3957   -7.0101   -0.3144 H   0  0  0  0  0  0  0  0  0  0  0  0
    3.6781   -5.3504    1.9416 H   0  0  0  0  0  0  0  0  0  0  0  0
    5.6440   -3.3094    2.7762 H   0  0  0  0  0  0  0  0  0  0  0  0
    7.8462    1.1658    1.1609 H   0  0  0  0  0  0  0  0  0  0  0  0
    2.8804    1.9464    0.5631 H   0  0  0  0  0  0  0  0  0  0  0  0
    4.6954    4.1166   -1.3491 H   0  0  0  0  0  0  0  0  0  0  0  0
    3.8266    5.7925    0.2894 H   0  0  0  0  0  0  0  0  0  0  0  0
    4.2054    4.7564    2.6620 H   0  0  0  0  0  0  0  0  0  0  0  0
    6.8151    4.4054    3.0081 H   0  0  0  0  0  0  0  0  0  0  0  0
    8.0454    5.2264    0.8504 H   0  0  0  0  0  0  0  0  0  0  0  0
    6.1062    7.0285    0.8185 H   0  0  0  0  0  0  0  0  0  0  0  0
    6.2208    6.3205   -0.8099 H   0  0  0  0  0  0  0  0  0  0  0  0
    7.2265    3.8038   -1.0225 H   0  0  0  0  0  0  0  0  0  0  0  0
  1  2  2  0  0  0  0
  2  3  1  0  0  0  0
  3  4  2  0  0  0  0
  3  5  1  0  0  0  0
  5  6  2  0  0  0  0
  6  7  1  0  0  0  0
  7  8  2  0  0  0  0
  8  9  1  0  0  0  0
  9 10  2  0  0  0  0
 10 11  1  0  0  0  0
 11 12  2  0  0  0  0
 12 13  1  0  0  0  0
 13 14  3  0  0  0  0
 12 15  1  0  0  0  0
 15 16  3  0  0  0  0
  8 17  1  0  0  0  0
 17 18  1  0  0  0  0
 18 19  1  0  0  0  0
 19 20  2  0  0  0  0
 20 21  1  0  0  0  0
 21 22  1  0  0  0  0
 21 23  1  0  0  0  0
  1 24  1  0  0  0  0
 24 25  2  0  0  0  0
 25 26  1  0  0  0  0
 26 27  2  0  0  0  0
 27 28  1  0  0  0  0
 28 29  2  0  0  0  0
 29 30  1  0  0  0  0
 30 31  1  0  0  0  0
 31 32  2  0  0  0  0
 32 33  1  0  0  0  0
 33 34  2  0  0  0  0
 34 35  1  0  0  0  0
 35 36  2  0  0  0  0
 30 37  2  0  0  0  0
 37 38  1  0  0  0  0
 38 39  2  0  0  0  0
 37 40  1  0  0  0  0
 40 41  2  0  0  0  0
 41 42  1  0  0  0  0
 42 43  2  0  0  0  0
 43 44  1  0  0  0  0
 44 45  2  0  0  0  0
 27 46  1  0  0  0  0
 46 47  2  0  0  0  0
 47 48  1  0  0  0  0
 48 49  1  0  0  0  0
 49 50  2  0  0  0  0
 50 51  1  0  0  0  0
 51 52  2  0  0  0  0
 52 53  1  0  0  0  0
 53 54  1  0  0  0  0
 52 55  1  0  0  0  0
 55 56  2  0  0  0  0
 48 57  1  0  0  0  0
 57 58  2  0  0  0  0
 58 59  1  0  0  0  0
 59 60  2  0  0  0  0
 60 61  1  0  0  0  0
 61 62  1  0  0  0  0
 60 63  1  0  0  0  0
 63 64  2  0  0  0  0
 47 65  1  0  0  0  0
 65 66  1  0  0  0  0
 66 67  1  0  0  0  0
 67 68  2  0  0  0  0
 68 69  1  0  0  0  0
 69 70  1  0  0  0  0
 70 71  2  0  0  0  0
 71 72  1  0  0  0  0
 72 73  2  0  0  0  0
 73 74  1  0  0  0  0
 74 75  1  0  0  0  0
 73 76  1  0  0  0  0
 76 77  2  0  0  0  0
 69 78  1  0  0  0  0
 78 79  2  0  0  0  0
 79 80  1  0  0  0  0
 80 81  2  0  0  0  0
 81 82  1  0  0  0  0
 82 83  1  0  0  0  0
 81 84  1  0  0  0  0
 84 85  2  0  0  0  0
 68 86  1  0  0  0  0
 86 87  1  0  0  0  0
 67 88  1  0  0  0  0
 88 89  2  0  0  0  0
 89 90  1  0  0  0  0
 90 91  2  0  0  0  0
 91 92  1  0  0  0  0
 92 93  2  0  0  0  0
 93 94  1  0  0  0  0
 94 95  2  0  0  0  0
 95 96  1  0  0  0  0
 96 97  1  0  0  0  0
 97 98  1  0  0  0  0
 95 99  1  0  0  0  0
 99100  1  0  0  0  0
 99101  2  0  0  0  0
 91102  1  0  0  0  0
102103  2  0  0  0  0
103104  1  0  0  0  0
104105  1  0  0  0  0
105106  2  0  0  0  0
106107  1  0  0  0  0
107108  2  0  0  0  0
108109  1  0  0  0  0
109110  1  0  0  0  0
110111  1  0  0  0  0
108112  1  0  0  0  0
112113  2  0  0  0  0
112114  1  0  0  0  0
104115  2  0  0  0  0
115116  1  0  0  0  0
103117  1  0  0  0  0
117118  2  0  0  0  0
118119  1  0  0  0  0
118120  1  0  0  0  0
120121  2  0  0  0  0
121122  1  0  0  0  0
122123  2  0  0  0  0
122124  1  0  0  0  0
124125  2  0  0  0  0
125126  1  0  0  0  0
126127  2  0  0  0  0
127128  1  0  0  0  0
128129  2  0  0  0  0
129130  1  0  0  0  0
130131  2  0  0  0  0
131132  1  0  0  0  0
132133  3  0  0  0  0
131134  1  0  0  0  0
134135  3  0  0  0  0
127136  1  0  0  0  0
136137  1  0  0  0  0
137138  1  0  0  0  0
138139  2  0  0  0  0
139140  1  0  0  0  0
140141  1  0  0  0  0
140142  1  0  0  0  0
 11  2  1  0  0  0  0
 23 17  1  0  0  0  0
 39 24  1  0  0  0  0
 45 40  1  0  0  0  0
 87 46  1  0  0  0  0
116 88  1  0  0  0  0
130121  1  0  0  0  0
142136  1  0  0  0  0
 10  5  1  0  0  0  0
 22 18  1  0  0  0  0
 39 28  1  0  0  0  0
 56 49  1  0  0  0  0
 64 57  1  0  0  0  0
 86 65  2  0  0  0  0
115 90  1  0  0  0  0
129124  1  0  0  0  0
141137  1  0  0  0  0
 23  7  1  0  0  0  0
 36 31  1  0  0  0  0
 77 70  1  0  0  0  0
 85 78  1  0  0  0  0
101 92  1  0  0  0  0
119102  1  0  0  0  0
142126  1  0  0  0  0
113105  1  0  0  0  0
  1143  1  0  0  0  0
  6144  1  0  0  0  0
  9145  1  0  0  0  0
 17146  1  0  0  0  0
 18147  1  0  0  0  0
 19148  1  0  0  0  0
 20149  1  0  0  0  0
 21150  1  0  0  0  0
 22151  1  0  0  0  0
 22152  1  0  0  0  0
 23153  1  0  0  0  0
 25154  1  0  0  0  0
 26155  1  0  0  0  0
 32156  1  0  0  0  0
 33157  1  0  0  0  0
 34158  1  0  0  0  0
 35159  1  0  0  0  0
 36160  1  0  0  0  0
 41161  1  0  0  0  0
 42162  1  0  0  0  0
 43163  1  0  0  0  0
 44164  1  0  0  0  0
 45165  1  0  0  0  0
 50166  1  0  0  0  0
 51167  1  0  0  0  0
 54168  1  0  0  0  0
 54169  1  0  0  0  0
 54170  1  0  0  0  0
 55171  1  0  0  0  0
 56172  1  0  0  0  0
 58173  1  0  0  0  0
 59174  1  0  0  0  0
 62175  1  0  0  0  0
 62176  1  0  0  0  0
 62177  1  0  0  0  0
 63178  1  0  0  0  0
 64179  1  0  0  0  0
 71180  1  0  0  0  0
 72181  1  0  0  0  0
 75182  1  0  0  0  0
 75183  1  0  0  0  0
 75184  1  0  0  0  0
 76185  1  0  0  0  0
 77186  1  0  0  0  0
 79187  1  0  0  0  0
 80188  1  0  0  0  0
 83189  1  0  0  0  0
 83190  1  0  0  0  0
 83191  1  0  0  0  0
 84192  1  0  0  0  0
 85193  1  0  0  0  0
 89194  1  0  0  0  0
 93195  1  0  0  0  0
 94196  1  0  0  0  0
 97197  1  0  0  0  0
 97198  1  0  0  0  0
 98199  1  0  0  0  0
 98200  1  0  0  0  0
 98201  1  0  0  0  0
101202  1  0  0  0  0
106203  1  0  0  0  0
107204  1  0  0  0  0
110205  1  0  0  0  0
110206  1  0  0  0  0
111207  1  0  0  0  0
111208  1  0  0  0  0
111209  1  0  0  0  0
113210  1  0  0  0  0
117211  1  0  0  0  0
120212  1  0  0  0  0
125213  1  0  0  0  0
128214  1  0  0  0  0
136215  1  0  0  0  0
137216  1  0  0  0  0
138217  1  0  0  0  0
139218  1  0  0  0  0
140219  1  0  0  0  0
141220  1  0  0  0  0
141221  1  0  0  0  0
142222  1  0  0  0  0
M  END
