
  xtb     02052212273D
 energy: -300.225993936991 gnorm: 0.000762381895 xtb: 6.4.1 (unknown)
186203  0     0  0            999 V2000
    6.8448    2.9574    1.1415 C   0  0  0  0  0  0  0  0  0  0  0  0
    7.1893    4.1077    0.5179 C   0  0  0  0  0  0  0  0  0  0  0  0
    6.3271    4.8450   -0.4539 C   0  0  0  0  0  0  0  0  0  0  0  0
    5.1499    4.6785   -0.6730 O   0  0  0  0  0  0  0  0  0  0  0  0
    7.1871    5.9027   -1.0173 C   0  0  0  0  0  0  0  0  0  0  0  0
    6.8537    6.7905   -2.0386 C   0  0  0  0  0  0  0  0  0  0  0  0
    7.8555    7.6723   -2.3635 C   0  0  0  0  0  0  0  0  0  0  0  0
    9.1001    7.6754   -1.7170 C   0  0  0  0  0  0  0  0  0  0  0  0
    9.4406    6.8111   -0.7055 C   0  0  0  0  0  0  0  0  0  0  0  0
    8.4327    5.9037   -0.3571 C   0  0  0  0  0  0  0  0  0  0  0  0
    8.4350    4.8512    0.6528 C   0  0  0  0  0  0  0  0  0  0  0  0
    9.4290    4.6223    1.5659 C   0  0  0  0  0  0  0  0  0  0  0  0
   10.6123    5.3845    1.6696 C   0  0  0  0  0  0  0  0  0  0  0  0
   11.5932    5.9625    1.8183 N   0  0  0  0  0  0  0  0  0  0  0  0
    9.4102    3.6196    2.5588 C   0  0  0  0  0  0  0  0  0  0  0  0
    9.4705    2.8360    3.3959 N   0  0  0  0  0  0  0  0  0  0  0  0
    9.6182    8.8236   -2.5464 C   0  0  0  0  0  0  0  0  0  0  0  0
    9.6458   10.2080   -1.8647 C   0  0  0  0  0  0  0  0  0  0  0  0
    9.7287   11.1780   -3.0211 C   0  0  0  0  0  0  0  0  0  0  0  0
    8.5524   11.1754   -3.6350 C   0  0  0  0  0  0  0  0  0  0  0  0
    7.6542   10.2041   -2.9034 C   0  0  0  0  0  0  0  0  0  0  0  0
    8.1740   10.3909   -1.4722 C   0  0  0  0  0  0  0  0  0  0  0  0
    8.2321    8.8198   -3.2675 C   0  0  0  0  0  0  0  0  0  0  0  0
    5.6142    2.2298    0.8933 C   0  0  0  0  0  0  0  0  0  0  0  0
    5.1409    1.9166   -0.3939 C   0  0  0  0  0  0  0  0  0  0  0  0
    5.8896    2.0447   -1.5313 O   0  0  0  0  0  0  0  0  0  0  0  0
    7.2114    1.5319   -1.5263 C   0  0  0  0  0  0  0  0  0  0  0  0
    7.2563    0.0173   -1.3555 C   0  0  0  0  0  0  0  0  0  0  0  0
    3.8319    1.4473   -0.5420 C   0  0  0  0  0  0  0  0  0  0  0  0
    3.2783    1.2796   -1.7868 O   0  0  0  0  0  0  0  0  0  0  0  0
    3.6685    0.1176   -2.5158 C   0  0  0  0  0  0  0  0  0  0  0  0
    4.2808    0.4892   -3.8584 C   0  0  0  0  0  0  0  0  0  0  0  0
    3.0460    1.1561    0.5849 C   0  0  0  0  0  0  0  0  0  0  0  0
    3.5748    1.3736    1.8587 C   0  0  0  0  0  0  0  0  0  0  0  0
    4.8351    1.8982    2.0043 C   0  0  0  0  0  0  0  0  0  0  0  0
    1.7168    0.6154    0.4076 C   0  0  0  0  0  0  0  0  0  0  0  0
    1.0900   -0.3691    1.1523 C   0  0  0  0  0  0  0  0  0  0  0  0
    1.7092   -1.1046    2.1586 N   0  0  0  0  0  0  0  0  0  0  0  0
    3.0310   -1.5242    1.9711 C   0  0  0  0  0  0  0  0  0  0  0  0
    3.9440   -1.5102    3.0264 C   0  0  0  0  0  0  0  0  0  0  0  0
    5.2556   -1.8729    2.8167 C   0  0  0  0  0  0  0  0  0  0  0  0
    5.6893   -2.2592    1.5512 C   0  0  0  0  0  0  0  0  0  0  0  0
    7.4046   -2.6542    1.3763 S   0  0  0  0  0  0  0  0  0  0  0  0
    7.4533   -3.6521   -0.1425 C   0  0  0  0  0  0  0  0  0  0  0  0
    4.7828   -2.2894    0.5001 C   0  0  0  0  0  0  0  0  0  0  0  0
    3.4672   -1.9300    0.7119 C   0  0  0  0  0  0  0  0  0  0  0  0
    0.9877   -1.4429    3.3046 C   0  0  0  0  0  0  0  0  0  0  0  0
    1.2272   -2.6441    3.9746 C   0  0  0  0  0  0  0  0  0  0  0  0
    0.4965   -2.9723    5.0930 C   0  0  0  0  0  0  0  0  0  0  0  0
   -0.4984   -2.1190    5.5675 C   0  0  0  0  0  0  0  0  0  0  0  0
   -1.3698   -2.6543    7.0082 S   0  0  0  0  0  0  0  0  0  0  0  0
   -2.6465   -1.3850    7.2427 C   0  0  0  0  0  0  0  0  0  0  0  0
   -0.7405   -0.9239    4.9066 C   0  0  0  0  0  0  0  0  0  0  0  0
    0.0001   -0.5891    3.7896 C   0  0  0  0  0  0  0  0  0  0  0  0
   -0.2269   -0.5994    0.6836 C   0  0  0  0  0  0  0  0  0  0  0  0
   -1.5310   -1.6387    1.1516 S   0  0  0  0  0  0  0  0  0  0  0  0
   -2.5181   -1.0360   -0.1708 C   0  0  0  0  0  0  0  0  0  0  0  0
   -1.8879   -0.0392   -0.8870 C   0  0  0  0  0  0  0  0  0  0  0  0
   -2.4490    0.7324   -1.8925 N   0  0  0  0  0  0  0  0  0  0  0  0
   -1.5844    1.1887   -2.8947 C   0  0  0  0  0  0  0  0  0  0  0  0
   -0.6528    0.3130   -3.4516 C   0  0  0  0  0  0  0  0  0  0  0  0
    0.3207    0.7846   -4.3077 C   0  0  0  0  0  0  0  0  0  0  0  0
    0.3731    2.1362   -4.6098 C   0  0  0  0  0  0  0  0  0  0  0  0
    1.7379    2.7732   -5.5616 S   0  0  0  0  0  0  0  0  0  0  0  0
    2.5196    3.7715   -4.2517 C   0  0  0  0  0  0  0  0  0  0  0  0
   -0.6067    2.9964   -4.1347 C   0  0  0  0  0  0  0  0  0  0  0  0
   -1.5848    2.5273   -3.2829 C   0  0  0  0  0  0  0  0  0  0  0  0
   -3.7990    1.0749   -1.8817 C   0  0  0  0  0  0  0  0  0  0  0  0
   -4.4839    1.2506   -0.6810 C   0  0  0  0  0  0  0  0  0  0  0  0
   -5.8429    1.4877   -0.6704 C   0  0  0  0  0  0  0  0  0  0  0  0
   -6.5438    1.5609   -1.8657 C   0  0  0  0  0  0  0  0  0  0  0  0
   -8.2974    1.7805   -1.9495 S   0  0  0  0  0  0  0  0  0  0  0  0
   -8.8561    1.1857   -0.3267 C   0  0  0  0  0  0  0  0  0  0  0  0
   -5.8521    1.4646   -3.0702 C   0  0  0  0  0  0  0  0  0  0  0  0
   -4.4963    1.2263   -3.0806 C   0  0  0  0  0  0  0  0  0  0  0  0
   -0.5724    0.1868   -0.4033 C   0  0  0  0  0  0  0  0  0  0  0  0
    0.7332    1.1986   -0.9092 S   0  0  0  0  0  0  0  0  0  0  0  0
   -3.8535   -1.5656   -0.3733 C   0  0  0  0  0  0  0  0  0  0  0  0
   -4.2963   -1.8624   -1.6712 C   0  0  0  0  0  0  0  0  0  0  0  0
   -3.3640   -1.6993   -2.6492 O   0  0  0  0  0  0  0  0  0  0  0  0
   -3.2901   -2.5617   -3.7773 C   0  0  0  0  0  0  0  0  0  0  0  0
   -3.6347   -1.8195   -5.0614 C   0  0  0  0  0  0  0  0  0  0  0  0
   -5.6358   -2.2490   -1.8911 C   0  0  0  0  0  0  0  0  0  0  0  0
   -5.9460   -2.5087   -3.1927 O   0  0  0  0  0  0  0  0  0  0  0  0
   -7.2649   -2.7108   -3.6427 C   0  0  0  0  0  0  0  0  0  0  0  0
   -8.0176   -1.4073   -3.8790 C   0  0  0  0  0  0  0  0  0  0  0  0
   -6.4811   -2.4433   -0.7884 C   0  0  0  0  0  0  0  0  0  0  0  0
   -5.9771   -2.2393    0.5035 C   0  0  0  0  0  0  0  0  0  0  0  0
   -4.7025   -1.7858    0.7101 C   0  0  0  0  0  0  0  0  0  0  0  0
   -7.8879   -2.8256   -0.8524 C   0  0  0  0  0  0  0  0  0  0  0  0
   -8.3725   -3.9274   -0.2307 C   0  0  0  0  0  0  0  0  0  0  0  0
   -7.5127   -5.0346    0.2744 C   0  0  0  0  0  0  0  0  0  0  0  0
   -6.3034   -5.0937    0.2616 O   0  0  0  0  0  0  0  0  0  0  0  0
   -8.4438   -6.0867    0.7213 C   0  0  0  0  0  0  0  0  0  0  0  0
   -8.1019   -7.3196    1.2725 C   0  0  0  0  0  0  0  0  0  0  0  0
   -9.1798   -8.1078    1.5946 C   0  0  0  0  0  0  0  0  0  0  0  0
  -10.5049   -7.7063    1.3718 C   0  0  0  0  0  0  0  0  0  0  0  0
  -10.8564   -6.4975    0.8226 C   0  0  0  0  0  0  0  0  0  0  0  0
   -9.7733   -5.6726    0.4983 C   0  0  0  0  0  0  0  0  0  0  0  0
   -9.7615   -4.3327   -0.0769 C   0  0  0  0  0  0  0  0  0  0  0  0
  -10.8661   -3.5797   -0.3749 C   0  0  0  0  0  0  0  0  0  0  0  0
  -10.8385   -2.2611   -0.8729 C   0  0  0  0  0  0  0  0  0  0  0  0
  -10.9033   -1.1825   -1.2626 N   0  0  0  0  0  0  0  0  0  0  0  0
  -12.2005   -4.0072   -0.2072 C   0  0  0  0  0  0  0  0  0  0  0  0
  -13.3099   -4.2828   -0.1020 N   0  0  0  0  0  0  0  0  0  0  0  0
  -11.0708   -8.9859    1.9348 C   0  0  0  0  0  0  0  0  0  0  0  0
  -11.6673   -8.9415    3.3633 C   0  0  0  0  0  0  0  0  0  0  0  0
  -10.9688   -7.8151    4.0840 C   0  0  0  0  0  0  0  0  0  0  0  0
   -9.7146   -8.1887    4.2996 C   0  0  0  0  0  0  0  0  0  0  0  0
   -9.5425   -9.5752    3.7298 C   0  0  0  0  0  0  0  0  0  0  0  0
  -10.9458  -10.1485    3.9840 C   0  0  0  0  0  0  0  0  0  0  0  0
   -9.5954   -9.4296    2.1884 C   0  0  0  0  0  0  0  0  0  0  0  0
    7.4756    2.5621    1.9285 H   0  0  0  0  0  0  0  0  0  0  0  0
    5.8848    6.7481   -2.5109 H   0  0  0  0  0  0  0  0  0  0  0  0
   10.4035    6.8232   -0.2231 H   0  0  0  0  0  0  0  0  0  0  0  0
   10.5121    8.6202   -3.1328 H   0  0  0  0  0  0  0  0  0  0  0  0
   10.3910   10.3143   -1.0812 H   0  0  0  0  0  0  0  0  0  0  0  0
   10.6219   11.7067   -3.2976 H   0  0  0  0  0  0  0  0  0  0  0  0
    8.2667   11.7014   -4.5270 H   0  0  0  0  0  0  0  0  0  0  0  0
    6.5849   10.3083   -3.0665 H   0  0  0  0  0  0  0  0  0  0  0  0
    7.9721   11.3895   -1.0883 H   0  0  0  0  0  0  0  0  0  0  0  0
    7.8067    9.6486   -0.7660 H   0  0  0  0  0  0  0  0  0  0  0  0
    8.2005    8.6129   -4.3356 H   0  0  0  0  0  0  0  0  0  0  0  0
    7.6145    1.8212   -2.5007 H   0  0  0  0  0  0  0  0  0  0  0  0
    7.8212    1.9986   -0.7445 H   0  0  0  0  0  0  0  0  0  0  0  0
    8.2913   -0.3142   -1.3519 H   0  0  0  0  0  0  0  0  0  0  0  0
    6.7959   -0.2637   -0.4094 H   0  0  0  0  0  0  0  0  0  0  0  0
    6.7299   -0.4732   -2.1710 H   0  0  0  0  0  0  0  0  0  0  0  0
    4.3719   -0.4716   -1.9183 H   0  0  0  0  0  0  0  0  0  0  0  0
    2.7606   -0.4825   -2.6673 H   0  0  0  0  0  0  0  0  0  0  0  0
    3.5474    0.9909   -4.4825 H   0  0  0  0  0  0  0  0  0  0  0  0
    4.6209   -0.4089   -4.3692 H   0  0  0  0  0  0  0  0  0  0  0  0
    5.1204    1.1611   -3.7058 H   0  0  0  0  0  0  0  0  0  0  0  0
    2.9707    1.1680    2.7277 H   0  0  0  0  0  0  0  0  0  0  0  0
    5.2196    2.1172    2.9892 H   0  0  0  0  0  0  0  0  0  0  0  0
    3.6183   -1.2088    4.0105 H   0  0  0  0  0  0  0  0  0  0  0  0
    5.9641   -1.8521    3.6301 H   0  0  0  0  0  0  0  0  0  0  0  0
    7.3145   -3.0231   -1.0170 H   0  0  0  0  0  0  0  0  0  0  0  0
    8.4421   -4.0990   -0.1672 H   0  0  0  0  0  0  0  0  0  0  0  0
    6.6964   -4.4285   -0.0899 H   0  0  0  0  0  0  0  0  0  0  0  0
    5.0895   -2.5996   -0.4868 H   0  0  0  0  0  0  0  0  0  0  0  0
    2.7666   -1.9622   -0.1093 H   0  0  0  0  0  0  0  0  0  0  0  0
    1.9832   -3.3205    3.6055 H   0  0  0  0  0  0  0  0  0  0  0  0
    0.6793   -3.9020    5.6096 H   0  0  0  0  0  0  0  0  0  0  0  0
   -3.2380   -1.7186    8.0897 H   0  0  0  0  0  0  0  0  0  0  0  0
   -3.2717   -1.3227    6.3568 H   0  0  0  0  0  0  0  0  0  0  0  0
   -2.1858   -0.4281    7.4709 H   0  0  0  0  0  0  0  0  0  0  0  0
   -1.4958   -0.2366    5.2521 H   0  0  0  0  0  0  0  0  0  0  0  0
   -0.1860    0.3509    3.2911 H   0  0  0  0  0  0  0  0  0  0  0  0
   -0.6897   -0.7309   -3.1790 H   0  0  0  0  0  0  0  0  0  0  0  0
    1.0565    0.1159   -4.7270 H   0  0  0  0  0  0  0  0  0  0  0  0
    1.8745    4.6047   -3.9906 H   0  0  0  0  0  0  0  0  0  0  0  0
    2.7088    3.1446   -3.3847 H   0  0  0  0  0  0  0  0  0  0  0  0
    3.4546    4.1372   -4.6630 H   0  0  0  0  0  0  0  0  0  0  0  0
   -0.5850    4.0401   -4.4099 H   0  0  0  0  0  0  0  0  0  0  0  0
   -2.3305    3.1982   -2.8826 H   0  0  0  0  0  0  0  0  0  0  0  0
   -3.9478    1.2010    0.2545 H   0  0  0  0  0  0  0  0  0  0  0  0
   -6.3446    1.6192    0.2751 H   0  0  0  0  0  0  0  0  0  0  0  0
   -8.7555    1.9695    0.4190 H   0  0  0  0  0  0  0  0  0  0  0  0
   -9.9010    0.9193   -0.4530 H   0  0  0  0  0  0  0  0  0  0  0  0
   -8.2814    0.3069   -0.0479 H   0  0  0  0  0  0  0  0  0  0  0  0
   -6.3974    1.5624   -3.9965 H   0  0  0  0  0  0  0  0  0  0  0  0
   -3.9702    1.1275   -4.0173 H   0  0  0  0  0  0  0  0  0  0  0  0
   -2.2453   -2.8965   -3.8172 H   0  0  0  0  0  0  0  0  0  0  0  0
   -3.9256   -3.4384   -3.6460 H   0  0  0  0  0  0  0  0  0  0  0  0
   -3.5266   -2.4872   -5.9118 H   0  0  0  0  0  0  0  0  0  0  0  0
   -2.9641   -0.9728   -5.1885 H   0  0  0  0  0  0  0  0  0  0  0  0
   -4.6577   -1.4579   -5.0181 H   0  0  0  0  0  0  0  0  0  0  0  0
   -7.1461   -3.2481   -4.5898 H   0  0  0  0  0  0  0  0  0  0  0  0
   -7.8082   -3.3619   -2.9445 H   0  0  0  0  0  0  0  0  0  0  0  0
   -7.5398   -0.8419   -4.6747 H   0  0  0  0  0  0  0  0  0  0  0  0
   -9.0438   -1.6187   -4.1661 H   0  0  0  0  0  0  0  0  0  0  0  0
   -8.0245   -0.7860   -2.9877 H   0  0  0  0  0  0  0  0  0  0  0  0
   -6.6362   -2.4053    1.3421 H   0  0  0  0  0  0  0  0  0  0  0  0
   -4.3435   -1.5905    1.7089 H   0  0  0  0  0  0  0  0  0  0  0  0
   -8.5759   -2.1339   -1.3218 H   0  0  0  0  0  0  0  0  0  0  0  0
   -7.0681   -7.5901    1.4207 H   0  0  0  0  0  0  0  0  0  0  0  0
  -11.8794   -6.2066    0.6523 H   0  0  0  0  0  0  0  0  0  0  0  0
  -11.6724   -9.5817    1.2514 H   0  0  0  0  0  0  0  0  0  0  0  0
  -12.7533   -8.9340    3.3987 H   0  0  0  0  0  0  0  0  0  0  0  0
  -11.4290   -6.8699    4.3053 H   0  0  0  0  0  0  0  0  0  0  0  0
   -8.9164   -7.6178    4.7366 H   0  0  0  0  0  0  0  0  0  0  0  0
   -8.6939  -10.1442    4.1002 H   0  0  0  0  0  0  0  0  0  0  0  0
  -11.1649  -10.2705    5.0436 H   0  0  0  0  0  0  0  0  0  0  0  0
  -11.1342  -11.0841    3.4591 H   0  0  0  0  0  0  0  0  0  0  0  0
   -9.2340  -10.3189    1.6757 H   0  0  0  0  0  0  0  0  0  0  0  0
  1  2  2  0  0  0  0
  2  3  1  0  0  0  0
  3  4  2  0  0  0  0
  3  5  1  0  0  0  0
  5  6  2  0  0  0  0
  6  7  1  0  0  0  0
  7  8  2  0  0  0  0
  8  9  1  0  0  0  0
  9 10  2  0  0  0  0
 10 11  1  0  0  0  0
 11 12  2  0  0  0  0
 12 13  1  0  0  0  0
 13 14  3  0  0  0  0
 12 15  1  0  0  0  0
 15 16  3  0  0  0  0
  8 17  1  0  0  0  0
 17 18  1  0  0  0  0
 18 19  1  0  0  0  0
 19 20  2  0  0  0  0
 20 21  1  0  0  0  0
 21 22  1  0  0  0  0
 21 23  1  0  0  0  0
  1 24  1  0  0  0  0
 24 25  2  0  0  0  0
 25 26  1  0  0  0  0
 26 27  1  0  0  0  0
 27 28  1  0  0  0  0
 25 29  1  0  0  0  0
 29 30  1  0  0  0  0
 30 31  1  0  0  0  0
 31 32  1  0  0  0  0
 29 33  2  0  0  0  0
 33 34  1  0  0  0  0
 34 35  2  0  0  0  0
 33 36  1  0  0  0  0
 36 37  2  0  0  0  0
 37 38  1  0  0  0  0
 38 39  1  0  0  0  0
 39 40  2  0  0  0  0
 40 41  1  0  0  0  0
 41 42  2  0  0  0  0
 42 43  1  0  0  0  0
 43 44  1  0  0  0  0
 42 45  1  0  0  0  0
 45 46  2  0  0  0  0
 38 47  1  0  0  0  0
 47 48  2  0  0  0  0
 48 49  1  0  0  0  0
 49 50  2  0  0  0  0
 50 51  1  0  0  0  0
 51 52  1  0  0  0  0
 50 53  1  0  0  0  0
 53 54  2  0  0  0  0
 37 55  1  0  0  0  0
 55 56  1  0  0  0  0
 56 57  1  0  0  0  0
 57 58  2  0  0  0  0
 58 59  1  0  0  0  0
 59 60  1  0  0  0  0
 60 61  2  0  0  0  0
 61 62  1  0  0  0  0
 62 63  2  0  0  0  0
 63 64  1  0  0  0  0
 64 65  1  0  0  0  0
 63 66  1  0  0  0  0
 66 67  2  0  0  0  0
 59 68  1  0  0  0  0
 68 69  2  0  0  0  0
 69 70  1  0  0  0  0
 70 71  2  0  0  0  0
 71 72  1  0  0  0  0
 72 73  1  0  0  0  0
 71 74  1  0  0  0  0
 74 75  2  0  0  0  0
 58 76  1  0  0  0  0
 76 77  1  0  0  0  0
 57 78  1  0  0  0  0
 78 79  2  0  0  0  0
 79 80  1  0  0  0  0
 80 81  1  0  0  0  0
 81 82  1  0  0  0  0
 79 83  1  0  0  0  0
 83 84  1  0  0  0  0
 84 85  1  0  0  0  0
 85 86  1  0  0  0  0
 83 87  2  0  0  0  0
 87 88  1  0  0  0  0
 88 89  2  0  0  0  0
 87 90  1  0  0  0  0
 90 91  2  0  0  0  0
 91 92  1  0  0  0  0
 92 93  2  0  0  0  0
 92 94  1  0  0  0  0
 94 95  2  0  0  0  0
 95 96  1  0  0  0  0
 96 97  2  0  0  0  0
 97 98  1  0  0  0  0
 98 99  2  0  0  0  0
 99100  1  0  0  0  0
100101  2  0  0  0  0
101102  1  0  0  0  0
102103  3  0  0  0  0
101104  1  0  0  0  0
104105  3  0  0  0  0
 97106  1  0  0  0  0
106107  1  0  0  0  0
107108  1  0  0  0  0
108109  2  0  0  0  0
109110  1  0  0  0  0
110111  1  0  0  0  0
110112  1  0  0  0  0
 11  2  1  0  0  0  0
 23 17  1  0  0  0  0
 35 24  1  0  0  0  0
 77 36  1  0  0  0  0
 89 78  1  0  0  0  0
100 91  1  0  0  0  0
112106  1  0  0  0  0
 10  5  1  0  0  0  0
 22 18  1  0  0  0  0
 46 39  1  0  0  0  0
 54 47  1  0  0  0  0
 76 55  2  0  0  0  0
 99 94  1  0  0  0  0
111107  1  0  0  0  0
 23  7  1  0  0  0  0
 67 60  1  0  0  0  0
 75 68  1  0  0  0  0
112 96  1  0  0  0  0
  1113  1  0  0  0  0
  6114  1  0  0  0  0
  9115  1  0  0  0  0
 17116  1  0  0  0  0
 18117  1  0  0  0  0
 19118  1  0  0  0  0
 20119  1  0  0  0  0
 21120  1  0  0  0  0
 22121  1  0  0  0  0
 22122  1  0  0  0  0
 23123  1  0  0  0  0
 27124  1  0  0  0  0
 27125  1  0  0  0  0
 28126  1  0  0  0  0
 28127  1  0  0  0  0
 28128  1  0  0  0  0
 31129  1  0  0  0  0
 31130  1  0  0  0  0
 32131  1  0  0  0  0
 32132  1  0  0  0  0
 32133  1  0  0  0  0
 34134  1  0  0  0  0
 35135  1  0  0  0  0
 40136  1  0  0  0  0
 41137  1  0  0  0  0
 44138  1  0  0  0  0
 44139  1  0  0  0  0
 44140  1  0  0  0  0
 45141  1  0  0  0  0
 46142  1  0  0  0  0
 48143  1  0  0  0  0
 49144  1  0  0  0  0
 52145  1  0  0  0  0
 52146  1  0  0  0  0
 52147  1  0  0  0  0
 53148  1  0  0  0  0
 54149  1  0  0  0  0
 61150  1  0  0  0  0
 62151  1  0  0  0  0
 65152  1  0  0  0  0
 65153  1  0  0  0  0
 65154  1  0  0  0  0
 66155  1  0  0  0  0
 67156  1  0  0  0  0
 69157  1  0  0  0  0
 70158  1  0  0  0  0
 73159  1  0  0  0  0
 73160  1  0  0  0  0
 73161  1  0  0  0  0
 74162  1  0  0  0  0
 75163  1  0  0  0  0
 81164  1  0  0  0  0
 81165  1  0  0  0  0
 82166  1  0  0  0  0
 82167  1  0  0  0  0
 82168  1  0  0  0  0
 85169  1  0  0  0  0
 85170  1  0  0  0  0
 86171  1  0  0  0  0
 86172  1  0  0  0  0
 86173  1  0  0  0  0
 88174  1  0  0  0  0
 89175  1  0  0  0  0
 90176  1  0  0  0  0
 95177  1  0  0  0  0
 98178  1  0  0  0  0
106179  1  0  0  0  0
107180  1  0  0  0  0
108181  1  0  0  0  0
109182  1  0  0  0  0
110183  1  0  0  0  0
111184  1  0  0  0  0
111185  1  0  0  0  0
112186  1  0  0  0  0
M  END
