149

C          6.21010       -0.06370        3.31160
C          6.15680       -0.31350        4.65130
C          5.00540       -0.95630        5.33570
O          3.92900       -1.26020        4.86540
C          5.49070       -1.30170        6.68670
C          4.77560       -1.95960        7.68580
C          5.49610       -2.18830        8.83340
C          6.83710       -1.80640        8.97470
C          7.55670       -1.16270        7.99610
C          6.83720       -0.90930        6.82370
C          7.25770       -0.25510        5.58850
C          8.44830        0.39330        5.38320
C          9.49590        0.45850        6.32370
N         10.38810        0.54770        7.04100
C          8.76360        1.13190        4.22370
N          9.08100        1.78990        3.33750
C          6.93230       -2.36540       10.37330
C          6.88430       -1.34630       11.53150
C          6.51190       -2.18280       12.73480
C          5.24000       -2.53700       12.60200
C          4.73160       -1.94670       11.30610
C          5.54430       -0.64570       11.27220
C          5.43520       -2.78530       10.21770
C          5.07000        0.03150        2.46480
C          3.86470        0.65020        2.85270
C          2.71940        0.75060        1.97320
N          1.68410        1.34180        2.57530
S          2.11610        1.75900        4.06180
N          3.63330        1.24310        4.02590
C          2.73210        0.24900        0.65540
C          3.91160       -0.43650        0.29600
N          4.13000       -1.03990       -0.87360
S          5.63260       -1.60690       -0.89630
N          6.08700       -1.13070        0.56850
C          5.07500       -0.48680        1.15400
C          1.67290        0.41790       -0.27570
C          0.80680        1.50730       -0.44090
N          0.95500        2.74580        0.13460
C         -0.18400        3.54980        0.28110
C         -1.36540        2.99650        0.77700
C         -2.52050        3.74380        0.80240
C         -2.51900        5.05570        0.33300
S         -4.07050        5.89400        0.32300
C         -3.78110        7.30240       -0.78640
C         -1.32750        5.63180       -0.09070
C         -0.16750        4.88350       -0.11450
C          2.22590        3.21160        0.48960
C          3.33900        2.89540       -0.29320
C          4.60730        3.16570        0.16300
C          4.79530        3.76500        1.40890
S          6.45250        3.91760        1.98350
C          6.24410        3.93990        3.78630
C          3.68680        4.20310        2.12470
C          2.41220        3.93650        1.66340
C         -0.15590        1.23070       -1.43750
S         -1.53840        2.07950       -2.03890
C         -1.85340        0.79840       -3.20900
C         -0.94560       -0.27310       -3.07220
N         -0.92640       -1.48130       -3.72620
C          0.36010       -2.03450       -3.91600
C          0.68300       -3.29320       -3.42070
C          1.98370       -3.75290       -3.48380
C          2.97680       -2.95830       -4.04380
S          4.67810       -3.40990       -4.09330
C          4.79310       -4.74280       -2.86490
C          2.63910       -1.72800       -4.60620
C          1.34370       -1.26890       -4.54150
C         -2.04990       -2.21610       -4.07450
C         -1.95640       -3.18070       -5.08060
C         -3.05910       -3.91240       -5.46220
C         -4.28270       -3.71430       -4.82960
S         -5.74070       -4.60180       -5.22200
C         -5.33330       -5.44160       -6.78240
C         -4.37320       -2.78120       -3.79590
C         -3.27530       -2.04400       -3.42110
C          0.01560        0.01290       -2.07340
S          1.38840       -0.84730       -1.45090
C         -2.92540        1.02210       -4.09930
C         -3.19530        0.32910       -5.30510
C         -4.43530        0.49880       -6.03640
N         -4.43450       -0.18950       -7.17280
S         -3.04300       -0.97670       -7.31390
N         -2.35500       -0.48310       -5.94580
C         -5.46130        1.38060       -5.61780
C         -5.08190        2.24300       -4.56160
N         -5.80550        3.24670       -4.07050
S         -5.02170        3.91930       -2.83820
N         -3.73070        2.95460       -2.84750
C         -3.85230        2.06450       -3.82940
C         -6.73390        1.47460       -6.21080
C         -7.41250        0.44110       -6.81130
C         -7.16730       -0.98790       -6.53410
O         -6.29820       -1.49020       -5.84920
C         -8.29890       -1.70770       -7.16120
C         -8.57010       -3.06170       -7.15450
C         -9.70690       -3.51360       -7.80720
C        -10.54260       -2.60140       -8.43500
Br       -12.09850       -3.24550       -9.31870
C        -10.29410       -1.23380       -8.43730
C         -9.15550       -0.78770       -7.78880
C         -8.61450        0.55900       -7.59710
C         -9.12040        1.71180       -8.14300
C        -10.29160        1.76660       -8.92460
N        -11.24260        1.86510       -9.56150
C         -8.52140        2.98350       -8.02600
N         -8.08520        4.04520       -8.00160
H          7.16930        0.01180        2.81340
H          3.74810       -2.25000        7.53100
H          8.59210       -0.88780        8.11150
H          7.67800       -3.14410       10.52190
H          7.76800       -0.72080       11.62450
H          7.20440       -2.46830       13.50490
H          4.65820       -3.17780       13.23820
H          3.65350       -1.86750       11.19460
H          5.49690       -0.11740       10.32160
H          5.27080        0.03140       12.07990
H          5.18270       -3.84310       10.26760
H         -1.36250        1.97650        1.12940
H         -3.44150        3.31790        1.16850
H         -3.34680        6.94630       -1.71550
H         -3.14250        8.03860       -0.30750
H         -4.75880        7.73540       -0.97400
H         -1.29350        6.65750       -0.42040
H          0.75320        5.32360       -0.46830
H          3.20210        2.40500       -1.24550
H          5.47150        2.89430       -0.42320
H          5.88010        4.90790        4.11830
H          5.57020        3.13970        4.08010
H          7.23590        3.76130        4.18960
H          3.80930        4.73100        3.05690
H          1.55120        4.24130        2.23980
H         -0.08270       -3.89720       -2.95700
H          2.21360       -4.72330       -3.07500
H          4.33530       -4.41560       -1.93600
H          4.32430       -5.64770       -3.24100
H          5.85410       -4.91700       -2.71700
H          3.40980       -1.13400       -5.07210
H          1.07920       -0.30650       -4.95300
H         -1.01800       -3.32120       -5.59460
H         -2.95370       -4.63210       -6.25770
H         -6.24690       -5.93370       -7.10320
H         -5.02940       -4.70570       -7.52150
H         -4.55980       -6.18650       -6.62160
H         -5.32130       -2.63810       -3.30270
H         -3.35880       -1.32990       -2.61620
H         -7.22090        2.43640       -6.10560
H         -7.90960       -3.74390       -6.64260
H         -9.95000       -4.56480       -7.82640
H        -10.97940       -0.55990       -8.92530
