221

C          1.73480        2.39970       -7.34390
C          2.63090        3.39100       -7.68610
C          2.60920        4.75600       -7.13810
O          1.83580        5.20840       -6.31260
C          3.64570        5.50260       -7.88240
C          4.02450        6.82840       -7.69580
C          5.06790        7.23100       -8.49620
C          5.68340        6.38140       -9.42290
C          5.31050        5.07380       -9.62700
C          4.25590        4.64520       -8.81840
C          3.63990        3.32600       -8.70430
C          4.07450        2.17730       -9.32220
C          5.11570        2.11610      -10.26560
N          5.96240        1.97740      -11.03060
C          3.59550        0.88950       -9.01390
N          3.30520       -0.19670       -8.77420
C          6.65810        7.44200       -9.87120
C          6.36010        8.13140      -11.21890
C          7.16740        9.40790      -11.15930
C          6.58390       10.21380      -10.28150
C          5.37210        9.49540       -9.73310
C          4.95470        8.69630      -10.97430
C          5.97140        8.39090       -8.83710
C          1.05620        2.29260       -6.12910
C          1.34450        2.81400       -4.85000
N          2.49390        3.43610       -4.44990
C          3.73370        3.25650       -5.07160
C          4.61560        4.33630       -5.16810
C          5.81430        4.19840       -5.82890
C          6.17100        2.97960       -6.40590
S          7.68500        2.95100       -7.30060
C          7.82940        1.24170       -7.89080
C          5.32610        1.88530       -6.25530
C          4.12160        2.02510       -5.59590
C          2.44620        4.24310       -3.29300
C          1.47020        5.22580       -3.16540
C          1.36650        5.95550       -1.99790
C          2.23750        5.70340       -0.94610
S          2.13650        6.53040        0.60720
C          0.41860        7.11340        0.66050
C          3.25520        4.76450       -1.09770
C          3.36270        4.03980       -2.26370
C          0.31350        2.48050       -3.94020
S          0.06180        2.78540       -2.25120
C         -1.39560        1.81410       -2.26920
C         -1.62840        1.22240       -3.50320
N         -2.58300        0.24220       -3.73470
C         -3.24250        0.20470       -4.96810
C         -3.55310        1.39140       -5.63390
C         -4.17760        1.35690       -6.85990
C         -4.51760        0.13990       -7.44680
S         -5.32600        0.22370       -9.01380
C         -5.43500       -1.50900       -9.54420
C         -4.22220       -1.04280       -6.78180
C         -3.58480       -1.00890       -5.55730
C         -2.82410       -0.71430       -2.74030
C         -1.78290       -1.16940       -1.93330
C         -2.02790       -2.00140       -0.86010
C         -3.32320       -2.41330       -0.57990
S         -3.75480       -3.42330        0.80240
C         -2.23480       -3.50230        1.78630
C         -4.35680       -2.02350       -1.42800
C         -4.11470       -1.18210       -2.49140
C         -0.67240        1.64910       -4.45460
S         -0.39610        1.27570       -6.11440
C         -2.11250        1.61060       -1.05520
C         -3.46440        1.42230       -0.90170
C         -3.89920        1.03300        0.37480
C         -5.35120        0.79010        0.64710
C         -5.96950        1.90720        1.48840
C         -2.88120        0.89110        1.30810
Se        -1.20320        1.34640        0.56270
C         -2.90500        0.31180        2.60180
C         -1.77710        0.10960        3.39200
N         -0.52590        0.67500        3.08910
C          0.56160       -0.21600        3.30550
C          1.43760       -0.07370        4.37780
C          2.42250       -1.01410        4.58840
C          2.54790       -2.11220        3.73990
S          3.82240       -3.26670        4.13500
C          3.87130       -4.36720        2.68910
C          1.68710       -2.24450        2.65910
C          0.70600       -1.29620        2.44720
C         -0.32720        2.04070        3.38790
C          0.83570        2.66060        2.93190
C          1.07310        3.99510        3.19090
C          0.14230        4.73580        3.90800
S          0.36220        6.44590        4.30660
C          2.16950        6.63650        4.30410
C         -1.03650        4.13230        4.33150
C         -1.27180        2.79750        4.07580
C         -2.03660       -0.74850        4.47280
S         -1.04680       -1.47590        5.67070
C         -2.43300       -2.35730        6.31570
C         -3.63810       -1.98120        5.68500
N         -4.88730       -2.41520        6.02580
C         -5.24760       -2.68360        7.35650
C         -4.78660       -1.88620        8.40090
C         -5.15910       -2.15010        9.70290
C         -5.99370       -3.22640        9.98250
S         -6.50860       -3.66150       11.60630
C         -5.31560       -2.79650       12.66600
C         -6.47810       -4.00950        8.93470
C         -6.11300       -3.74140        7.63510
C         -5.89770       -2.45580        5.04380
C         -7.14270       -1.87830        5.28830
C         -8.10190       -1.86880        4.30110
C         -7.83940       -2.43730        3.05500
S         -9.11250       -2.32010        1.84130
C         -8.26260       -2.77680        0.30290
C         -6.61980       -3.05950        2.82850
C         -5.65740       -3.06570        3.81830
C         -3.36900       -1.13360        4.58730
S         -4.32240       -0.44490        3.31150
C         -2.18070       -3.32260        7.30000
C         -1.00430       -4.04640        7.32380
C         -0.21660       -4.36400        6.11520
O         -0.46960       -4.07640        4.95760
C          0.87280       -5.24650        6.56690
C          1.90530       -5.75770        5.78770
C          2.81930       -6.50460        6.49000
C          2.69940       -6.74680        7.86380
C          1.66580       -6.27370        8.63920
C          0.73470       -5.49670        7.94530
C         -0.45110       -4.78540        8.42460
C         -0.89330       -4.75650        9.72700
C         -0.33540       -5.51060       10.77720
N          0.05800       -6.10490       11.67840
C         -1.93590       -3.94520       10.20380
N         -2.73670       -3.28330       10.69770
C          3.98340       -7.53830        7.91620
C          5.21210       -6.80860        8.49940
C          6.38670       -7.61150        7.98880
C          6.49950       -7.37910        6.68720
C          5.40210       -6.41610        6.29680
C          5.31150       -5.58340        7.58130
C          4.11640       -7.26600        6.38330
H          1.50610        1.63400       -8.07580
H          3.53170        7.44950       -6.96380
H          5.79210        4.42960      -10.34370
H          7.71120        7.20150       -9.73790
H          6.50260        7.50240      -12.09340
H          8.08110        9.56590      -11.70170
H          6.91290       11.17930       -9.94410
H          4.61420       10.10990       -9.25440
H          4.62250        9.34080      -11.78650
H          4.19980        7.93700      -10.77900
H          6.56870        8.78550       -8.01690
H          4.33700        5.28750       -4.74110
H          6.48210        5.04000       -5.92920
H          7.01180        1.00600       -8.56540
H          7.86170        0.55840       -7.04730
H          8.76860        1.20350       -8.43370
H          5.58540        0.91950       -6.65820
H          3.47420        1.16690       -5.49620
H          0.80770        5.41560       -3.99550
H          0.60490        6.71440       -1.91800
H          0.29200        7.97530        0.01190
H         -0.23990        6.29880        0.37450
H          0.22820        7.39760        1.69130
H          3.94400        4.59730       -0.28410
H          4.13700        3.29520       -2.37530
H         -3.30470        2.34000       -5.18150
H         -4.41490        2.27370       -7.37700
H         -5.86500       -1.48160      -10.54060
H         -4.44140       -1.94540       -9.58250
H         -6.08790       -2.06560       -8.87810
H         -4.47300       -2.00020       -7.20880
H         -3.34320       -1.93320       -5.05370
H         -0.76910       -0.85690       -2.13920
H         -1.19690       -2.32710       -0.25540
H         -1.92380       -2.49940        2.06150
H         -2.47100       -4.06610        2.68340
H         -1.45670       -4.02170        1.23530
H         -5.35880       -2.37360       -1.23140
H         -4.92960       -0.86180       -3.12340
H         -4.15670        1.57150       -1.71380
H         -5.47830       -0.16610        1.16070
H         -5.87610        0.72740       -0.30840
H         -5.46110        1.99630        2.44490
H         -7.01940        1.69690        1.67520
H         -5.89020        2.85850        0.96690
H          1.33480        0.76610        5.04870
H          3.09770       -0.91780        5.42500
H          4.69900       -5.04760        2.86410
H          2.94620       -4.93070        2.60780
H          4.05620       -3.78550        1.79090
H          1.76410       -3.07880        1.98130
H          0.03910       -1.37680        1.60050
H          1.55660        2.08130        2.37300
H          1.97500        4.45320        2.81800
H          2.36660        7.58440        4.79510
H          2.61360        5.82340        4.86960
H          2.54890        6.66290        3.28680
H         -1.76190        4.71730        4.87590
H         -2.18320        2.33940        4.42970
H         -4.13650       -1.05010        8.18840
H         -4.79530       -1.51150       10.48920
H         -5.41520       -3.24410       13.64990
H         -4.31600       -2.96130       12.27530
H         -5.55680       -1.73850       12.71740
H         -7.13500       -4.83600        9.15760
H         -6.48220       -4.35450        6.82650
H         -7.34160       -1.42290        6.24680
H         -9.06070       -1.40580        4.47610
H         -7.36430       -2.17580        0.19780
H         -8.96030       -2.55060       -0.49750
H         -8.02990       -3.83780        0.29890
H         -6.39630       -3.54080        1.89140
H         -4.70980       -3.54880        3.63680
H         -2.94160       -3.51950        8.04570
H          1.95360       -5.54910        4.73190
H          1.58070       -6.47950        9.69330
H          3.89710       -8.56830        8.25750
H          5.16930       -6.63120        9.57060
H          6.96110       -8.28690        8.59550
H          7.18720       -7.82200        5.99050
H          5.52990       -5.87330        5.36410
H          6.21700       -5.00620        7.76040
H          4.44710       -4.92380        7.61880
H          4.11940       -8.11540        5.70220
