271

C         -6.62040        4.35230       -3.85910
C         -7.47660        4.22880       -4.91820
C         -8.86200        4.73770       -4.79780
O         -9.28580        5.50260       -3.95710
C         -9.61560        4.07450       -5.88230
C        -10.98700        4.12910       -6.11470
C        -11.40640        3.36970       -7.18130
C        -10.52900        2.60020       -7.95560
C         -9.17150        2.54320       -7.74400
C         -8.72410        3.31850       -6.67310
C         -7.36660        3.54530       -6.17880
C         -6.21160        3.38780       -6.91100
C         -4.99230        3.97330       -6.52420
N         -4.01230        4.51200       -6.25850
C         -6.16220        2.73190       -8.15060
N         -6.08940        2.17420       -9.15300
C        -11.63420        2.09140       -8.84700
C        -11.76540        2.71760      -10.25700
C        -11.18280        4.10620      -10.16340
C        -12.01070        4.84360       -9.43550
C        -13.16770        3.96720       -9.02390
C        -13.26540        3.05220      -10.25510
C        -12.61100        2.95690       -7.99000
C         -5.47930        3.60470       -3.54090
C         -4.61320        3.85970       -2.46170
N         -4.56590        5.03220       -1.76170
C         -3.89380        5.08050       -0.52600
C         -2.92270        6.05570       -0.29700
C         -2.24150        6.08480        0.89770
C         -2.51990        5.14940        1.89430
S         -1.58150        5.28940        3.37610
C         -2.09480        3.86380        4.36970
C         -3.50640        4.19630        1.68090
C         -4.18740        4.16360        0.47840
C         -4.91580        6.26490       -2.35780
C         -4.55120        6.56070       -3.67050
C         -4.90790        7.76760       -4.22620
C         -5.62480        8.70650       -3.48390
S         -6.03300       10.21150       -4.30430
C         -7.19930       11.01850       -3.17080
C         -5.95830        8.42490       -2.16570
C         -5.60380        7.21130       -1.60820
C         -3.71870        2.78680       -2.27120
S         -2.46640        2.43890       -1.13880
C         -1.96480        1.02340       -2.06540
C         -2.79610        0.80040       -3.15340
N         -2.60470       -0.11010       -4.19100
C         -2.61090        0.47130       -5.47970
C         -3.36840       -0.04940       -6.52290
C         -3.35900        0.55220       -7.76790
C         -2.59540        1.69200       -7.98590
S         -2.47580        2.53670       -9.52510
C         -3.38860        1.48060      -10.68530
C         -1.85650        2.23080       -6.93390
C         -1.86570        1.62990       -5.69720
C         -2.66910       -1.48650       -4.02920
C         -2.07390       -2.31890       -4.97880
C         -2.21630       -3.68620       -4.90030
C         -2.96160       -4.24880       -3.87300
S         -3.25800       -5.99680       -3.80740
C         -3.41650       -6.42180       -5.56740
C         -3.49700       -3.43480       -2.88330
C         -3.34850       -2.06530       -2.95570
C         -3.79940        1.79600       -3.23610
S         -5.08250        2.08410       -4.35090
C         -0.82880        0.33890       -1.54800
C          0.18430        0.96790       -0.82620
N          0.38420        2.34370       -0.79660
C          0.37240        3.04300       -2.02110
C          0.95460        2.47980       -3.15420
C          0.91880        3.14880       -4.35840
C          0.28080        4.38360       -4.46370
S          0.30960        5.16410       -6.04620
C         -1.16310        6.22590       -6.02820
C         -0.29600        4.94980       -3.33310
C         -0.24040        4.29030       -2.12110
C          0.82620        2.95760        0.37300
C          0.46130        2.44330        1.61840
C          0.94020        3.01690        2.77740
C          1.75820        4.13540        2.71640
S          2.35580        4.84340        4.23360
C          1.91290        6.59380        3.98960
C          2.11320        4.66330        1.48400
C          1.65550        4.07830        0.32330
C          1.01470        0.02420       -0.19160
S          2.35540        0.14030        0.88260
C          2.45290       -1.62000        1.00950
C          1.52090       -2.24740        0.18830
N          1.34690       -3.61430       -0.02110
C          0.01560       -4.05980        0.02550
C         -0.48770       -5.02340       -0.84320
C         -1.78760       -5.47360       -0.72140
C         -2.62600       -4.93140        0.24110
S         -4.30130       -5.44060        0.48780
C         -4.41710       -7.00780       -0.41960
C         -2.15390       -3.91280        1.06360
C         -0.84850       -3.49240        0.96490
C          2.39430       -4.40060       -0.50470
C          2.35210       -5.79160       -0.42380
C          3.38270       -6.57160       -0.90540
C          4.49510       -5.97830       -1.48260
S          5.88980       -6.87870       -2.08530
C          5.43550       -8.61710       -1.82290
C          4.54700       -4.59040       -1.57650
C          3.51490       -3.81300       -1.09720
C          0.68970       -1.29580       -0.45670
S         -0.66510       -1.41330       -1.53470
C          3.43990       -2.07090        1.93230
C          3.71140       -3.27920        2.56140
N          3.00840       -4.48810        2.47730
C          1.70800       -4.53660        3.00400
C          0.85270       -5.59690        2.71510
C         -0.42800       -5.64490        3.22960
C         -0.89200       -4.62210        4.04320
S         -2.51480       -4.55310        4.73070
C         -3.31260       -6.06930        4.13570
C         -0.04170       -3.56070        4.34250
C          1.23770       -3.51810        3.83570
C          3.83120       -5.61940        2.37970
C          3.58140       -6.81740        3.04920
C          4.42540       -7.89430        2.88440
C          5.55320       -7.79990        2.07340
S          6.53430       -9.25940        1.88030
C          8.06130       -8.64800        1.10880
C          5.83960       -6.59510        1.44900
C          4.98470       -5.52470        1.60030
C          4.78810       -3.15060        3.46760
S          5.48970       -4.26250        4.58440
C          6.39890       -2.94940        5.34190
C          6.18950       -1.71790        4.69480
N          6.65670       -0.51990        5.14460
C          7.04140       -0.37500        6.50390
C          6.14400       -0.68840        7.52130
C          6.57280       -0.69680        8.83120
C          7.89640       -0.39500        9.13460
S          8.42830       -0.55880       10.81200
C         10.08480       -1.27450       10.57850
C          8.76080        0.01630        8.12780
C          8.33210        0.03330        6.81490
C          6.54710        0.64210        4.36180
C          6.96360        0.64840        3.03050
C          6.81700        1.78710        2.26890
C          6.25800        2.93890        2.81930
S          6.07330        4.31880        1.74200
C          5.67070        5.68530        2.86790
C          5.87510        2.94430        4.15520
C          6.02670        1.80570        4.91960
C          5.29020       -1.86980        3.61480
S          4.49750       -0.78600        2.52780
C          7.21920       -3.19240        6.45520
C          7.11620       -4.18070        7.39700
C          8.25900       -4.45500        8.29040
O          9.25480       -3.77020        8.43030
C          7.94010       -5.73270        8.95680
C          8.70110       -6.47740        9.80960
C          8.19050       -7.70010       10.30270
C          8.93460       -8.50600       11.18770
C          8.43280       -9.68870       11.65620
C          7.15810      -10.09470       11.24100
F          6.67990      -11.26270       11.71240
C          6.39490       -9.35180       10.38400
C          6.89480       -8.12970        9.89480
C          6.12180       -7.33020        9.01970
C          6.63360       -6.14690        8.56420
C          6.05570       -5.10280        7.71980
C          4.70800       -4.91360        7.52360
C          4.14720       -3.70820        7.06120
N          3.64550       -2.71300        6.77740
C          3.72280       -5.85800        7.86650
N          2.87900       -6.60380        8.09380
H         -6.95080        5.05140       -3.09720
H        -11.63210        4.72730       -5.49030
H         -8.50510        1.94240       -8.34090
H        -11.78340        1.01330       -8.85470
H        -11.39180        2.09390      -11.06480
H        -10.22930        4.38410      -10.57260
H        -11.88700        5.86170       -9.11570
H        -14.07210        4.48200       -8.70990
H        -13.90370        2.18320      -10.10020
H        -13.57960        3.58440      -11.15170
H        -13.40160        2.44510       -7.44430
H         -2.70080        6.77780       -1.06850
H         -1.47720        6.82650        1.07330
H         -1.93140        2.95010        3.80660
H         -3.13430        3.97070        4.66610
H         -1.45830        3.87750        5.24920
H         -3.75910        3.47530        2.44090
H         -4.95870        3.42510        0.31840
H         -4.00570        5.83830       -4.25790
H         -4.63310        7.99710       -5.24400
H         -6.68870       11.33460       -2.26560
H         -8.01930       10.34190       -2.94950
H         -7.57040       11.88810       -3.70420
H         -6.49790        9.13610       -1.56220
H         -5.86940        6.99040       -0.58480
H         -3.97410       -0.92870       -6.35830
H         -3.96570        0.13260       -8.55390
H         -2.96060        0.48250      -10.68730
H         -3.25970        1.94150      -11.65960
H         -4.44080        1.47060      -10.41580
H         -1.26990        3.11890       -7.10670
H         -1.28630        2.04880       -4.88840
H         -1.50570       -1.88230       -5.78610
H         -1.74860       -4.30940       -5.64680
H         -3.93740       -7.37340       -5.60330
H         -2.43580       -6.52390       -6.02310
H         -4.00050       -5.65460       -6.06620
H         -4.05600       -3.87350       -2.07210
H         -3.79270       -1.43480       -2.19980
H          1.43710        1.51590       -3.08490
H          1.37930        2.71990       -5.23510
H         -1.24110        6.62430       -7.03510
H         -2.03790        5.62320       -5.80680
H         -1.04120        7.04160       -5.32160
H         -0.78930        5.90740       -3.38800
H         -0.67850        4.73890       -1.24130
H         -0.20370        1.59370        1.67040
H          0.68170        2.60360        3.74000
H          2.10110        7.08850        4.93680
H          2.52560        7.03860        3.21150
H          0.85930        6.65390        3.73600
H          2.76650        5.51970        1.42100
H          1.96150        4.47690       -0.63180
H          0.13350       -5.42220       -1.63030
H         -2.14020       -6.23180       -1.40050
H         -3.62570       -7.67570       -0.09330
H         -4.36240       -6.82830       -1.48930
H         -5.38600       -7.42380       -0.16130
H         -2.81340       -3.47160        1.79520
H         -0.48250       -2.73070        1.63630
H          1.50230       -6.27720        0.02590
H          3.30660       -7.64230       -0.80780
H          6.27240       -9.19880       -2.19760
H          4.54130       -8.85420       -2.39170
H          5.29240       -8.81310       -0.76390
H          5.40800       -4.12540       -2.03270
H          3.57410       -2.73920       -1.19190
H          1.19030       -6.40270        2.08410
H         -1.05450       -6.48490        2.97700
H         -4.31180       -6.05740        4.55990
H         -2.76970       -6.93860        4.49510
H         -3.37570       -6.05290        3.05170
H         -0.39270       -2.77180        4.99010
H          1.88240       -2.69690        4.10880
H          2.74140       -6.90030        3.72090
H          4.22420       -8.82220        3.39800
H          8.48850       -7.86190        1.72420
H          7.86500       -8.29530        0.10040
H          8.73270       -9.50030        1.07600
H          6.71280       -6.47620        0.82890
H          5.20860       -4.59900        1.09230
H          5.13070       -0.96880        7.27520
H          5.89430       -0.96360        9.62660
H         10.02500       -2.05120        9.82100
H         10.79920       -0.50460       10.30250
H         10.36150       -1.70340       11.53630
H          9.77410        0.30210        8.36030
H          9.00690        0.32280        6.02270
H          7.40960       -0.23720        2.60310
H          7.13230        1.79690        1.23700
H          5.61740        6.57310        2.24500
H          6.46210        5.79740        3.60280
H          4.71320        5.50120        3.34690
H          5.43500        3.81690        4.60810
H          5.71540        1.80840        5.95330
H          8.09090       -2.55820        6.57040
H          9.68290       -6.14020       10.10740
H          9.91500       -8.17220       11.49330
H          8.98910      -10.31580       12.33470
H          5.41540       -9.69360       10.08790
H          5.14440       -7.67870        8.72550
