
  xtb     02142200173D
 energy: -353.948426626805 gnorm: 0.000277435209 xtb: 6.4.1 (unknown)
214236  0     0  0            999 V2000
   -1.6814   11.1206    0.7114 C   0  0  0  0  0  0  0  0  0  0  0  0
   -2.8004   11.6996    1.2179 C   0  0  0  0  0  0  0  0  0  0  0  0
   -3.0823   13.1366    0.9431 C   0  0  0  0  0  0  0  0  0  0  0  0
   -2.3053   13.9550    0.5071 O   0  0  0  0  0  0  0  0  0  0  0  0
   -4.5115   13.3213    1.2600 C   0  0  0  0  0  0  0  0  0  0  0  0
   -5.2783   14.4687    1.0625 C   0  0  0  0  0  0  0  0  0  0  0  0
   -6.5934   14.3357    1.4381 C   0  0  0  0  0  0  0  0  0  0  0  0
   -7.1164   13.1469    1.9663 C   0  0  0  0  0  0  0  0  0  0  0  0
   -6.3733   12.0099    2.1735 C   0  0  0  0  0  0  0  0  0  0  0  0
   -5.0295   12.1277    1.8064 C   0  0  0  0  0  0  0  0  0  0  0  0
   -3.9403   11.1642    1.9360 C   0  0  0  0  0  0  0  0  0  0  0  0
   -3.9327   10.0959    2.7932 C   0  0  0  0  0  0  0  0  0  0  0  0
   -5.0574    9.6406    3.5101 C   0  0  0  0  0  0  0  0  0  0  0  0
   -5.9411    9.1977    4.0944 N   0  0  0  0  0  0  0  0  0  0  0  0
   -2.7752    9.3597    3.1225 C   0  0  0  0  0  0  0  0  0  0  0  0
   -1.8667    8.7555    3.4795 N   0  0  0  0  0  0  0  0  0  0  0  0
   -8.5025   13.7240    2.1072 C   0  0  0  0  0  0  0  0  0  0  0  0
   -9.5376   13.3042    1.0423 C   0  0  0  0  0  0  0  0  0  0  0  0
  -10.6119   14.3626    1.1461 C   0  0  0  0  0  0  0  0  0  0  0  0
  -10.1179   15.4891    0.6486 C   0  0  0  0  0  0  0  0  0  0  0  0
   -8.7013   15.2111    0.1996 C   0  0  0  0  0  0  0  0  0  0  0  0
   -8.8498   13.7530   -0.2536 C   0  0  0  0  0  0  0  0  0  0  0  0
   -7.9199   15.0501    1.5211 C   0  0  0  0  0  0  0  0  0  0  0  0
   -1.4194    9.7345    0.5495 C   0  0  0  0  0  0  0  0  0  0  0  0
   -2.3206    8.7099    0.4212 C   0  0  0  0  0  0  0  0  0  0  0  0
   -1.7253    7.4396    0.2750 C   0  0  0  0  0  0  0  0  0  0  0  0
   -2.3738    6.1964    0.1579 C   0  0  0  0  0  0  0  0  0  0  0  0
   -3.8351    6.0953    0.2267 C   0  0  0  0  0  0  0  0  0  0  0  0
   -4.5308    6.6872    1.2824 C   0  0  0  0  0  0  0  0  0  0  0  0
   -5.9036    6.6123    1.3504 C   0  0  0  0  0  0  0  0  0  0  0  0
   -6.6211    5.9358    0.3637 C   0  0  0  0  0  0  0  0  0  0  0  0
   -8.3728    5.9085    0.5705 S   0  0  0  0  0  0  0  0  0  0  0  0
   -9.0289    5.1430   -0.9534 C   0  0  0  0  0  0  0  0  0  0  0  0
   -8.9763    6.0832   -2.1432 C   0  0  0  0  0  0  0  0  0  0  0  0
   -5.9350    5.3207   -0.6752 C   0  0  0  0  0  0  0  0  0  0  0  0
   -4.5569    5.4017   -0.7388 C   0  0  0  0  0  0  0  0  0  0  0  0
   -1.5567    5.0862    0.0211 C   0  0  0  0  0  0  0  0  0  0  0  0
   -0.1414    5.1605    0.0592 C   0  0  0  0  0  0  0  0  0  0  0  0
    0.5045    6.4021    0.1712 C   0  0  0  0  0  0  0  0  0  0  0  0
    1.9705    6.4862    0.1723 C   0  0  0  0  0  0  0  0  0  0  0  0
    2.6306    7.2771   -0.7619 C   0  0  0  0  0  0  0  0  0  0  0  0
    4.0108    7.3084   -0.8167 C   0  0  0  0  0  0  0  0  0  0  0  0
    4.7560    6.5456    0.0720 C   0  0  0  0  0  0  0  0  0  0  0  0
    6.5235    6.4784    0.0780 S   0  0  0  0  0  0  0  0  0  0  0  0
    6.9976    6.9495   -1.6227 C   0  0  0  0  0  0  0  0  0  0  0  0
    6.5314    5.9383   -2.6523 C   0  0  0  0  0  0  0  0  0  0  0  0
    4.1019    5.7888    1.0421 C   0  0  0  0  0  0  0  0  0  0  0  0
    2.7250    5.7553    1.0881 C   0  0  0  0  0  0  0  0  0  0  0  0
   -0.3081    7.5194    0.2584 C   0  0  0  0  0  0  0  0  0  0  0  0
    0.2351    9.1652    0.4246 S   0  0  0  0  0  0  0  0  0  0  0  0
    0.4563    3.8799   -0.0412 C   0  0  0  0  0  0  0  0  0  0  0  0
   -0.4431    2.8682   -0.1668 C   0  0  0  0  0  0  0  0  0  0  0  0
   -2.0972    3.4413   -0.1620 S   0  0  0  0  0  0  0  0  0  0  0  0
   -0.1545    1.4546   -0.2703 C   0  0  0  0  0  0  0  0  0  0  0  0
   -0.8650    0.6177   -1.1088 C   0  0  0  0  0  0  0  0  0  0  0  0
   -1.8495    1.1086   -1.8799 F   0  0  0  0  0  0  0  0  0  0  0  0
   -0.5667   -0.7427   -1.2335 C   0  0  0  0  0  0  0  0  0  0  0  0
   -1.2944   -1.4734   -2.0981 F   0  0  0  0  0  0  0  0  0  0  0  0
    0.4270   -1.3481   -0.4899 C   0  0  0  0  0  0  0  0  0  0  0  0
    1.1189   -0.5341    0.4467 C   0  0  0  0  0  0  0  0  0  0  0  0
    2.0397   -1.0996    1.2388 N   0  0  0  0  0  0  0  0  0  0  0  0
    2.7215   -0.3575    2.0772 C   0  0  0  0  0  0  0  0  0  0  0  0
    3.7102   -1.0915    2.9307 C   0  0  0  0  0  0  0  0  0  0  0  0
    4.8066   -1.7089    2.0604 C   0  0  0  0  0  0  0  0  0  0  0  0
    2.5013    1.0493    2.1276 C   0  0  0  0  0  0  0  0  0  0  0  0
    1.5931    1.6129    1.3666 N   0  0  0  0  0  0  0  0  0  0  0  0
    0.8696    0.8593    0.5208 C   0  0  0  0  0  0  0  0  0  0  0  0
    3.2570    1.9738    3.0353 C   0  0  0  0  0  0  0  0  0  0  0  0
    4.6881    2.2212    2.5539 C   0  0  0  0  0  0  0  0  0  0  0  0
    0.7841   -2.7335   -0.6821 C   0  0  0  0  0  0  0  0  0  0  0  0
    0.9908   -3.3668   -1.8992 C   0  0  0  0  0  0  0  0  0  0  0  0
    1.0719   -2.7032   -3.1082 N   0  0  0  0  0  0  0  0  0  0  0  0
    1.5720   -1.3900   -3.1178 C   0  0  0  0  0  0  0  0  0  0  0  0
    0.9417   -0.3866   -3.8531 C   0  0  0  0  0  0  0  0  0  0  0  0
    1.3547    0.9229   -3.7316 C   0  0  0  0  0  0  0  0  0  0  0  0
    2.4056    1.2592   -2.8812 C   0  0  0  0  0  0  0  0  0  0  0  0
    2.7899    2.9758   -2.7204 S   0  0  0  0  0  0  0  0  0  0  0  0
    3.9582    3.0143   -1.3312 C   0  0  0  0  0  0  0  0  0  0  0  0
    3.0864    0.2514   -2.2101 C   0  0  0  0  0  0  0  0  0  0  0  0
    2.6728   -1.0592   -2.3310 C   0  0  0  0  0  0  0  0  0  0  0  0
    0.6486   -3.3191   -4.2896 C   0  0  0  0  0  0  0  0  0  0  0  0
   -0.4351   -4.1918   -4.2850 C   0  0  0  0  0  0  0  0  0  0  0  0
   -0.8311   -4.8291   -5.4451 C   0  0  0  0  0  0  0  0  0  0  0  0
   -0.1524   -4.5950   -6.6322 C   0  0  0  0  0  0  0  0  0  0  0  0
   -0.5630   -5.3526   -8.1733 S   0  0  0  0  0  0  0  0  0  0  0  0
   -1.7576   -6.6412   -7.7157 C   0  0  0  0  0  0  0  0  0  0  0  0
    0.9152   -3.6985   -6.6460 C   0  0  0  0  0  0  0  0  0  0  0  0
    1.3151   -3.0692   -5.4897 C   0  0  0  0  0  0  0  0  0  0  0  0
    1.2311   -4.7488   -1.7022 C   0  0  0  0  0  0  0  0  0  0  0  0
    1.4138   -6.1014   -2.7521 S   0  0  0  0  0  0  0  0  0  0  0  0
    1.5962   -7.1901   -1.3731 C   0  0  0  0  0  0  0  0  0  0  0  0
    1.4587   -6.5074   -0.1511 C   0  0  0  0  0  0  0  0  0  0  0  0
    1.3758   -7.0939    1.0937 N   0  0  0  0  0  0  0  0  0  0  0  0
    0.7209   -8.3235    1.2565 C   0  0  0  0  0  0  0  0  0  0  0  0
    1.1317   -9.2215    2.2429 C   0  0  0  0  0  0  0  0  0  0  0  0
    0.5576  -10.4726    2.3254 C   0  0  0  0  0  0  0  0  0  0  0  0
   -0.4242  -10.8573    1.4172 C   0  0  0  0  0  0  0  0  0  0  0  0
   -1.0180  -12.5132    1.4806 S   0  0  0  0  0  0  0  0  0  0  0  0
   -1.5655  -12.7983   -0.2291 C   0  0  0  0  0  0  0  0  0  0  0  0
   -0.9030   -9.9323    0.4962 C   0  0  0  0  0  0  0  0  0  0  0  0
   -0.3407   -8.6773    0.4256 C   0  0  0  0  0  0  0  0  0  0  0  0
    1.7123   -6.3351    2.2328 C   0  0  0  0  0  0  0  0  0  0  0  0
    0.8911   -6.3436    3.3554 C   0  0  0  0  0  0  0  0  0  0  0  0
    1.2099   -5.5895    4.4681 C   0  0  0  0  0  0  0  0  0  0  0  0
    2.3637   -4.8177    4.4766 C   0  0  0  0  0  0  0  0  0  0  0  0
    2.8571   -3.7796    5.8139 S   0  0  0  0  0  0  0  0  0  0  0  0
    1.6396   -4.1239    7.1144 C   0  0  0  0  0  0  0  0  0  0  0  0
    3.1996   -4.8249    3.3618 C   0  0  0  0  0  0  0  0  0  0  0  0
    2.8767   -5.5667    2.2497 C   0  0  0  0  0  0  0  0  0  0  0  0
    1.2711   -5.1237   -0.3644 C   0  0  0  0  0  0  0  0  0  0  0  0
    1.0326   -3.7738    0.6939 S   0  0  0  0  0  0  0  0  0  0  0  0
    1.7608   -8.5549   -1.6643 C   0  0  0  0  0  0  0  0  0  0  0  0
    2.2774   -9.5687   -0.8955 C   0  0  0  0  0  0  0  0  0  0  0  0
    1.8350  -10.9636   -1.1107 C   0  0  0  0  0  0  0  0  0  0  0  0
    1.0726  -11.3642   -1.9693 O   0  0  0  0  0  0  0  0  0  0  0  0
    2.4180  -11.7457   -0.0036 C   0  0  0  0  0  0  0  0  0  0  0  0
    2.2601  -13.1064    0.2469 C   0  0  0  0  0  0  0  0  0  0  0  0
    2.9589  -13.5622    1.3396 C   0  0  0  0  0  0  0  0  0  0  0  0
    3.7775  -12.7316    2.1154 C   0  0  0  0  0  0  0  0  0  0  0  0
    3.9332  -11.3846    1.8868 C   0  0  0  0  0  0  0  0  0  0  0  0
    3.2085  -10.8974    0.7977 C   0  0  0  0  0  0  0  0  0  0  0  0
    3.1592   -9.5489    0.2369 C   0  0  0  0  0  0  0  0  0  0  0  0
    3.9710   -8.4977    0.6044 C   0  0  0  0  0  0  0  0  0  0  0  0
    4.7215   -8.4483    1.7917 C   0  0  0  0  0  0  0  0  0  0  0  0
    5.2996   -8.3170    2.7764 N   0  0  0  0  0  0  0  0  0  0  0  0
    4.1877   -7.3722   -0.2068 C   0  0  0  0  0  0  0  0  0  0  0  0
    4.4501   -6.4590   -0.8545 N   0  0  0  0  0  0  0  0  0  0  0  0
    4.2369  -13.8697    2.9944 C   0  0  0  0  0  0  0  0  0  0  0  0
    3.6504  -13.9890    4.4211 C   0  0  0  0  0  0  0  0  0  0  0  0
    2.2990  -13.3211    4.3819 C   0  0  0  0  0  0  0  0  0  0  0  0
    1.4905  -14.0841    3.6584 C   0  0  0  0  0  0  0  0  0  0  0  0
    2.2793  -15.2861    3.2015 C   0  0  0  0  0  0  0  0  0  0  0  0
    3.2208  -15.4648    4.4040 C   0  0  0  0  0  0  0  0  0  0  0  0
    3.3000  -14.7884    2.1482 C   0  0  0  0  0  0  0  0  0  0  0  0
   -0.9263   11.8048    0.3383 H   0  0  0  0  0  0  0  0  0  0  0  0
   -4.8384   15.3653    0.6549 H   0  0  0  0  0  0  0  0  0  0  0  0
   -6.7856   11.0995    2.5767 H   0  0  0  0  0  0  0  0  0  0  0  0
   -8.9100   13.7341    3.1161 H   0  0  0  0  0  0  0  0  0  0  0  0
   -9.8618   12.2691    1.1062 H   0  0  0  0  0  0  0  0  0  0  0  0
  -11.5689   14.2026    1.6069 H   0  0  0  0  0  0  0  0  0  0  0  0
  -10.5798   16.4582    0.6107 H   0  0  0  0  0  0  0  0  0  0  0  0
   -8.2647   15.9134   -0.5054 H   0  0  0  0  0  0  0  0  0  0  0  0
   -9.5017   13.6561   -1.1203 H   0  0  0  0  0  0  0  0  0  0  0  0
   -7.9044   13.2510   -0.4513 H   0  0  0  0  0  0  0  0  0  0  0  0
   -7.9395   15.9454    2.1394 H   0  0  0  0  0  0  0  0  0  0  0  0
   -3.3844    8.8662    0.3834 H   0  0  0  0  0  0  0  0  0  0  0  0
   -3.9807    7.1779    2.0721 H   0  0  0  0  0  0  0  0  0  0  0  0
   -6.4353    7.0693    2.1717 H   0  0  0  0  0  0  0  0  0  0  0  0
   -8.4896    4.2135   -1.1309 H   0  0  0  0  0  0  0  0  0  0  0  0
  -10.0606    4.9017   -0.6973 H   0  0  0  0  0  0  0  0  0  0  0  0
   -7.9526    6.3756   -2.3666 H   0  0  0  0  0  0  0  0  0  0  0  0
   -9.3983    5.5951   -3.0198 H   0  0  0  0  0  0  0  0  0  0  0  0
   -9.5508    6.9828   -1.9349 H   0  0  0  0  0  0  0  0  0  0  0  0
   -6.4553    4.7708   -1.4427 H   0  0  0  0  0  0  0  0  0  0  0  0
   -4.0382    4.9339   -1.5624 H   0  0  0  0  0  0  0  0  0  0  0  0
    2.0589    7.8577   -1.4704 H   0  0  0  0  0  0  0  0  0  0  0  0
    4.4911    7.9307   -1.5549 H   0  0  0  0  0  0  0  0  0  0  0  0
    8.0860    6.9909   -1.5819 H   0  0  0  0  0  0  0  0  0  0  0  0
    6.6204    7.9512   -1.8255 H   0  0  0  0  0  0  0  0  0  0  0  0
    6.9315    4.9540   -2.4201 H   0  0  0  0  0  0  0  0  0  0  0  0
    6.8802    6.2311   -3.6407 H   0  0  0  0  0  0  0  0  0  0  0  0
    5.4453    5.8731   -2.6751 H   0  0  0  0  0  0  0  0  0  0  0  0
    4.6912    5.2272    1.7506 H   0  0  0  0  0  0  0  0  0  0  0  0
    2.2230    5.1668    1.8410 H   0  0  0  0  0  0  0  0  0  0  0  0
    1.5160    3.7202   -0.0430 H   0  0  0  0  0  0  0  0  0  0  0  0
    3.1791   -1.8962    3.4436 H   0  0  0  0  0  0  0  0  0  0  0  0
    4.1482   -0.4355    3.6803 H   0  0  0  0  0  0  0  0  0  0  0  0
    5.3446   -0.9389    1.5103 H   0  0  0  0  0  0  0  0  0  0  0  0
    4.3642   -2.3981    1.3464 H   0  0  0  0  0  0  0  0  0  0  0  0
    5.5186   -2.2480    2.6800 H   0  0  0  0  0  0  0  0  0  0  0  0
    3.2753    1.5605    4.0456 H   0  0  0  0  0  0  0  0  0  0  0  0
    2.7167    2.9209    3.0597 H   0  0  0  0  0  0  0  0  0  0  0  0
    5.1944    2.8967    3.2391 H   0  0  0  0  0  0  0  0  0  0  0  0
    5.2549    1.2954    2.5061 H   0  0  0  0  0  0  0  0  0  0  0  0
    4.6837    2.6747    1.5655 H   0  0  0  0  0  0  0  0  0  0  0  0
    0.1056   -0.6365   -4.4886 H   0  0  0  0  0  0  0  0  0  0  0  0
    0.8471    1.7057   -4.2739 H   0  0  0  0  0  0  0  0  0  0  0  0
    3.5306    2.4809   -0.4865 H   0  0  0  0  0  0  0  0  0  0  0  0
    4.0886    4.0626   -1.0791 H   0  0  0  0  0  0  0  0  0  0  0  0
    4.9114    2.5852   -1.6272 H   0  0  0  0  0  0  0  0  0  0  0  0
    3.9391    0.4702   -1.5881 H   0  0  0  0  0  0  0  0  0  0  0  0
    3.1967   -1.8339   -1.7913 H   0  0  0  0  0  0  0  0  0  0  0  0
   -0.9857   -4.3545   -3.3709 H   0  0  0  0  0  0  0  0  0  0  0  0
   -1.6771   -5.4960   -5.4080 H   0  0  0  0  0  0  0  0  0  0  0  0
   -1.3289   -7.2822   -6.9512 H   0  0  0  0  0  0  0  0  0  0  0  0
   -2.6872   -6.1906   -7.3799 H   0  0  0  0  0  0  0  0  0  0  0  0
   -1.9337   -7.2121   -8.6221 H   0  0  0  0  0  0  0  0  0  0  0  0
    1.4324   -3.5135   -7.5749 H   0  0  0  0  0  0  0  0  0  0  0  0
    2.1521   -2.3874   -5.5038 H   0  0  0  0  0  0  0  0  0  0  0  0
    1.9216   -8.9430    2.9253 H   0  0  0  0  0  0  0  0  0  0  0  0
    0.8974  -11.1818    3.0631 H   0  0  0  0  0  0  0  0  0  0  0  0
   -2.5416  -12.3514   -0.3944 H   0  0  0  0  0  0  0  0  0  0  0  0
   -0.8251  -12.3967   -0.9157 H   0  0  0  0  0  0  0  0  0  0  0  0
   -1.6360  -13.8759   -0.3407 H   0  0  0  0  0  0  0  0  0  0  0  0
   -1.7113  -10.1838   -0.1709 H   0  0  0  0  0  0  0  0  0  0  0  0
   -0.7205   -7.9656   -0.2918 H   0  0  0  0  0  0  0  0  0  0  0  0
   -0.0131   -6.9343    3.3531 H   0  0  0  0  0  0  0  0  0  0  0  0
    0.5427   -5.6082    5.3145 H   0  0  0  0  0  0  0  0  0  0  0  0
    0.6513   -3.8064    6.7945 H   0  0  0  0  0  0  0  0  0  0  0  0
    1.6559   -5.1806    7.3638 H   0  0  0  0  0  0  0  0  0  0  0  0
    1.9540   -3.5375    7.9722 H   0  0  0  0  0  0  0  0  0  0  0  0
    4.1096   -4.2480    3.3806 H   0  0  0  0  0  0  0  0  0  0  0  0
    3.5300   -5.5549    1.3922 H   0  0  0  0  0  0  0  0  0  0  0  0
    1.3633   -8.8725   -2.6243 H   0  0  0  0  0  0  0  0  0  0  0  0
    1.6495  -13.7243   -0.3929 H   0  0  0  0  0  0  0  0  0  0  0  0
    4.5627  -10.7530    2.4921 H   0  0  0  0  0  0  0  0  0  0  0  0
    5.3052  -14.0769    2.9656 H   0  0  0  0  0  0  0  0  0  0  0  0
    4.3216  -13.6716    5.2148 H   0  0  0  0  0  0  0  0  0  0  0  0
    2.0944  -12.3672    4.8330 H   0  0  0  0  0  0  0  0  0  0  0  0
    0.4731  -13.8939    3.3713 H   0  0  0  0  0  0  0  0  0  0  0  0
    1.6957  -16.1484    2.8900 H   0  0  0  0  0  0  0  0  0  0  0  0
    4.0425  -16.1542    4.2141 H   0  0  0  0  0  0  0  0  0  0  0  0
    2.6947  -15.7604    5.3105 H   0  0  0  0  0  0  0  0  0  0  0  0
    3.7533  -15.6108    1.5975 H   0  0  0  0  0  0  0  0  0  0  0  0
  1  2  2  0  0  0  0
  2  3  1  0  0  0  0
  3  4  2  0  0  0  0
  3  5  1  0  0  0  0
  5  6  2  0  0  0  0
  6  7  1  0  0  0  0
  7  8  2  0  0  0  0
  8  9  1  0  0  0  0
  9 10  2  0  0  0  0
 10 11  1  0  0  0  0
 11 12  2  0  0  0  0
 12 13  1  0  0  0  0
 13 14  3  0  0  0  0
 12 15  1  0  0  0  0
 15 16  3  0  0  0  0
  8 17  1  0  0  0  0
 17 18  1  0  0  0  0
 18 19  1  0  0  0  0
 19 20  2  0  0  0  0
 20 21  1  0  0  0  0
 21 22  1  0  0  0  0
 21 23  1  0  0  0  0
  1 24  1  0  0  0  0
 24 25  2  0  0  0  0
 25 26  1  0  0  0  0
 26 27  2  0  0  0  0
 27 28  1  0  0  0  0
 28 29  2  0  0  0  0
 29 30  1  0  0  0  0
 30 31  2  0  0  0  0
 31 32  1  0  0  0  0
 32 33  1  0  0  0  0
 33 34  1  0  0  0  0
 31 35  1  0  0  0  0
 35 36  2  0  0  0  0
 27 37  1  0  0  0  0
 37 38  2  0  0  0  0
 38 39  1  0  0  0  0
 39 40  1  0  0  0  0
 40 41  2  0  0  0  0
 41 42  1  0  0  0  0
 42 43  2  0  0  0  0
 43 44  1  0  0  0  0
 44 45  1  0  0  0  0
 45 46  1  0  0  0  0
 43 47  1  0  0  0  0
 47 48  2  0  0  0  0
 39 49  2  0  0  0  0
 49 50  1  0  0  0  0
 38 51  1  0  0  0  0
 51 52  2  0  0  0  0
 52 53  1  0  0  0  0
 52 54  1  0  0  0  0
 54 55  2  0  0  0  0
 55 56  1  0  0  0  0
 55 57  1  0  0  0  0
 57 58  1  0  0  0  0
 57 59  2  0  0  0  0
 59 60  1  0  0  0  0
 60 61  2  0  0  0  0
 61 62  1  0  0  0  0
 62 63  1  0  0  0  0
 63 64  1  0  0  0  0
 62 65  2  0  0  0  0
 65 66  1  0  0  0  0
 66 67  2  0  0  0  0
 65 68  1  0  0  0  0
 68 69  1  0  0  0  0
 59 70  1  0  0  0  0
 70 71  2  0  0  0  0
 71 72  1  0  0  0  0
 72 73  1  0  0  0  0
 73 74  2  0  0  0  0
 74 75  1  0  0  0  0
 75 76  2  0  0  0  0
 76 77  1  0  0  0  0
 77 78  1  0  0  0  0
 76 79  1  0  0  0  0
 79 80  2  0  0  0  0
 72 81  1  0  0  0  0
 81 82  2  0  0  0  0
 82 83  1  0  0  0  0
 83 84  2  0  0  0  0
 84 85  1  0  0  0  0
 85 86  1  0  0  0  0
 84 87  1  0  0  0  0
 87 88  2  0  0  0  0
 71 89  1  0  0  0  0
 89 90  1  0  0  0  0
 90 91  1  0  0  0  0
 91 92  2  0  0  0  0
 92 93  1  0  0  0  0
 93 94  1  0  0  0  0
 94 95  2  0  0  0  0
 95 96  1  0  0  0  0
 96 97  2  0  0  0  0
 97 98  1  0  0  0  0
 98 99  1  0  0  0  0
 97100  1  0  0  0  0
100101  2  0  0  0  0
 93102  1  0  0  0  0
102103  2  0  0  0  0
103104  1  0  0  0  0
104105  2  0  0  0  0
105106  1  0  0  0  0
106107  1  0  0  0  0
105108  1  0  0  0  0
108109  2  0  0  0  0
 92110  1  0  0  0  0
110111  1  0  0  0  0
 91112  1  0  0  0  0
112113  2  0  0  0  0
113114  1  0  0  0  0
114115  2  0  0  0  0
114116  1  0  0  0  0
116117  2  0  0  0  0
117118  1  0  0  0  0
118119  2  0  0  0  0
119120  1  0  0  0  0
120121  2  0  0  0  0
121122  1  0  0  0  0
122123  2  0  0  0  0
123124  1  0  0  0  0
124125  3  0  0  0  0
123126  1  0  0  0  0
126127  3  0  0  0  0
119128  1  0  0  0  0
128129  1  0  0  0  0
129130  1  0  0  0  0
130131  2  0  0  0  0
131132  1  0  0  0  0
132133  1  0  0  0  0
132134  1  0  0  0  0
 11  2  1  0  0  0  0
 23 17  1  0  0  0  0
 50 24  1  0  0  0  0
 67 54  1  0  0  0  0
111 70  1  0  0  0  0
122113  1  0  0  0  0
134128  1  0  0  0  0
 10  5  1  0  0  0  0
 22 18  1  0  0  0  0
 49 26  1  0  0  0  0
 67 60  1  0  0  0  0
 80 73  1  0  0  0  0
 88 81  1  0  0  0  0
110 89  2  0  0  0  0
121116  1  0  0  0  0
133129  1  0  0  0  0
 23  7  1  0  0  0  0
 36 28  1  0  0  0  0
 53 37  1  0  0  0  0
101 94  1  0  0  0  0
109102  1  0  0  0  0
134118  1  0  0  0  0
 48 40  1  0  0  0  0
  1135  1  0  0  0  0
  6136  1  0  0  0  0
  9137  1  0  0  0  0
 17138  1  0  0  0  0
 18139  1  0  0  0  0
 19140  1  0  0  0  0
 20141  1  0  0  0  0
 21142  1  0  0  0  0
 22143  1  0  0  0  0
 22144  1  0  0  0  0
 23145  1  0  0  0  0
 25146  1  0  0  0  0
 29147  1  0  0  0  0
 30148  1  0  0  0  0
 33149  1  0  0  0  0
 33150  1  0  0  0  0
 34151  1  0  0  0  0
 34152  1  0  0  0  0
 34153  1  0  0  0  0
 35154  1  0  0  0  0
 36155  1  0  0  0  0
 41156  1  0  0  0  0
 42157  1  0  0  0  0
 45158  1  0  0  0  0
 45159  1  0  0  0  0
 46160  1  0  0  0  0
 46161  1  0  0  0  0
 46162  1  0  0  0  0
 47163  1  0  0  0  0
 48164  1  0  0  0  0
 51165  1  0  0  0  0
 63166  1  0  0  0  0
 63167  1  0  0  0  0
 64168  1  0  0  0  0
 64169  1  0  0  0  0
 64170  1  0  0  0  0
 68171  1  0  0  0  0
 68172  1  0  0  0  0
 69173  1  0  0  0  0
 69174  1  0  0  0  0
 69175  1  0  0  0  0
 74176  1  0  0  0  0
 75177  1  0  0  0  0
 78178  1  0  0  0  0
 78179  1  0  0  0  0
 78180  1  0  0  0  0
 79181  1  0  0  0  0
 80182  1  0  0  0  0
 82183  1  0  0  0  0
 83184  1  0  0  0  0
 86185  1  0  0  0  0
 86186  1  0  0  0  0
 86187  1  0  0  0  0
 87188  1  0  0  0  0
 88189  1  0  0  0  0
 95190  1  0  0  0  0
 96191  1  0  0  0  0
 99192  1  0  0  0  0
 99193  1  0  0  0  0
 99194  1  0  0  0  0
100195  1  0  0  0  0
101196  1  0  0  0  0
103197  1  0  0  0  0
104198  1  0  0  0  0
107199  1  0  0  0  0
107200  1  0  0  0  0
107201  1  0  0  0  0
108202  1  0  0  0  0
109203  1  0  0  0  0
112204  1  0  0  0  0
117205  1  0  0  0  0
120206  1  0  0  0  0
128207  1  0  0  0  0
129208  1  0  0  0  0
130209  1  0  0  0  0
131210  1  0  0  0  0
132211  1  0  0  0  0
133212  1  0  0  0  0
133213  1  0  0  0  0
134214  1  0  0  0  0
M  END
