
  xtb     02082217533D
 energy: -348.555394756799 gnorm: 0.000848643975 xtb: 6.4.1 (unknown)
206225  0     0  0            999 V2000
   -2.3745   -2.2111   -5.4169 C   0  0  0  0  0  0  0  0  0  0  0  0
   -3.5030   -1.5458   -5.8481 C   0  0  0  0  0  0  0  0  0  0  0  0
   -4.0166   -0.3172   -5.2237 C   0  0  0  0  0  0  0  0  0  0  0  0
   -3.5837    0.2489   -4.2352 O   0  0  0  0  0  0  0  0  0  0  0  0
   -5.0818    0.1743   -6.1210 C   0  0  0  0  0  0  0  0  0  0  0  0
   -5.8602    1.3154   -5.9533 C   0  0  0  0  0  0  0  0  0  0  0  0
   -6.7824    1.5152   -6.9536 C   0  0  0  0  0  0  0  0  0  0  0  0
   -6.9172    0.6479   -8.0441 C   0  0  0  0  0  0  0  0  0  0  0  0
   -6.1544   -0.4829   -8.2218 C   0  0  0  0  0  0  0  0  0  0  0  0
   -5.2127   -0.7030   -7.2148 C   0  0  0  0  0  0  0  0  0  0  0  0
   -4.2550   -1.7931   -7.0451 C   0  0  0  0  0  0  0  0  0  0  0  0
   -4.1914   -2.9374   -7.8030 C   0  0  0  0  0  0  0  0  0  0  0  0
   -3.3863   -4.0458   -7.4772 C   0  0  0  0  0  0  0  0  0  0  0  0
   -2.8059   -5.0112   -7.2476 N   0  0  0  0  0  0  0  0  0  0  0  0
   -4.9796   -3.1926   -8.9400 C   0  0  0  0  0  0  0  0  0  0  0  0
   -5.5900   -3.4767   -9.8712 N   0  0  0  0  0  0  0  0  0  0  0  0
   -8.0203    1.4696   -8.6646 C   0  0  0  0  0  0  0  0  0  0  0  0
   -7.6254    2.3648   -9.8581 C   0  0  0  0  0  0  0  0  0  0  0  0
   -8.7447    3.3777   -9.9373 C   0  0  0  0  0  0  0  0  0  0  0  0
   -8.6205    4.1981   -8.9018 C   0  0  0  0  0  0  0  0  0  0  0  0
   -7.4151    3.7531   -8.1056 C   0  0  0  0  0  0  0  0  0  0  0  0
   -6.5236    3.2372   -9.2425 C   0  0  0  0  0  0  0  0  0  0  0  0
   -7.8728    2.4353   -7.4452 C   0  0  0  0  0  0  0  0  0  0  0  0
   -1.8621   -2.1731   -4.1182 C   0  0  0  0  0  0  0  0  0  0  0  0
   -2.4923   -1.9237   -2.8794 C   0  0  0  0  0  0  0  0  0  0  0  0
   -3.8335   -1.8850   -2.6354 N   0  0  0  0  0  0  0  0  0  0  0  0
   -4.7847   -2.4565   -3.4913 C   0  0  0  0  0  0  0  0  0  0  0  0
   -4.5743   -3.6993   -4.0837 C   0  0  0  0  0  0  0  0  0  0  0  0
   -5.4891   -4.2193   -4.9759 C   0  0  0  0  0  0  0  0  0  0  0  0
   -6.6335   -3.4981   -5.3013 C   0  0  0  0  0  0  0  0  0  0  0  0
   -7.8174   -4.0069   -6.4990 S   0  0  0  0  0  0  0  0  0  0  0  0
   -7.1543   -5.5630   -7.1536 C   0  0  0  0  0  0  0  0  0  0  0  0
   -6.8780   -2.2833   -4.6615 C   0  0  0  0  0  0  0  0  0  0  0  0
   -5.9705   -1.7705   -3.7621 C   0  0  0  0  0  0  0  0  0  0  0  0
   -4.3111   -1.2400   -1.4727 C   0  0  0  0  0  0  0  0  0  0  0  0
   -3.9354    0.0696   -1.1794 C   0  0  0  0  0  0  0  0  0  0  0  0
   -4.4232    0.6857   -0.0489 C   0  0  0  0  0  0  0  0  0  0  0  0
   -5.2908    0.0087    0.8066 C   0  0  0  0  0  0  0  0  0  0  0  0
   -5.8926    0.9096    2.1947 S   0  0  0  0  0  0  0  0  0  0  0  0
   -6.6447   -0.3547    3.2542 C   0  0  0  0  0  0  0  0  0  0  0  0
   -5.6691   -1.2946    0.5118 C   0  0  0  0  0  0  0  0  0  0  0  0
   -5.1824   -1.9126   -0.6239 C   0  0  0  0  0  0  0  0  0  0  0  0
   -1.5317   -1.8351   -1.8485 C   0  0  0  0  0  0  0  0  0  0  0  0
   -1.6339   -1.5196   -0.1448 S   0  0  0  0  0  0  0  0  0  0  0  0
    0.1073   -1.6638   -0.0034 C   0  0  0  0  0  0  0  0  0  0  0  0
    0.7098   -2.0468   -1.1957 C   0  0  0  0  0  0  0  0  0  0  0  0
    2.0455   -2.4357   -1.2258 N   0  0  0  0  0  0  0  0  0  0  0  0
    2.3586   -3.5188   -0.3792 C   0  0  0  0  0  0  0  0  0  0  0  0
    3.5579   -3.5660    0.3271 C   0  0  0  0  0  0  0  0  0  0  0  0
    3.8288   -4.6364    1.1556 C   0  0  0  0  0  0  0  0  0  0  0  0
    2.9139   -5.6761    1.2846 C   0  0  0  0  0  0  0  0  0  0  0  0
    3.3072   -7.0188    2.3725 S   0  0  0  0  0  0  0  0  0  0  0  0
    2.5320   -8.4320    1.5261 C   0  0  0  0  0  0  0  0  0  0  0  0
    1.7130   -5.6288    0.5908 C   0  0  0  0  0  0  0  0  0  0  0  0
    1.4413   -4.5574   -0.2317 C   0  0  0  0  0  0  0  0  0  0  0  0
    2.8713   -2.0648   -2.2877 C   0  0  0  0  0  0  0  0  0  0  0  0
    2.6549   -0.8561   -2.9444 C   0  0  0  0  0  0  0  0  0  0  0  0
    3.4357   -0.4863   -4.0219 C   0  0  0  0  0  0  0  0  0  0  0  0
    4.4708   -1.3074   -4.4453 C   0  0  0  0  0  0  0  0  0  0  0  0
    5.5382   -0.9570   -5.8058 S   0  0  0  0  0  0  0  0  0  0  0  0
    5.0064    0.6805   -6.3761 C   0  0  0  0  0  0  0  0  0  0  0  0
    4.7027   -2.5082   -3.7781 C   0  0  0  0  0  0  0  0  0  0  0  0
    3.9099   -2.8895   -2.7205 C   0  0  0  0  0  0  0  0  0  0  0  0
   -0.2260   -2.1036   -2.2464 C   0  0  0  0  0  0  0  0  0  0  0  0
   -0.1248   -2.4762   -3.9254 S   0  0  0  0  0  0  0  0  0  0  0  0
    0.7714   -1.1632    1.1410 C   0  0  0  0  0  0  0  0  0  0  0  0
    0.1903   -0.8779    2.3691 C   0  0  0  0  0  0  0  0  0  0  0  0
   -1.0104   -1.4594    2.7617 N   0  0  0  0  0  0  0  0  0  0  0  0
   -1.0339   -2.8659    2.7771 C   0  0  0  0  0  0  0  0  0  0  0  0
   -2.1736   -3.5722    2.3992 C   0  0  0  0  0  0  0  0  0  0  0  0
   -2.1674   -4.9521    2.4180 C   0  0  0  0  0  0  0  0  0  0  0  0
   -1.0318   -5.6454    2.8243 C   0  0  0  0  0  0  0  0  0  0  0  0
   -1.0762   -7.4165    2.8183 S   0  0  0  0  0  0  0  0  0  0  0  0
   -0.0251   -7.8264    4.2471 C   0  0  0  0  0  0  0  0  0  0  0  0
    0.1086   -4.9458    3.1935 C   0  0  0  0  0  0  0  0  0  0  0  0
    0.1053   -3.5682    3.1649 C   0  0  0  0  0  0  0  0  0  0  0  0
   -1.9565   -0.6959    3.4453 C   0  0  0  0  0  0  0  0  0  0  0  0
   -2.7419   -1.2454    4.4585 C   0  0  0  0  0  0  0  0  0  0  0  0
   -3.6447   -0.4583    5.1377 C   0  0  0  0  0  0  0  0  0  0  0  0
   -3.7798    0.8938    4.8321 C   0  0  0  0  0  0  0  0  0  0  0  0
   -4.9546    1.8039    5.7877 S   0  0  0  0  0  0  0  0  0  0  0  0
   -5.0773    3.3946    4.9247 C   0  0  0  0  0  0  0  0  0  0  0  0
   -3.0031    1.4440    3.8223 C   0  0  0  0  0  0  0  0  0  0  0  0
   -2.1089    0.6526    3.1309 C   0  0  0  0  0  0  0  0  0  0  0  0
    1.0125   -0.0311    3.1394 C   0  0  0  0  0  0  0  0  0  0  0  0
    0.8784    0.6959    4.6984 S   0  0  0  0  0  0  0  0  0  0  0  0
    2.4447    1.4919    4.4880 C   0  0  0  0  0  0  0  0  0  0  0  0
    3.0638    1.1274    3.2913 C   0  0  0  0  0  0  0  0  0  0  0  0
    4.3261    1.4691    2.8460 N   0  0  0  0  0  0  0  0  0  0  0  0
    4.4856    1.6715    1.4614 C   0  0  0  0  0  0  0  0  0  0  0  0
    5.5794    1.1354    0.7835 C   0  0  0  0  0  0  0  0  0  0  0  0
    5.7211    1.3414   -0.5704 C   0  0  0  0  0  0  0  0  0  0  0  0
    4.7755    2.0851   -1.2747 C   0  0  0  0  0  0  0  0  0  0  0  0
    5.0798    2.3179   -2.9933 S   0  0  0  0  0  0  0  0  0  0  0  0
    3.7129    3.3850   -3.5398 C   0  0  0  0  0  0  0  0  0  0  0  0
    3.6793    2.6104   -0.6054 C   0  0  0  0  0  0  0  0  0  0  0  0
    3.5412    2.4075    0.7533 C   0  0  0  0  0  0  0  0  0  0  0  0
    5.4028    1.6961    3.7055 C   0  0  0  0  0  0  0  0  0  0  0  0
    5.5138    1.0124    4.9152 C   0  0  0  0  0  0  0  0  0  0  0  0
    6.4758    1.3675    5.8398 C   0  0  0  0  0  0  0  0  0  0  0  0
    7.3642    2.3967    5.5573 C   0  0  0  0  0  0  0  0  0  0  0  0
    8.5407    3.0284    6.7137 S   0  0  0  0  0  0  0  0  0  0  0  0
    7.9399    2.4018    8.3078 C   0  0  0  0  0  0  0  0  0  0  0  0
    7.3351    2.9974    4.3011 C   0  0  0  0  0  0  0  0  0  0  0  0
    6.3644    2.6587    3.3878 C   0  0  0  0  0  0  0  0  0  0  0  0
    2.2191    0.2821    2.5311 C   0  0  0  0  0  0  0  0  0  0  0  0
    2.3875   -0.4928    0.9895 S   0  0  0  0  0  0  0  0  0  0  0  0
    2.8836    2.3656    5.5137 C   0  0  0  0  0  0  0  0  0  0  0  0
    2.5176    2.2814    6.8498 C   0  0  0  0  0  0  0  0  0  0  0  0
    3.2009    3.1899    7.6502 C   0  0  0  0  0  0  0  0  0  0  0  0
    3.1652    3.3230    8.9850 O   0  0  0  0  0  0  0  0  0  0  0  0
    2.2462    2.5422    9.7318 C   0  0  0  0  0  0  0  0  0  0  0  0
    0.8182    3.0629    9.6195 C   0  0  0  0  0  0  0  0  0  0  0  0
    4.1018    4.0038    6.9216 C   0  0  0  0  0  0  0  0  0  0  0  0
    3.9619    3.6893    5.2127 S   0  0  0  0  0  0  0  0  0  0  0  0
    5.0806    4.7741    7.5469 C   0  0  0  0  0  0  0  0  0  0  0  0
    6.1096    5.4899    6.9828 C   0  0  0  0  0  0  0  0  0  0  0  0
    6.2579    5.7914    5.5521 C   0  0  0  0  0  0  0  0  0  0  0  0
    5.4859    5.5139    4.6508 O   0  0  0  0  0  0  0  0  0  0  0  0
    7.5178    6.5438    5.4385 C   0  0  0  0  0  0  0  0  0  0  0  0
    8.2986    7.1197    4.4253 C   0  0  0  0  0  0  0  0  0  0  0  0
    9.4231    7.6928    4.9529 C   0  0  0  0  0  0  0  0  0  0  0  0
   10.6465    8.5009    4.0847 Cl  0  0  0  0  0  0  0  0  0  0  0  0
    9.5469    7.5391    6.6882 S   0  0  0  0  0  0  0  0  0  0  0  0
    8.0569    6.6921    6.7053 C   0  0  0  0  0  0  0  0  0  0  0  0
    7.2297    6.0621    7.7010 C   0  0  0  0  0  0  0  0  0  0  0  0
    7.5319    6.0042    9.0405 C   0  0  0  0  0  0  0  0  0  0  0  0
    6.7873    5.3313   10.0246 C   0  0  0  0  0  0  0  0  0  0  0  0
    6.2433    4.7854   10.8775 N   0  0  0  0  0  0  0  0  0  0  0  0
    8.6948    6.6222    9.5419 C   0  0  0  0  0  0  0  0  0  0  0  0
    9.6369    7.1224    9.9661 N   0  0  0  0  0  0  0  0  0  0  0  0
   -1.7917   -2.7697   -6.1400 H   0  0  0  0  0  0  0  0  0  0  0  0
   -5.7281    1.9576   -5.0962 H   0  0  0  0  0  0  0  0  0  0  0  0
   -6.2670   -1.1431   -9.0656 H   0  0  0  0  0  0  0  0  0  0  0  0
   -8.9689    0.9568   -8.8119 H   0  0  0  0  0  0  0  0  0  0  0  0
   -7.3869    1.8266  -10.7714 H   0  0  0  0  0  0  0  0  0  0  0  0
   -9.5185    3.3601  -10.6822 H   0  0  0  0  0  0  0  0  0  0  0  0
   -9.2698    5.0023   -8.6087 H   0  0  0  0  0  0  0  0  0  0  0  0
   -6.9846    4.4803   -7.4219 H   0  0  0  0  0  0  0  0  0  0  0  0
   -6.2076    4.0352   -9.9126 H   0  0  0  0  0  0  0  0  0  0  0  0
   -5.6526    2.6789   -8.9044 H   0  0  0  0  0  0  0  0  0  0  0  0
   -8.7237    2.5656   -6.7789 H   0  0  0  0  0  0  0  0  0  0  0  0
   -3.6823   -4.2625   -3.8543 H   0  0  0  0  0  0  0  0  0  0  0  0
   -5.2899   -5.1809   -5.4198 H   0  0  0  0  0  0  0  0  0  0  0  0
   -6.1733   -5.4006   -7.5901 H   0  0  0  0  0  0  0  0  0  0  0  0
   -7.8499   -5.8678   -7.9292 H   0  0  0  0  0  0  0  0  0  0  0  0
   -7.1212   -6.3135   -6.3692 H   0  0  0  0  0  0  0  0  0  0  0  0
   -7.7791   -1.7387   -4.8982 H   0  0  0  0  0  0  0  0  0  0  0  0
   -6.1581   -0.8230   -3.2802 H   0  0  0  0  0  0  0  0  0  0  0  0
   -3.2882    0.5943   -1.8640 H   0  0  0  0  0  0  0  0  0  0  0  0
   -4.1486    1.7032    0.1822 H   0  0  0  0  0  0  0  0  0  0  0  0
   -7.5589   -0.7295    2.8036 H   0  0  0  0  0  0  0  0  0  0  0  0
   -6.8721    0.1450    4.1910 H   0  0  0  0  0  0  0  0  0  0  0  0
   -5.9265   -1.1502    3.4287 H   0  0  0  0  0  0  0  0  0  0  0  0
   -6.3461   -1.8360    1.1530 H   0  0  0  0  0  0  0  0  0  0  0  0
   -5.4812   -2.9241   -0.8582 H   0  0  0  0  0  0  0  0  0  0  0  0
    4.2723   -2.7644    0.2164 H   0  0  0  0  0  0  0  0  0  0  0  0
    4.7553   -4.6770    1.7077 H   0  0  0  0  0  0  0  0  0  0  0  0
    2.8049   -8.4061    0.4759 H   0  0  0  0  0  0  0  0  0  0  0  0
    1.4527   -8.4153    1.6463 H   0  0  0  0  0  0  0  0  0  0  0  0
    2.9406   -9.3206    1.9970 H   0  0  0  0  0  0  0  0  0  0  0  0
    0.9877   -6.4215    0.6788 H   0  0  0  0  0  0  0  0  0  0  0  0
    0.5087   -4.5325   -0.7754 H   0  0  0  0  0  0  0  0  0  0  0  0
    1.8630   -0.2026   -2.6074 H   0  0  0  0  0  0  0  0  0  0  0  0
    3.2281    0.4449   -4.5223 H   0  0  0  0  0  0  0  0  0  0  0  0
    5.1417    1.4022   -5.5761 H   0  0  0  0  0  0  0  0  0  0  0  0
    5.6572    0.9248   -7.2098 H   0  0  0  0  0  0  0  0  0  0  0  0
    3.9746    0.6413   -6.7131 H   0  0  0  0  0  0  0  0  0  0  0  0
    5.5052   -3.1472   -4.1134 H   0  0  0  0  0  0  0  0  0  0  0  0
    4.0845   -3.8367   -2.2338 H   0  0  0  0  0  0  0  0  0  0  0  0
   -3.0565   -3.0313    2.0927 H   0  0  0  0  0  0  0  0  0  0  0  0
   -3.0448   -5.5055    2.1199 H   0  0  0  0  0  0  0  0  0  0  0  0
   -0.3370   -7.2276    5.0970 H   0  0  0  0  0  0  0  0  0  0  0  0
    1.0243   -7.6607    4.0215 H   0  0  0  0  0  0  0  0  0  0  0  0
   -0.1961   -8.8793    4.4484 H   0  0  0  0  0  0  0  0  0  0  0  0
    0.9999   -5.4629    3.5098 H   0  0  0  0  0  0  0  0  0  0  0  0
    0.9950   -3.0301    3.4563 H   0  0  0  0  0  0  0  0  0  0  0  0
   -2.6318   -2.2874    4.7188 H   0  0  0  0  0  0  0  0  0  0  0  0
   -4.2489   -0.8808    5.9265 H   0  0  0  0  0  0  0  0  0  0  0  0
   -4.1493    3.9490    5.0296 H   0  0  0  0  0  0  0  0  0  0  0  0
   -5.3245    3.2203    3.8817 H   0  0  0  0  0  0  0  0  0  0  0  0
   -5.8836    3.9319    5.4145 H   0  0  0  0  0  0  0  0  0  0  0  0
   -3.0919    2.4844    3.5567 H   0  0  0  0  0  0  0  0  0  0  0  0
   -1.5200    1.0811    2.3335 H   0  0  0  0  0  0  0  0  0  0  0  0
    6.3143    0.5616    1.3278 H   0  0  0  0  0  0  0  0  0  0  0  0
    6.5650    0.9286   -1.1014 H   0  0  0  0  0  0  0  0  0  0  0  0
    3.8910    3.5814   -4.5929 H   0  0  0  0  0  0  0  0  0  0  0  0
    3.7308    4.3197   -2.9874 H   0  0  0  0  0  0  0  0  0  0  0  0
    2.7643    2.8705   -3.4154 H   0  0  0  0  0  0  0  0  0  0  0  0
    2.9311    3.1889   -1.1221 H   0  0  0  0  0  0  0  0  0  0  0  0
    2.6978    2.8338    1.2762 H   0  0  0  0  0  0  0  0  0  0  0  0
    4.8163    0.2223    5.1509 H   0  0  0  0  0  0  0  0  0  0  0  0
    6.5150    0.8423    6.7806 H   0  0  0  0  0  0  0  0  0  0  0  0
    6.8862    2.6427    8.4200 H   0  0  0  0  0  0  0  0  0  0  0  0
    8.5205    2.9158    9.0679 H   0  0  0  0  0  0  0  0  0  0  0  0
    8.1120    1.3321    8.3825 H   0  0  0  0  0  0  0  0  0  0  0  0
    8.0566    3.7654    4.0686 H   0  0  0  0  0  0  0  0  0  0  0  0
    6.3109    3.1789    2.4449 H   0  0  0  0  0  0  0  0  0  0  0  0
    1.8234    1.5395    7.2027 H   0  0  0  0  0  0  0  0  0  0  0  0
    2.5997    2.6296   10.7621 H   0  0  0  0  0  0  0  0  0  0  0  0
    2.3049    1.4910    9.4259 H   0  0  0  0  0  0  0  0  0  0  0  0
    0.7790    4.1014    9.9380 H   0  0  0  0  0  0  0  0  0  0  0  0
    0.1645    2.4736   10.2560 H   0  0  0  0  0  0  0  0  0  0  0  0
    0.4603    3.0013    8.5945 H   0  0  0  0  0  0  0  0  0  0  0  0
    5.0323    4.7287    8.6290 H   0  0  0  0  0  0  0  0  0  0  0  0
    8.0567    7.1141    3.3792 H   0  0  0  0  0  0  0  0  0  0  0  0
  1  2  2  0  0  0  0
  2  3  1  0  0  0  0
  3  4  2  0  0  0  0
  3  5  1  0  0  0  0
  5  6  2  0  0  0  0
  6  7  1  0  0  0  0
  7  8  2  0  0  0  0
  8  9  1  0  0  0  0
  9 10  2  0  0  0  0
 10 11  1  0  0  0  0
 11 12  2  0  0  0  0
 12 13  1  0  0  0  0
 13 14  3  0  0  0  0
 12 15  1  0  0  0  0
 15 16  3  0  0  0  0
  8 17  1  0  0  0  0
 17 18  1  0  0  0  0
 18 19  1  0  0  0  0
 19 20  2  0  0  0  0
 20 21  1  0  0  0  0
 21 22  1  0  0  0  0
 21 23  1  0  0  0  0
  1 24  1  0  0  0  0
 24 25  2  0  0  0  0
 25 26  1  0  0  0  0
 26 27  1  0  0  0  0
 27 28  2  0  0  0  0
 28 29  1  0  0  0  0
 29 30  2  0  0  0  0
 30 31  1  0  0  0  0
 31 32  1  0  0  0  0
 30 33  1  0  0  0  0
 33 34  2  0  0  0  0
 26 35  1  0  0  0  0
 35 36  2  0  0  0  0
 36 37  1  0  0  0  0
 37 38  2  0  0  0  0
 38 39  1  0  0  0  0
 39 40  1  0  0  0  0
 38 41  1  0  0  0  0
 41 42  2  0  0  0  0
 25 43  1  0  0  0  0
 43 44  1  0  0  0  0
 44 45  1  0  0  0  0
 45 46  2  0  0  0  0
 46 47  1  0  0  0  0
 47 48  1  0  0  0  0
 48 49  2  0  0  0  0
 49 50  1  0  0  0  0
 50 51  2  0  0  0  0
 51 52  1  0  0  0  0
 52 53  1  0  0  0  0
 51 54  1  0  0  0  0
 54 55  2  0  0  0  0
 47 56  1  0  0  0  0
 56 57  2  0  0  0  0
 57 58  1  0  0  0  0
 58 59  2  0  0  0  0
 59 60  1  0  0  0  0
 60 61  1  0  0  0  0
 59 62  1  0  0  0  0
 62 63  2  0  0  0  0
 46 64  1  0  0  0  0
 64 65  1  0  0  0  0
 45 66  1  0  0  0  0
 66 67  2  0  0  0  0
 67 68  1  0  0  0  0
 68 69  1  0  0  0  0
 69 70  2  0  0  0  0
 70 71  1  0  0  0  0
 71 72  2  0  0  0  0
 72 73  1  0  0  0  0
 73 74  1  0  0  0  0
 72 75  1  0  0  0  0
 75 76  2  0  0  0  0
 68 77  1  0  0  0  0
 77 78  2  0  0  0  0
 78 79  1  0  0  0  0
 79 80  2  0  0  0  0
 80 81  1  0  0  0  0
 81 82  1  0  0  0  0
 80 83  1  0  0  0  0
 83 84  2  0  0  0  0
 67 85  1  0  0  0  0
 85 86  1  0  0  0  0
 86 87  1  0  0  0  0
 87 88  2  0  0  0  0
 88 89  1  0  0  0  0
 89 90  1  0  0  0  0
 90 91  2  0  0  0  0
 91 92  1  0  0  0  0
 92 93  2  0  0  0  0
 93 94  1  0  0  0  0
 94 95  1  0  0  0  0
 93 96  1  0  0  0  0
 96 97  2  0  0  0  0
 89 98  1  0  0  0  0
 98 99  2  0  0  0  0
 99100  1  0  0  0  0
100101  2  0  0  0  0
101102  1  0  0  0  0
102103  1  0  0  0  0
101104  1  0  0  0  0
104105  2  0  0  0  0
 88106  1  0  0  0  0
106107  1  0  0  0  0
 87108  1  0  0  0  0
108109  2  0  0  0  0
109110  1  0  0  0  0
110111  1  0  0  0  0
111112  1  0  0  0  0
112113  1  0  0  0  0
110114  2  0  0  0  0
114115  1  0  0  0  0
114116  1  0  0  0  0
116117  2  0  0  0  0
117118  1  0  0  0  0
118119  2  0  0  0  0
118120  1  0  0  0  0
120121  1  0  0  0  0
121122  2  0  0  0  0
122123  1  0  0  0  0
122124  1  0  0  0  0
124125  1  0  0  0  0
125126  1  0  0  0  0
126127  2  0  0  0  0
127128  1  0  0  0  0
128129  3  0  0  0  0
127130  1  0  0  0  0
130131  3  0  0  0  0
 11  2  1  0  0  0  0
 23 17  1  0  0  0  0
 65 24  1  0  0  0  0
107 66  1  0  0  0  0
115108  1  0  0  0  0
126117  1  0  0  0  0
 10  5  1  0  0  0  0
 22 18  1  0  0  0  0
 34 27  1  0  0  0  0
 42 35  1  0  0  0  0
 64 43  2  0  0  0  0
 76 69  1  0  0  0  0
 84 77  1  0  0  0  0
106 85  2  0  0  0  0
125120  2  0  0  0  0
 23  7  1  0  0  0  0
 55 48  1  0  0  0  0
 63 56  1  0  0  0  0
 97 90  1  0  0  0  0
105 98  1  0  0  0  0
  1132  1  0  0  0  0
  6133  1  0  0  0  0
  9134  1  0  0  0  0
 17135  1  0  0  0  0
 18136  1  0  0  0  0
 19137  1  0  0  0  0
 20138  1  0  0  0  0
 21139  1  0  0  0  0
 22140  1  0  0  0  0
 22141  1  0  0  0  0
 23142  1  0  0  0  0
 28143  1  0  0  0  0
 29144  1  0  0  0  0
 32145  1  0  0  0  0
 32146  1  0  0  0  0
 32147  1  0  0  0  0
 33148  1  0  0  0  0
 34149  1  0  0  0  0
 36150  1  0  0  0  0
 37151  1  0  0  0  0
 40152  1  0  0  0  0
 40153  1  0  0  0  0
 40154  1  0  0  0  0
 41155  1  0  0  0  0
 42156  1  0  0  0  0
 49157  1  0  0  0  0
 50158  1  0  0  0  0
 53159  1  0  0  0  0
 53160  1  0  0  0  0
 53161  1  0  0  0  0
 54162  1  0  0  0  0
 55163  1  0  0  0  0
 57164  1  0  0  0  0
 58165  1  0  0  0  0
 61166  1  0  0  0  0
 61167  1  0  0  0  0
 61168  1  0  0  0  0
 62169  1  0  0  0  0
 63170  1  0  0  0  0
 70171  1  0  0  0  0
 71172  1  0  0  0  0
 74173  1  0  0  0  0
 74174  1  0  0  0  0
 74175  1  0  0  0  0
 75176  1  0  0  0  0
 76177  1  0  0  0  0
 78178  1  0  0  0  0
 79179  1  0  0  0  0
 82180  1  0  0  0  0
 82181  1  0  0  0  0
 82182  1  0  0  0  0
 83183  1  0  0  0  0
 84184  1  0  0  0  0
 91185  1  0  0  0  0
 92186  1  0  0  0  0
 95187  1  0  0  0  0
 95188  1  0  0  0  0
 95189  1  0  0  0  0
 96190  1  0  0  0  0
 97191  1  0  0  0  0
 99192  1  0  0  0  0
100193  1  0  0  0  0
103194  1  0  0  0  0
103195  1  0  0  0  0
103196  1  0  0  0  0
104197  1  0  0  0  0
105198  1  0  0  0  0
109199  1  0  0  0  0
112200  1  0  0  0  0
112201  1  0  0  0  0
113202  1  0  0  0  0
113203  1  0  0  0  0
113204  1  0  0  0  0
116205  1  0  0  0  0
121206  1  0  0  0  0
M  END
