242

C         -5.46570       -6.30940        0.27730
C         -6.39370       -6.42800        1.28330
C         -6.30470       -5.85100        2.62820
O         -5.29970       -5.49570        3.22300
C         -7.68320       -5.81590        3.14770
C         -8.12460       -5.22590        4.32870
C         -9.48020       -5.32940        4.53190
C        -10.33510       -5.97290        3.62820
C         -9.91230       -6.55760        2.45700
C         -8.53830       -6.45910        2.22880
C         -7.73970       -6.91640        1.09350
C         -8.20240       -7.66370        0.03840
C         -7.40360       -8.19220       -0.99330
N         -6.83490       -8.68480       -1.86310
C         -9.54450       -8.04510       -0.15230
N        -10.61390       -8.38280       -0.40230
C        -11.56340       -5.66410        4.44690
C        -12.47590       -4.51010        3.96160
C        -11.59680       -3.56730        3.17770
C        -10.78820       -2.96010        4.03600
C        -11.10560       -3.48180        5.41560
C        -12.61700       -3.72120        5.27320
C        -10.61010       -4.94880        5.45560
C         -4.25270       -5.61630        0.25790
C         -3.59870       -5.20590       -0.92870
N         -4.10140       -5.35180       -2.20130
C         -5.48080       -5.25180       -2.45400
C         -6.09840       -6.10090       -3.36690
C         -7.47100       -6.08140       -3.52520
C         -8.24860       -5.22360       -2.75970
S        -10.01160       -5.19620       -2.79150
C        -10.44850       -6.72350       -3.66640
C         -7.62440       -4.31840       -1.90010
C         -6.25680       -4.32100       -1.75840
C         -3.22040       -5.61190       -3.26230
C         -2.16200       -6.50140       -3.09540
C         -1.34120       -6.82410       -4.15680
C         -1.56890       -6.25770       -5.40420
S         -0.60170       -6.63880       -6.83230
C          0.06310       -8.28690       -6.45110
C         -2.59940       -5.33450       -5.56480
C         -3.41940       -5.01470       -4.50630
C         -2.40440       -4.53030       -0.63820
S         -1.21950       -3.69110       -1.59540
C         -0.42800       -3.10880       -0.13190
C         -1.00460       -3.64100        1.01980
N         -0.54160       -3.41810        2.31140
C         -1.53160       -3.31620        3.30740
C         -2.59290       -2.43260        3.12410
C         -3.64240       -2.41300        4.01700
C         -3.64300       -3.27390        5.10780
S         -5.03410       -3.24630        6.19710
C         -5.13440       -4.99540        6.69020
C         -2.55860       -4.11290        5.32670
C         -1.51150       -4.13850        4.42920
C          0.78840       -3.66670        2.65270
C          1.34160       -3.04360        3.77010
C          2.66550       -3.23770        4.10790
C          3.46820       -4.05920        3.32780
S          5.17900       -4.37260        3.64080
C          5.50830       -3.50140        5.19800
C          2.91900       -4.68890        2.21300
C          1.59640       -4.50140        1.87980
C         -2.14160       -4.41770        0.72320
S         -3.38150       -5.11020        1.70360
C          0.50680       -2.04820       -0.16500
C          1.15050       -1.47340       -1.25960
N          1.25160       -2.02170       -2.52500
C          1.41490       -1.11060       -3.59050
C          0.50010       -0.07120       -3.75440
C          0.71040        0.89200       -4.71590
C          1.83680        0.83750       -5.53490
S          2.04580        2.15420       -6.68760
C          3.75280        1.95420       -7.27210
C          2.72150       -0.22600       -5.40760
C          2.51230       -1.18960       -4.44120
C          1.54680       -3.37330       -2.71890
C          2.15990       -4.13660       -1.72840
C          2.42730       -5.47580       -1.93270
C          2.11990       -6.06740       -3.14870
S          2.40550       -7.77660       -3.50660
C          3.47350       -8.33940       -2.15390
C          1.53770       -5.30070       -4.15540
C          1.23730       -3.97620       -3.93950
C          1.73370       -0.23590       -0.90680
S          2.60390        0.97080       -1.77830
C          2.76930        1.95090       -0.32330
C          2.24520        1.31320        0.80070
N          2.29790        1.73250        2.11920
C          3.42990        2.33060        2.67430
C          3.29920        3.17090        3.78440
C          4.39590        3.82600        4.29610
C          5.64810        3.67250        3.70780
S          6.98640        4.58590        4.40720
C          8.13040        4.74350        3.00390
C          5.79340        2.80770        2.63200
C          4.69670        2.14030        2.12450
C          1.21970        1.36700        2.95080
C          1.43480        0.74290        4.17520
C          0.36920        0.37480        4.97360
C         -0.93300        0.61740        4.55460
S         -2.36910        0.22640        5.49990
C         -1.75890       -0.89680        6.78600
C         -1.15030        1.24160        3.32740
C         -0.08860        1.61590        2.53560
C          1.61750        0.09840        0.43200
S          0.74150       -1.10420        1.30920
C          3.33110        3.24170       -0.51640
C          3.50170        4.29480        0.34280
C          4.06970        5.43810       -0.26380
C          4.44490        6.64400        0.35630
C          4.22660        6.86390        1.79200
C          2.97160        6.67200        2.35710
C          2.75300        6.87620        3.70670
C          3.80180        7.27300        4.53050
O          3.71840        7.51060        5.86520
C          2.48850        7.35360        6.54280
C          2.16270        5.89560        6.85660
C          5.06430        7.47050        3.96550
C          5.26980        7.27650        2.61940
C          5.02690        7.60180       -0.45850
C          5.21290        7.42810       -1.86010
C          4.83810        6.21620       -2.47920
C          4.98680        5.98180       -3.91850
C          6.18840        6.20720       -4.57980
C          6.32250        5.93470       -5.92930
C          5.24190        5.43730       -6.65110
O          5.26420        5.10640       -7.96910
C          6.44300        5.33440       -8.71770
C          6.16880        4.90400      -10.15010
C          4.02350        5.23770       -5.99740
C          3.90320        5.49650       -4.65310
C          4.29520        5.25200       -1.65220
S          3.84030        3.64440       -2.14980
C          5.73640        8.57410       -2.47980
C          5.98320        9.61350       -1.61090
S          5.54630        9.18180        0.04790
C          6.47590       10.91850       -1.80450
C          6.94810       11.56450       -2.91670
C          7.15840       11.02760       -4.28740
O          6.96800        9.90820       -4.71630
C          7.69080       12.16350       -5.03830
S          8.19730       12.42800       -6.65000
C          8.57710       14.07490       -6.23680
Br         9.26490       15.22540       -7.54490
C          8.32930       14.40160       -4.93220
C          7.81590       13.28930       -4.24060
C          7.36530       12.96010       -2.89960
C          7.35570       13.85620       -1.86270
C          6.93010       13.62480       -0.53880
N          6.61060       13.53680        0.56100
C          7.80070       15.18460       -2.03530
N          8.15880       16.26850       -2.15240
H         -5.75280       -6.72650       -0.67900
H         -7.43950       -4.71890        4.98910
H        -10.58270       -7.03810        1.76400
H        -12.13200       -6.52150        4.80150
H        -13.38960       -4.83400        3.47040
H        -11.61320       -3.48520        2.10660
H         -9.99310       -2.26870        3.82660
H        -10.77100       -2.86940        6.24900
H        -13.17980       -2.79710        5.15010
H        -13.04300       -4.30560        6.08770
H        -10.55440       -5.34110        6.46940
H         -5.50630       -6.80580       -3.92940
H         -7.92080       -6.76590       -4.22500
H        -10.19960       -6.63820       -4.72030
H        -11.52200       -6.83010       -3.54700
H         -9.94360       -7.56670       -3.20430
H         -8.23090       -3.62180       -1.34170
H         -5.78110       -3.62610       -1.08240
H         -1.99850       -6.96180       -2.13210
H         -0.53670       -7.52540       -4.00540
H          0.86190       -8.22160       -5.71760
H         -0.74260       -8.92240       -6.09750
H          0.45550       -8.66880       -7.38830
H         -2.75400       -4.88140       -6.53180
H         -4.22810       -4.31150       -4.63650
H         -2.59380       -1.78030        2.26330
H         -4.47430       -1.74240        3.87110
H         -4.37540       -5.22980        7.43100
H         -6.11860       -5.13520        7.12700
H         -5.02060       -5.60560        5.79890
H         -2.53180       -4.76680        6.18410
H         -0.68450       -4.81700        4.58090
H          0.72650       -2.38250        4.36160
H          3.06040       -2.73160        4.97400
H          4.86020       -3.88480        5.98060
H          5.37780       -2.43140        5.06330
H          6.54450       -3.71730        5.43910
H          3.54700       -5.33350        1.61660
H          1.17880       -5.00620        1.02140
H         -0.36290       -0.01830       -3.10710
H          0.01340        1.70690       -4.83560
H          4.42160        1.90990       -6.41760
H          3.83620        1.06600       -7.89210
H          3.97070        2.83950       -7.86210
H          3.58810       -0.30710       -6.04330
H          3.21710       -2.00040       -4.32940
H          2.43810       -3.68200       -0.78910
H          2.88900       -6.03890       -1.13710
H          3.77480       -9.34840       -2.41850
H          2.92010       -8.35510       -1.21930
H          4.34650       -7.69680       -2.08700
H          1.32260       -5.74920       -5.11130
H          0.76380       -3.39730       -4.71730
H          2.32430        3.32030        4.22450
H          4.29660        4.48370        5.14440
H          8.81820        5.54040        3.26810
H          8.68220        3.81970        2.85450
H          7.56740        5.01300        2.11540
H          6.75940        2.64130        2.18270
H          4.82450        1.46520        1.29230
H          2.44560        0.54540        4.50040
H          0.56580       -0.09980        5.92200
H         -1.22010       -1.71930        6.32490
H         -1.13890       -0.35880        7.49720
H         -2.64810       -1.27360        7.28210
H         -2.16380        1.43320        3.01100
H         -0.26030        2.10130        1.58610
H          3.23250        4.27400        1.37960
H          2.14220        6.38480        1.72690
H          1.75800        6.72830        4.09650
H          1.67270        7.82300        5.97920
H          2.62360        7.90720        7.47640
H          2.98270        5.44770        7.41300
H          2.00880        5.32230        5.94570
H          1.25980        5.84560        7.45920
H          5.87030        7.77630        4.61270
H          6.25420        7.43090        2.20300
H          7.04240        6.57370       -4.03030
H          7.27440        6.11330       -6.40350
H          7.27450        4.75050       -8.29860
H          6.70880        6.39950       -8.68450
H          5.92160        3.84610      -10.18140
H          7.04640        5.08300      -10.76440
H          5.33080        5.46720      -10.55150
H          3.18110        4.87690       -6.56560
H          2.95080        5.34550       -4.16840
H          5.91450        8.64470       -3.53630
H          6.46870       11.50650       -0.89390
H          8.51050       15.37670       -4.51990
