199

C         -7.88140       -1.56380        1.65050
C         -8.86210       -0.62890        1.90460
C         -8.77540        0.79090        1.52880
O         -7.86690        1.33790        0.92990
C        -10.07400        1.38440        1.91160
C        -10.45690        2.71720        1.79590
C        -11.70520        2.98810        2.30480
C        -12.52180        2.00300        2.87300
C        -12.16480        0.67980        2.97530
C        -10.89460        0.38660        2.47340
C        -10.16090       -0.87640        2.46270
C        -10.56660       -2.05190        3.05070
C         -9.76050       -3.20080        3.16680
N         -9.15240       -4.16090        3.34080
C        -11.80130       -2.23940        3.69660
N        -12.77530       -2.45870        4.26700
C        -13.62690        2.98160        3.18340
C        -14.84990        2.96580        2.24290
C        -15.51030        4.30390        2.48400
C        -14.73730        5.23820        1.94540
C        -13.54150        4.54710        1.33090
C        -14.19730        3.23540        0.88070
C        -12.71640        4.08170        2.54920
C         -6.50880       -1.32480        1.56450
C         -5.69270       -0.28710        2.05840
N         -6.05500        0.78900        2.82600
C         -5.23970        1.94040        2.71810
C         -4.97080        2.47900        1.46110
C         -4.10980        3.54570        1.34130
C         -3.50550        4.09140        2.47240
S         -2.37360        5.41730        2.19550
C         -1.54590        5.62520        3.79760
C         -3.81450        3.58980        3.72930
C         -4.67820        2.51770        3.84990
C         -7.12380        0.81210        3.71840
C         -7.55770       -0.33410        4.38320
C         -8.65350       -0.29530        5.22440
C         -9.34250        0.89480        5.42040
S        -10.79490        1.06120        6.39930
C        -11.11180       -0.60990        7.03070
C         -8.87820        2.05680        4.80240
C         -7.78920        2.01850        3.96540
C         -4.33420       -0.53160        1.73820
S         -2.86620        0.34710        2.01690
C         -1.93630       -0.95370        1.32050
C         -2.72870       -1.96960        0.79220
N         -2.27210       -3.02110        0.01420
C         -2.95950       -4.24260        0.05070
C         -3.46900       -4.72540        1.25330
C         -4.20270       -5.89500        1.29050
C         -4.43130       -6.60730        0.12150
S         -5.37590       -8.09530        0.05050
C         -6.29020       -8.09120        1.61980
C         -3.88470       -6.15040       -1.07710
C         -3.16040       -4.98100       -1.11580
C         -1.17920       -2.84440       -0.84620
C         -0.23730       -3.86180       -1.01180
C          0.90430       -3.64040       -1.74930
C          1.13890       -2.39910       -2.33760
S          2.67600       -2.19700       -3.17550
C          2.74590       -0.41930       -3.53310
C          0.17020       -1.40800       -2.23660
C         -0.97770       -1.63360       -1.50530
C         -4.09530       -1.72350        1.06750
S         -5.55360       -2.60150        0.79020
C         -0.50690       -0.84720        1.25080
C          0.32970       -1.95300        1.32220
C          1.67430       -1.87540        0.99360
C          2.25440       -0.68920        0.56490
C          1.46340        0.49080        0.64460
N          2.01690        1.67590        0.34890
C          1.27590        2.75040        0.43440
C         -0.07170        2.68120        0.82860
N         -0.64490        1.53780        1.10230
C          0.09310        0.41990        1.01550
C          3.57430       -0.62780        0.00720
C          4.38630       -1.68870       -0.28960
C          5.58430       -1.33330       -0.94420
C          6.62440       -2.19140       -1.36610
C          6.55060       -3.63180       -1.25080
C          7.56710       -4.50790       -0.99250
C          7.18410       -5.86880       -1.01870
C          8.15270       -6.97290       -0.72330
C          8.13890       -7.33490        0.76250
C          5.85900       -6.03030       -1.30980
C          5.04860       -7.27800       -1.40900
C          4.06780       -7.40090       -0.24100
S          5.07180       -4.50290       -1.54830
C          7.73240       -1.57230       -1.93470
C          7.82690       -0.16560       -2.12310
C          6.77950        0.68920       -1.69830
C          6.85170        2.12230       -1.86050
C          5.84650        2.99030       -2.19210
C          6.25910        4.33680       -2.29730
C          5.31930        5.42960       -2.70790
C          5.31970        5.61630       -4.22570
C          7.59070        4.49750       -2.02370
S          8.33980        2.99210       -1.62140
C          8.45130        5.71150       -2.10270
C          9.37200        5.63820       -3.32480
C          5.67790        0.06960       -1.12400
S          4.26700        0.89260       -0.49750
C          8.99560        0.20200       -2.80800
C          9.82400       -0.85150       -3.11710
S          9.13490       -2.38110       -2.56930
C         11.09240       -0.90340       -3.72740
C         11.89840        0.08020       -4.24100
C         11.62370        1.52700       -4.39280
O         10.61840        2.15530       -4.13270
C         12.84780        2.10880       -4.98190
C         13.07540        3.43430       -5.29400
C         14.31110        3.75620       -5.84510
O         14.68070        5.02400       -6.24540
C         14.16130        6.15680       -5.72470
O         13.35750        6.20290       -4.83760
C         14.76640        7.34570       -6.41960
C         15.26240        2.76190       -6.07990
C         15.01890        1.43630       -5.76680
C         13.79470        1.09950       -5.20430
C         13.23560       -0.17470       -4.75820
C         13.89850       -1.37360       -4.81900
C         15.20130       -1.52790       -5.33980
N         16.25570       -1.73340       -5.74530
C         13.42620       -2.63250       -4.38910
N         13.15490       -3.70080       -4.06380
H         -8.17920       -2.59460        1.49960
H         -9.79520        3.44860        1.35850
H        -12.80540       -0.06910        3.41060
H        -13.89550        3.07090        4.23420
H        -15.48100        2.08560        2.33100
H        -16.41310        4.43400        3.05150
H        -14.86540        6.30460        1.97330
H        -12.98100        5.10790        0.58760
H        -14.93420        3.39190        0.09450
H        -13.48890        2.47010        0.56930
H        -12.38250        4.90540        3.17770
H         -5.45240        2.05210        0.59570
H         -3.88850        3.96500        0.37200
H         -0.74100        6.33270        3.62300
H         -2.23780        6.03220        4.52930
H         -1.13910        4.67230        4.12310
H         -3.38320        4.01420        4.62140
H         -4.90620        2.11540        4.82610
H         -7.03410       -1.26820        4.24550
H         -8.96550       -1.20690        5.70910
H        -10.26580       -0.95160        7.61950
H        -11.98780       -0.51700        7.66510
H        -11.32900       -1.28760        6.21050
H         -9.40450        2.98350        4.97120
H         -7.45820        2.91650        3.46710
H         -3.28810       -4.17960        2.16790
H         -4.58780       -6.23900        2.23650
H         -7.02910       -8.88140        1.53000
H         -5.62140       -8.30910        2.44760
H         -6.78520       -7.13380        1.75150
H         -4.05470       -6.71620       -1.98000
H         -2.76050       -4.61950       -2.05120
H         -0.39640       -4.81730       -0.53430
H          1.64610       -4.41670       -1.85800
H          3.75770       -0.23210       -3.88040
H          2.03510       -0.16390       -4.31390
H          2.55790        0.14640       -2.62550
H          0.29730       -0.45490       -2.72420
H         -1.71990       -0.85270       -1.42820
H         -0.08170       -2.90410        1.62290
H          2.26680       -2.77510        1.03220
H          1.75210        3.69030        0.19280
H         -0.68490        3.56720        0.91840
H          4.12960       -2.70280       -0.05170
H          8.56770       -4.19550       -0.75230
H          9.15450       -6.64450       -1.00550
H          7.90920       -7.85680       -1.31570
H          8.87110       -8.11160        0.96990
H          7.15680       -7.69700        1.05770
H          8.37860       -6.46230        1.36610
H          5.71450       -8.14210       -1.41960
H          4.48460       -7.27110       -2.34570
H          3.49150       -8.31890       -0.32600
H          4.60260       -7.41220        0.70630
H          3.38040       -6.55760       -0.23720
H          4.84090        2.67190       -2.40210
H          5.60050        6.36810       -2.22620
H          4.31200        5.16880       -2.37670
H          4.61180        6.39030       -4.51390
H          6.30880        5.90510       -4.57230
H          5.04120        4.68860       -4.72060
H          9.06550        5.78160       -1.20120
H          7.82730        6.60510       -2.16160
H         10.04440        6.49200       -3.34750
H          8.78670        5.62970       -4.24180
H          9.96570        4.72750       -3.29330
H          9.23480        1.20730       -3.09590
H         11.49400       -1.90900       -3.76640
H         12.31600        4.17480       -5.10290
H         15.84870        7.31340       -6.32180
H         14.52170        7.30820       -7.47860
H         14.37900        8.25970       -5.98080
H         16.20440        3.05160       -6.51870
H         15.77840        0.69810       -5.96260
