184

C         -9.04590       -3.01190        0.60890
C         -8.41810       -3.77550        1.53090
C         -7.48850       -3.24890        2.57950
O         -6.99890       -2.14430        2.65710
C         -7.34450       -4.34010        3.55550
C         -6.60050       -4.30180        4.73300
C         -6.55550       -5.49740        5.40550
C         -7.22690       -6.64520        4.95890
C         -7.99220       -6.68880        3.81940
C         -8.03130       -5.48680        3.10510
C         -8.67340       -5.17680        1.83710
C         -9.28920       -6.06620        0.99960
C         -9.77030       -5.74100       -0.28730
N        -10.15210       -5.55400       -1.35360
C         -9.47000       -7.43720        1.27970
N         -9.64530       -8.55970        1.44290
C         -6.70020       -7.48910        6.09190
C         -5.53920       -8.46240        5.76620
C         -4.80650       -7.87400        4.58560
C         -4.17080       -6.78750        5.00320
C         -4.46130       -6.62260        6.47510
C         -4.56640       -8.09620        6.89830
C         -5.95120       -6.21150        6.58650
C         -8.60170       -1.68300        0.23290
C         -9.51690       -0.64240       -0.02150
C         -9.07490        0.61340       -0.37750
C        -10.03890        1.70270       -0.61640
O        -11.24000        1.59140       -0.51850
N         -9.47230        2.91200       -0.97350
C         -8.13920        3.24260       -1.13550
O         -7.81900        4.36600       -1.45030
C         -7.19330        2.13770       -0.89480
C         -5.83800        2.34480       -1.02910
C         -4.91250        1.30460       -0.79360
C         -5.40000        0.05850       -0.46300
C         -6.77360       -0.18110       -0.30530
C         -7.25080       -1.44650        0.06770
C         -7.69420        0.87150       -0.52090
C         -3.48780        1.56310       -0.92970
C         -2.41280        1.19210       -0.13920
N         -2.41860        0.45730        1.04990
C         -2.88770       -0.85600        1.13330
C         -3.46600       -1.30330        2.32330
C         -3.99910       -2.56820        2.40470
C         -3.97960       -3.41620        1.29920
S         -4.77750       -4.98700        1.49750
C         -5.04740       -5.54400       -0.21140
C         -3.35260       -3.00440        0.13200
C         -2.80330       -1.73560        0.05420
C         -1.59240        0.94360        2.07760
C         -1.57300        2.30480        2.36750
C         -0.70850        2.81430        3.31630
C          0.14780        1.96430        4.00190
S          1.32340        2.49480        5.20820
C          1.21240        4.30500        5.16120
C          0.10550        0.59590        3.74130
C         -0.74880        0.08990        2.78860
C         -1.21020        1.78210       -0.60900
S          0.43910        1.68110       -0.07240
C          0.91740        2.74740       -1.37740
C         -0.12280        3.02270       -2.27260
N          0.05140        3.53680       -3.53640
C         -0.95770        4.31030       -4.11830
C         -1.22810        4.21840       -5.48060
C         -2.22900        4.97870       -6.05160
C         -2.98420        5.84080       -5.26610
S         -4.28840        6.85570       -5.87610
C         -4.30630        6.52610       -7.66140
C         -2.71380        5.93600       -3.90120
C         -1.71070        5.18550       -3.33340
C          1.21800        3.21550       -4.25610
C          1.85310        4.16810       -5.05350
C          3.05000        3.87160       -5.66770
C          3.64150        2.61990       -5.50350
S          5.21220        2.37490       -6.26290
C          5.49310        0.58880       -6.10660
C          2.98710        1.65170       -4.75170
C          1.78480        1.94770       -4.14420
C         -1.34910        2.52160       -1.76900
S         -2.99600        2.55900       -2.29340
C          2.26880        3.17470       -1.44730
C          2.71690        4.31930       -2.10560
F          1.83350        5.26730       -2.47830
C          4.06680        4.52680       -2.36430
F          4.41560        5.59870       -3.09340
C          5.05270        3.62650       -1.96720
C          4.64610        2.59380       -1.06860
N          5.55170        1.84750       -0.42460
C          5.15580        0.92100        0.41690
C          6.24510        0.15980        1.11050
C          6.58060        0.80830        2.45580
C          3.77530        0.71750        0.68110
N          2.88470        1.45960        0.06520
C          3.27310        2.39400       -0.80320
C          3.22250       -0.29620        1.63560
C          2.63120       -1.47660        0.86210
C          6.41650        3.78730       -2.35670
C          7.26900        2.74570       -2.55810
C          6.84560        1.35070       -2.82530
O          5.71590        0.91090       -2.93470
C          8.08290        0.60380       -3.11320
C          8.18780       -0.75490       -3.40400
C          9.47080       -1.17960       -3.64900
C         10.57050       -0.31110       -3.62810
C         10.48050        1.03290       -3.35510
C          9.18450        1.48210       -3.08440
C          8.70750        2.81510       -2.72740
C          9.49500        3.91200       -2.49710
C         10.89720        3.93550       -2.64730
N         12.03750        4.02360       -2.75070
C          9.02770        5.16380       -2.04190
N          8.74030        6.20250       -1.64610
C         11.54740       -1.41260       -3.95470
C         12.41120       -1.97210       -2.79730
C         11.62740       -1.74430       -1.52870
C         10.58680       -2.56660       -1.54280
C         10.64820       -3.36520       -2.82140
C         12.17090       -3.47710       -2.99760
C         10.32290       -2.38110       -3.97280
H         -9.92600       -3.38610        0.10080
H         -6.10510       -3.39660        5.04850
H         -8.51370       -7.57380        3.49430
H         -7.44480       -7.93310        6.74910
H         -5.83610       -9.50390        5.67750
H         -4.87170       -8.26000        3.58550
H         -3.60470       -6.08670        4.41830
H         -3.77610       -5.98910        7.03240
H         -4.98670       -8.23330        7.89360
H         -3.61700       -8.62410        6.82390
H         -6.20290       -5.81820        7.56940
H        -10.57870       -0.80970        0.08360
H        -10.13040        3.66880       -1.13750
H         -5.49240        3.32800       -1.31490
H         -4.73160       -0.77200       -0.33490
H         -6.53660       -2.24330        0.20660
H         -3.51330       -0.63890        3.17170
H         -4.46150       -2.90810        3.31650
H         -5.70560       -6.40470       -0.14050
H         -5.52840       -4.75620       -0.78450
H         -4.10720       -5.84220       -0.66590
H         -3.28540       -3.65710       -0.72420
H         -2.32460       -1.41340       -0.85980
H         -2.23430        2.97190        1.83440
H         -0.71500        3.87490        3.50880
H          1.97580        4.66300        5.84510
H          0.23320        4.62860        5.50230
H          1.42020        4.66050        4.15620
H          0.76440       -0.06170        4.28800
H         -0.75210       -0.96810        2.57470
H         -0.65300        3.54180       -6.09530
H         -2.41340        4.88210       -7.10920
H         -4.54630        5.48320       -7.84630
H         -3.35000        6.79720       -8.09910
H         -5.08900        7.16020       -8.06600
H         -3.29670        6.61460       -3.29810
H         -1.48560        5.28690       -2.28280
H          1.41990        5.15130       -5.15650
H          3.55440        4.61800       -6.26140
H          4.70010        0.04980       -6.61690
H          6.44610        0.39770       -6.59070
H          5.54740        0.31690       -5.05680
H          3.41090        0.67160       -4.61440
H          1.28910        1.18790       -3.55810
H          5.94760       -0.87910        1.25740
H          7.12940        0.18490        0.47180
H          7.37660        0.25620        2.94910
H          6.91210        1.83190        2.30020
H          5.71120        0.82500        3.10950
H          3.98830       -0.64610        2.32540
H          2.42240        0.18220        2.20410
H          3.39520       -1.96460        0.26020
H          1.84170       -1.12300        0.20440
H          2.21290       -2.20470        1.55250
H          6.75830        4.80350       -2.50530
H          7.31470       -1.38950       -3.41560
H         11.33510        1.68850       -3.35210
H         12.11500       -1.29090       -4.87490
H         13.44070       -1.62470       -2.79400
H         11.87100       -0.99190       -0.80170
H          9.78660       -2.63850       -0.82930
H         10.07320       -4.28760       -2.83970
H         12.64070       -4.08510       -2.22600
H         12.46860       -3.83690       -3.98160
H         10.09230       -2.89490       -4.90430
