182

C          5.82250        2.94260        2.95210
C          6.29880        4.14640        2.47820
C          6.23310        4.57010        1.07050
O          5.76190        3.94900        0.13440
C          6.96350        5.85340        1.00340
C          7.12950        6.66870       -0.11210
C          7.79000        7.84640        0.14800
C          8.26460        8.18360        1.42120
C          8.12140        7.38080        2.52800
C          7.44420        6.18380        2.28540
C          7.03790        5.13300        3.21470
C          7.16730        5.17380        4.58240
C          6.56060        4.25200        5.45780
N          6.04690        3.58160        6.23730
C          7.83460        6.18480        5.29730
N          8.34900        6.97450        5.95530
C          8.81020        9.51090        0.95600
C         10.33530        9.59750        0.73960
C         10.50660       10.80830       -0.14900
C         10.05610       10.49010       -1.35590
C          9.57290        9.05870       -1.30320
C         10.56690        8.48140       -0.28730
C          8.27950        9.13580       -0.46500
C          4.77630        2.20030        2.39830
C          3.70090        2.58180        1.57090
N          3.33840        3.84920        1.20640
C          2.56450        4.01260        0.03800
C          2.94120        3.38590       -1.14540
C          2.14910        3.48640       -2.27250
C          0.97020        4.22000       -2.22860
S         -0.14450        4.37940       -3.58400
C          0.43710        3.13050       -4.76560
C          0.62030        4.89080       -1.05690
C          1.40770        4.78930        0.06740
C          3.63290        4.98510        1.96600
C          3.91670        6.19240        1.32150
C          4.26550        7.30540        2.05100
C          4.33810        7.24840        3.44280
S          4.88510        8.70750        4.25820
C          4.84830        8.28040        6.02090
C          3.99440        6.06720        4.09150
C          3.64630        4.95040        3.35920
C          2.90970        1.45330        1.24570
S          1.50390        1.23620        0.26300
C          1.41360       -0.44760        0.73170
C          2.44280       -0.83370        1.57390
N          2.68020       -2.12080        2.01800
C          2.17830       -3.22380        1.31250
C          1.53820       -4.26390        1.98800
C          0.89050       -5.25420        1.28470
C          0.87460       -5.24010       -0.10960
S         -0.11350       -6.47190       -0.89470
C          0.01000       -6.08380       -2.66220
C          1.60380       -4.27070       -0.78430
C          2.25250       -3.27640       -0.07680
C          3.21770       -2.30700        3.30210
C          4.14420       -3.32010        3.52630
C          4.69210       -3.50680        4.78020
C          4.32670       -2.67330        5.82970
S          4.96070       -2.81470        7.47050
C          6.36060       -3.95780        7.29730
C          3.38630       -1.66840        5.61170
C          2.83200       -1.48950        4.36410
C          3.29000        0.26870        1.85980
S          4.68600        0.48810        2.84880
C          0.32860       -1.26480        0.24800
C          0.00550       -1.40110       -1.10580
C          0.68500       -0.79970       -2.19920
C          0.21660       -1.20440       -3.40740
C          0.70330       -0.86870       -4.74600
O          0.23830       -1.30690       -5.76890
O          1.74970       -0.02880       -4.69980
C          2.35070        0.28990       -5.95800
C          3.70630        0.92010       -5.70090
S         -1.10470       -2.33480       -3.28370
C         -1.01470       -2.29730       -1.54270
C         -1.79210       -3.07210       -0.68130
C         -1.48430       -2.90140        0.68870
C         -0.44860       -2.02380        1.13280
N         -0.41270       -2.08860        2.47510
N         -1.34750       -2.93820        2.77680
C         -1.63980       -3.28020        4.14070
C         -1.55840       -4.78660        4.34920
N         -2.01750       -3.45640        1.78760
C         -2.84080       -3.95820       -1.08740
C         -3.65300       -4.69390       -0.25750
C         -4.66520       -5.40560       -0.91980
S         -5.64400       -6.47270        0.04600
C         -6.24050       -7.79600       -1.05640
C         -5.12700       -8.50990       -1.79610
C         -4.66100       -5.19430       -2.29830
S         -3.27760       -4.20590       -2.74950
C         -5.53740       -5.53970       -3.34370
C         -6.90240       -5.63450       -3.26290
C         -7.71340       -5.04730       -2.17640
O         -7.31900       -4.61660       -1.11080
C         -9.09370       -4.99380       -2.69910
C        -10.20110       -4.42810       -2.07380
C        -11.35050       -4.47010       -2.82660
C        -11.39680       -5.02730       -4.11130
C        -10.31110       -5.58840       -4.74110
C         -9.13340       -5.55970       -3.99000
C         -7.79670       -6.03940       -4.32470
C         -7.45360       -6.83730       -5.38550
C         -8.34790       -7.25210       -6.39160
N         -9.03230       -7.61710       -7.23840
C         -6.16950       -7.39810       -5.54520
N         -5.15480       -7.91580       -5.69160
C        -12.86260       -4.71410       -4.28050
C        -13.87380       -5.87530       -4.11700
C        -13.22280       -6.88450       -3.20410
C        -13.17880       -6.36000       -1.98660
C        -13.79910       -4.98640       -2.05440
C        -14.86310       -5.22260       -3.13820
C        -12.81110       -4.09590       -2.84770
H          6.29330        2.50560        3.82490
H          6.73910        6.37860       -1.07530
H          8.48990        7.65270        3.50310
H          8.39840       10.38860        1.45050
H         10.92670        9.57140        1.65070
H         10.87310       11.75780        0.19460
H          9.97100       11.12080       -2.22150
H          9.47050        8.54170       -2.25380
H         11.58740        8.47600       -0.66690
H         10.30590        7.48770        0.07200
H          7.51590        9.76610       -0.91760
H          3.86890        2.83560       -1.17330
H          2.46010        2.98680       -3.17530
H         -0.33840        3.05790       -5.52220
H          1.36750        3.45480       -5.22370
H          0.55370        2.17740       -4.25900
H         -0.28650        5.47510       -1.03850
H          1.12380        5.29320        0.97940
H          3.88270        6.23890        0.24380
H          4.51150        8.22970        1.55170
H          5.17170        9.17670        6.54080
H          3.83640        8.02390        6.32030
H          5.54330        7.47200        6.22700
H          4.00510        5.99680        5.16720
H          3.38910        4.04010        3.87960
H          1.52170       -4.25870        3.06780
H          0.35830       -6.03750        1.80260
H          1.03110       -6.22390       -3.00450
H         -0.64440       -6.79180       -3.16130
H         -0.33660       -5.07150       -2.84890
H          1.66180       -4.26630       -1.86090
H          2.80060       -2.51440       -0.61100
H          4.43440       -3.96480        2.70970
H          5.40600       -4.30180        4.92330
H          6.00640       -4.95880        7.06790
H          6.85820       -3.95790        8.26210
H          7.03810       -3.59190        6.53170
H          3.09630       -1.03450        6.43520
H          2.08740       -0.72450        4.20270
H          1.49880       -0.10630       -2.09010
H          1.68780        0.97310       -6.50140
H          2.44330       -0.63030       -6.54500
H          4.34430        0.22990       -5.15540
H          4.17750        1.16520       -6.64820
H          3.60040        1.82840       -5.11390
H         -2.64900       -2.92780        4.37520
H         -0.91510       -2.74660        4.75810
H         -0.54730       -5.14400        4.17380
H         -1.84340       -5.03170        5.36810
H         -2.23230       -5.29080        3.66190
H         -3.52580       -4.71350        0.80840
H         -6.98200       -7.38170       -1.74160
H         -6.74420       -8.47300       -0.36540
H         -4.65080       -7.85580       -2.52260
H         -4.37190       -8.86330       -1.09800
H         -5.53640       -9.36380       -2.33200
H         -5.08050       -5.60460       -4.32500
H        -10.12170       -4.00050       -1.08650
H        -10.35290       -6.00180       -5.73550
H        -13.11620       -4.05670       -5.10990
H        -14.27330       -6.26080       -5.05110
H        -12.82110       -7.82280       -3.53930
H        -12.73280       -6.77240       -1.10050
H        -14.13130       -4.56220       -1.11040
H        -15.64880       -5.90430       -2.81590
H        -15.30660       -4.30320       -3.51820
H        -13.03240       -3.03540       -2.74200
