169

C          6.28080        1.06140       -5.97140
C          5.97020        0.70770       -7.24250
C          4.82510       -0.10000       -7.75750
O          4.17680       -0.94610       -7.18230
C          4.65400        0.31900       -9.15980
C          3.60440       -0.02890      -10.00730
C          3.66290        0.56870      -11.24130
C          4.69680        1.43930      -11.61800
C          5.75130        1.77020      -10.80330
C          5.70500        1.17910       -9.53610
C          6.61260        1.31530       -8.40780
C          7.87190        1.84580       -8.44540
C          8.78220        1.84540       -7.36460
N          9.58700        1.85340       -6.54630
C          8.45850        2.40780       -9.59980
N          8.98640        2.88560      -10.49980
C          4.08250        1.71160      -12.96800
C          3.34530        3.06180      -13.15440
C          2.87380        3.48280      -11.78450
C          1.89920        2.66050      -11.41980
C          1.69060        1.67130      -12.54060
C          2.02250        2.55710      -13.75190
C          2.93170        0.74400      -12.54720
C          5.66980        0.70080       -4.71940
C          5.81600        1.58150       -3.63210
F          6.54470        2.70530       -3.79460
C          5.17460        1.40450       -2.43000
C          4.32790        0.30990       -2.24720
C          4.28730       -0.63720       -3.28060
F          3.59460       -1.77580       -3.08350
C          4.92830       -0.46190       -4.48190
C          3.45510        0.21070       -1.10210
C          2.10460       -0.09420       -1.13290
N          1.34200       -0.34130       -2.25980
C          1.58530        0.31140       -3.46990
C          1.39600       -0.35330       -4.68200
C          1.73380        0.25740       -5.86940
C          2.26880        1.54250       -5.87330
S          2.73820        2.21300       -7.44160
C          3.82320        3.60330       -7.00990
C          2.39850        2.23460       -4.67740
C          2.05260        1.62500       -3.48890
C          0.27380       -1.24260       -2.11480
C          0.46790       -2.43030       -1.40940
C         -0.59850       -3.25560       -1.13510
C         -1.87670       -2.91360       -1.56720
S         -3.19420       -3.99330       -1.09450
C         -4.66320       -2.93440       -1.23650
C         -2.06080       -1.77160       -2.33510
C         -0.99170       -0.93940       -2.60490
C          1.54690       -0.04370        0.17040
S         -0.02640       -0.36900        0.79630
C          0.51830        0.05520        2.40160
C          1.88330        0.32950        2.46390
N          2.61610        0.45340        3.62500
C          2.19320       -0.21610        4.78670
C          1.66560       -1.50260        4.70470
C          1.07280       -2.09120        5.80300
C          1.01120       -1.40570        7.01060
S          0.15420       -1.99920        8.43130
C         -0.90290       -3.31520        7.76770
C          1.64010       -0.16680        7.12340
C          2.22580        0.42350        6.02580
C          3.75920        1.25990        3.65050
C          4.87390        0.87690        4.39770
C          6.00280        1.66280        4.40660
C          6.05050        2.84500        3.66790
S          7.55660        3.75950        3.75110
C          7.32820        5.09060        2.53790
C          4.93760        3.23740        2.93730
C          3.80090        2.45230        2.93370
C          2.44880        0.30520        1.16280
S          4.02140        0.61960        0.50930
C         -0.43310        0.01100        3.47640
C         -1.43630       -0.99880        3.50130
N         -1.51880       -1.86210        2.46890
C         -2.40200       -2.81070        2.51210
C         -3.23760       -2.98170        3.65490
O         -4.03720       -4.04360        3.68410
C         -4.86750       -4.21170        4.83000
C         -6.15110       -3.40250        4.70750
N         -3.19030       -2.14490        4.66350
C         -2.32330       -1.11600        4.59560
C         -2.26720       -0.18630        5.66910
C         -1.29800        0.79930        5.60910
C         -0.42530        0.91740        4.52790
F          0.40250        1.97900        4.48630
F         -1.23760        1.71730        6.58620
C         -3.21650       -0.28020        6.75720
C         -4.54710       -0.36060        6.53260
C         -5.18510        0.02240        5.23850
O         -4.64440        0.25680        4.17980
C         -6.62210        0.16120        5.53730
C         -7.61780        0.57320        4.65370
C         -8.87130        0.63570        5.21150
C         -9.12030        0.31770        6.55450
C         -8.14960       -0.09220        7.43650
C         -6.86570       -0.16720        6.88730
C         -5.60840       -0.57180        7.50230
C         -5.45800       -1.16810        8.72390
C         -4.24090       -1.70600        9.19220
N         -3.30410       -2.21660        9.61510
C         -6.50990       -1.39810        9.63540
N         -7.32270       -1.60990       10.41760
C        -10.59100        0.62850        6.43750
C        -11.09030        1.97460        7.01890
C         -9.91690        2.92210        6.97770
C         -9.68160        3.22040        5.70690
C        -10.69200        2.48000        4.86560
C        -11.89820        2.49240        5.81810
C        -10.31420        0.97970        4.94150
H          7.05210        1.81730       -5.86310
H          2.82260       -0.69420       -9.67760
H          6.53810        2.44440      -11.09950
H          4.68570        1.44350      -13.83290
H          3.90040        3.80410      -13.72170
H          3.32280        4.27460      -11.21380
H          1.38030        2.62270      -10.48000
H          0.73750        1.14920      -12.54800
H          1.29690        3.35510      -13.90180
H          2.15000        1.99700      -14.67730
H          2.77680       -0.15520      -13.13990
H          5.28120        2.14240       -1.65030
H          4.82770       -1.21430       -5.24560
H          1.01850       -1.36400       -4.67950
H          1.61750       -0.26890       -6.80280
H          4.56660        3.27830       -6.28750
H          4.30720        3.89510       -7.93730
H          3.23950        4.43460       -6.62540
H          2.76400        3.24880       -4.65760
H          2.15300        2.17120       -2.56290
H          1.45900       -2.68780       -1.06850
H         -0.45640       -4.16540       -0.57300
H         -4.47040       -1.98600       -0.74400
H         -5.46090       -3.46490       -0.72580
H         -4.92910       -2.79130       -2.28000
H         -3.03590       -1.50970       -2.71390
H         -1.14060       -0.03710       -3.17940
H          1.69030       -2.03410        3.76460
H          0.65710       -3.08120        5.70440
H         -1.61080       -3.53580        8.56090
H         -0.31190       -4.19680        7.53560
H         -1.43330       -2.95100        6.89170
H          1.62590        0.34380        8.07350
H          2.66400        1.40650        6.10640
H          4.84740       -0.04290        4.96230
H          6.86870        1.36770        4.97880
H          7.11260        4.66590        1.56200
H          8.27380        5.62290        2.50770
H          6.53910        5.76290        2.86190
H          4.93500        4.15730        2.37550
H          2.92790        2.77670        2.38760
H         -2.47130       -3.48280        1.66930
H         -5.08420       -5.28170        4.86530
H         -4.31260       -3.91300        5.72520
H         -6.76170       -3.54080        5.59560
H         -5.91300       -2.34730        4.60180
H         -6.71530       -3.72180        3.83480
H         -2.81820       -0.25480        7.76450
H         -7.38280        0.81320        3.62840
H         -8.35230       -0.32580        8.46860
H        -11.27070       -0.19360        6.65200
H        -11.60620        1.89050        7.97140
H         -9.36040        3.22420        7.84540
H         -8.88880        3.82100        5.30090
H        -10.84580        2.85640        3.85770
H        -12.29680        3.49270        5.97910
H        -12.69990        1.82160        5.51230
H        -10.81280        0.38630        4.17760
