
  xtb     02122205433D
 energy: -416.106940316013 gnorm: 0.000513291571 xtb: 6.4.1 (unknown)
252278  0     0  0            999 V2000
    6.7888    3.7251    4.5693 C   0  0  0  0  0  0  0  0  0  0  0  0
    6.5032    3.1263    5.7683 C   0  0  0  0  0  0  0  0  0  0  0  0
    6.2631    3.9808    6.9516 C   0  0  0  0  0  0  0  0  0  0  0  0
    6.6433    5.1215    7.1301 O   0  0  0  0  0  0  0  0  0  0  0  0
    5.3466    3.1953    7.8067 C   0  0  0  0  0  0  0  0  0  0  0  0
    4.6581    3.6295    8.9380 C   0  0  0  0  0  0  0  0  0  0  0  0
    3.7978    2.6944    9.4649 C   0  0  0  0  0  0  0  0  0  0  0  0
    3.6261    1.4193    8.9111 C   0  0  0  0  0  0  0  0  0  0  0  0
    4.3086    0.9679    7.8064 C   0  0  0  0  0  0  0  0  0  0  0  0
    5.1871    1.9036    7.2605 C   0  0  0  0  0  0  0  0  0  0  0  0
    6.0530    1.7947    6.0920 C   0  0  0  0  0  0  0  0  0  0  0  0
    6.5600    0.6321    5.5690 C   0  0  0  0  0  0  0  0  0  0  0  0
    7.6154    0.6389    4.6327 C   0  0  0  0  0  0  0  0  0  0  0  0
    8.5058    0.6252    3.9079 N   0  0  0  0  0  0  0  0  0  0  0  0
    6.1391   -0.6545    5.9488 C   0  0  0  0  0  0  0  0  0  0  0  0
    5.8102   -1.7243    6.2069 N   0  0  0  0  0  0  0  0  0  0  0  0
    2.5842    1.0276    9.9272 C   0  0  0  0  0  0  0  0  0  0  0  0
    3.0435    0.0847   11.0583 C   0  0  0  0  0  0  0  0  0  0  0  0
    1.9940    0.2663   12.1304 C   0  0  0  0  0  0  0  0  0  0  0  0
    2.1649    1.4695   12.6632 C   0  0  0  0  0  0  0  0  0  0  0  0
    3.3327    2.1221   11.9587 C   0  0  0  0  0  0  0  0  0  0  0  0
    4.1961    0.8854   11.6784 C   0  0  0  0  0  0  0  0  0  0  0  0
    2.7819    2.4456   10.5537 C   0  0  0  0  0  0  0  0  0  0  0  0
    6.3832    3.3138    3.2894 C   0  0  0  0  0  0  0  0  0  0  0  0
    6.4217    4.0372    2.0795 C   0  0  0  0  0  0  0  0  0  0  0  0
    6.9828    5.2704    1.8810 N   0  0  0  0  0  0  0  0  0  0  0  0
    7.4393    5.6182    0.5985 C   0  0  0  0  0  0  0  0  0  0  0  0
    8.1432    4.6949   -0.1757 C   0  0  0  0  0  0  0  0  0  0  0  0
    8.5768    5.0387   -1.4348 C   0  0  0  0  0  0  0  0  0  0  0  0
    8.3206    6.3089   -1.9502 C   0  0  0  0  0  0  0  0  0  0  0  0
    8.8975    6.6158   -3.5862 S   0  0  0  0  0  0  0  0  0  0  0  0
    8.5357    8.3758   -3.8552 C   0  0  0  0  0  0  0  0  0  0  0  0
    7.6385    7.2365   -1.1732 C   0  0  0  0  0  0  0  0  0  0  0  0
    7.2031    6.8916    0.0909 C   0  0  0  0  0  0  0  0  0  0  0  0
    7.0034    6.2518    2.8907 C   0  0  0  0  0  0  0  0  0  0  0  0
    5.8799    6.4705    3.6856 C   0  0  0  0  0  0  0  0  0  0  0  0
    5.9300    7.3663    4.7325 C   0  0  0  0  0  0  0  0  0  0  0  0
    7.1013    8.0706    4.9885 C   0  0  0  0  0  0  0  0  0  0  0  0
    7.2601    9.1743    6.3519 S   0  0  0  0  0  0  0  0  0  0  0  0
    6.1517    8.4153    7.5762 C   0  0  0  0  0  0  0  0  0  0  0  0
    8.1970    7.9143    4.1434 C   0  0  0  0  0  0  0  0  0  0  0  0
    8.1524    7.0100    3.1042 C   0  0  0  0  0  0  0  0  0  0  0  0
    5.7152    3.3510    1.0579 C   0  0  0  0  0  0  0  0  0  0  0  0
    5.2362    3.7294   -0.5679 S   0  0  0  0  0  0  0  0  0  0  0  0
    4.2033    2.3075   -0.6244 C   0  0  0  0  0  0  0  0  0  0  0  0
    4.2889    1.5542    0.5271 C   0  0  0  0  0  0  0  0  0  0  0  0
    3.5704    0.3839    0.7978 N   0  0  0  0  0  0  0  0  0  0  0  0
    2.9688    0.3509    2.0777 C   0  0  0  0  0  0  0  0  0  0  0  0
    3.3015   -0.6189    3.0228 C   0  0  0  0  0  0  0  0  0  0  0  0
    2.7306   -0.5874    4.2757 C   0  0  0  0  0  0  0  0  0  0  0  0
    1.8147    0.4086    4.6104 C   0  0  0  0  0  0  0  0  0  0  0  0
    1.1625    0.3736    6.2505 S   0  0  0  0  0  0  0  0  0  0  0  0
   -0.2862    1.4651    6.1598 C   0  0  0  0  0  0  0  0  0  0  0  0
    1.4814    1.3754    3.6717 C   0  0  0  0  0  0  0  0  0  0  0  0
    2.0578    1.3455    2.4162 C   0  0  0  0  0  0  0  0  0  0  0  0
    3.8947   -0.8117    0.1531 C   0  0  0  0  0  0  0  0  0  0  0  0
    3.0139   -1.8907    0.2198 C   0  0  0  0  0  0  0  0  0  0  0  0
    3.2971   -3.0804   -0.4221 C   0  0  0  0  0  0  0  0  0  0  0  0
    4.4731   -3.2145   -1.1461 C   0  0  0  0  0  0  0  0  0  0  0  0
    4.9246   -4.6513   -2.0690 S   0  0  0  0  0  0  0  0  0  0  0  0
    3.5782   -5.8258   -1.7553 C   0  0  0  0  0  0  0  0  0  0  0  0
    5.3707   -2.1525   -1.1868 C   0  0  0  0  0  0  0  0  0  0  0  0
    5.0859   -0.9619   -0.5559 C   0  0  0  0  0  0  0  0  0  0  0  0
    5.1377    2.1660    1.4756 C   0  0  0  0  0  0  0  0  0  0  0  0
    5.4500    1.8219    3.1253 S   0  0  0  0  0  0  0  0  0  0  0  0
    3.1006    2.1803   -1.5525 C   0  0  0  0  0  0  0  0  0  0  0  0
    2.8731    1.3554   -2.6311 C   0  0  0  0  0  0  0  0  0  0  0  0
    3.8373    0.5952   -3.2723 N   0  0  0  0  0  0  0  0  0  0  0  0
    5.1336    1.1001   -3.4530 C   0  0  0  0  0  0  0  0  0  0  0  0
    5.3605    2.4689   -3.6072 C   0  0  0  0  0  0  0  0  0  0  0  0
    6.6358    2.9488   -3.8114 C   0  0  0  0  0  0  0  0  0  0  0  0
    7.7197    2.0766   -3.8795 C   0  0  0  0  0  0  0  0  0  0  0  0
    9.3008    2.7919   -4.2069 S   0  0  0  0  0  0  0  0  0  0  0  0
   10.4561    1.4006   -4.0347 C   0  0  0  0  0  0  0  0  0  0  0  0
    7.5023    0.7153   -3.7208 C   0  0  0  0  0  0  0  0  0  0  0  0
    6.2251    0.2374   -3.5068 C   0  0  0  0  0  0  0  0  0  0  0  0
    3.4746   -0.6780   -3.7339 C   0  0  0  0  0  0  0  0  0  0  0  0
    4.0091   -1.2073   -4.9068 C   0  0  0  0  0  0  0  0  0  0  0  0
    3.6459   -2.4661   -5.3404 C   0  0  0  0  0  0  0  0  0  0  0  0
    2.7220   -3.2134   -4.6224 C   0  0  0  0  0  0  0  0  0  0  0  0
    2.2023   -4.8328   -5.1116 S   0  0  0  0  0  0  0  0  0  0  0  0
    3.6971   -5.4864   -5.9124 C   0  0  0  0  0  0  0  0  0  0  0  0
    2.1541   -2.6754   -3.4753 C   0  0  0  0  0  0  0  0  0  0  0  0
    2.5361   -1.4304   -3.0282 C   0  0  0  0  0  0  0  0  0  0  0  0
    1.4932    1.3651   -2.9878 C   0  0  0  0  0  0  0  0  0  0  0  0
    0.5002    0.4344   -4.0630 S   0  0  0  0  0  0  0  0  0  0  0  0
   -0.9529    1.0916   -3.3344 C   0  0  0  0  0  0  0  0  0  0  0  0
   -0.6737    2.0434   -2.3736 C   0  0  0  0  0  0  0  0  0  0  0  0
   -1.6504    2.7274   -1.6251 N   0  0  0  0  0  0  0  0  0  0  0  0
   -1.9191    4.0465   -2.0153 C   0  0  0  0  0  0  0  0  0  0  0  0
   -1.9841    4.3624   -3.3698 C   0  0  0  0  0  0  0  0  0  0  0  0
   -2.2350    5.6551   -3.7881 C   0  0  0  0  0  0  0  0  0  0  0  0
   -2.4263    6.6623   -2.8539 C   0  0  0  0  0  0  0  0  0  0  0  0
   -2.7622    8.3494   -3.2599 S   0  0  0  0  0  0  0  0  0  0  0  0
   -2.7790    8.3690   -5.0750 C   0  0  0  0  0  0  0  0  0  0  0  0
   -2.3472    6.3553   -1.4970 C   0  0  0  0  0  0  0  0  0  0  0  0
   -2.0899    5.0687   -1.0807 C   0  0  0  0  0  0  0  0  0  0  0  0
   -2.0206    2.2295   -0.3704 C   0  0  0  0  0  0  0  0  0  0  0  0
   -3.2604    2.5722    0.1696 C   0  0  0  0  0  0  0  0  0  0  0  0
   -3.6622    2.0843    1.3955 C   0  0  0  0  0  0  0  0  0  0  0  0
   -2.8318    1.2293    2.1080 C   0  0  0  0  0  0  0  0  0  0  0  0
   -3.2251    0.5830    3.7075 S   0  0  0  0  0  0  0  0  0  0  0  0
   -4.9891    0.9565    3.9055 C   0  0  0  0  0  0  0  0  0  0  0  0
   -1.6082    0.8557    1.5623 C   0  0  0  0  0  0  0  0  0  0  0  0
   -1.2092    1.3417    0.3353 C   0  0  0  0  0  0  0  0  0  0  0  0
    0.7156    2.1956   -2.1967 C   0  0  0  0  0  0  0  0  0  0  0  0
    1.6565    3.0572   -1.0432 S   0  0  0  0  0  0  0  0  0  0  0  0
   -2.2308    0.5357   -3.6151 C   0  0  0  0  0  0  0  0  0  0  0  0
   -2.5329   -0.5388   -4.4019 C   0  0  0  0  0  0  0  0  0  0  0  0
   -3.8792   -0.9640   -4.2882 C   0  0  0  0  0  0  0  0  0  0  0  0
   -4.4810   -2.1065   -4.8577 C   0  0  0  0  0  0  0  0  0  0  0  0
   -3.7821   -2.8882   -5.8512 C   0  0  0  0  0  0  0  0  0  0  0  0
   -2.9799   -2.4278   -6.8620 C   0  0  0  0  0  0  0  0  0  0  0  0
   -2.4439   -3.4430   -7.6700 C   0  0  0  0  0  0  0  0  0  0  0  0
   -2.8254   -4.6914   -7.2642 C   0  0  0  0  0  0  0  0  0  0  0  0
   -2.4447   -6.2592   -7.9316 S   0  0  0  0  0  0  0  0  0  0  0  0
   -0.9337   -5.9108   -8.9019 C   0  0  0  0  0  0  0  0  0  0  0  0
    0.2477   -5.5558   -8.0220 C   0  0  0  0  0  0  0  0  0  0  0  0
   -3.8731   -4.6299   -5.8849 S   0  0  0  0  0  0  0  0  0  0  0  0
   -5.7541   -2.4373   -4.3953 C   0  0  0  0  0  0  0  0  0  0  0  0
   -6.4441   -1.6623   -3.4248 C   0  0  0  0  0  0  0  0  0  0  0  0
   -5.8563   -0.4958   -2.8794 C   0  0  0  0  0  0  0  0  0  0  0  0
   -6.4491    0.2612   -1.8028 C   0  0  0  0  0  0  0  0  0  0  0  0
   -6.3794    1.6071   -1.5583 C   0  0  0  0  0  0  0  0  0  0  0  0
   -6.9907    1.9975   -0.3557 C   0  0  0  0  0  0  0  0  0  0  0  0
   -7.5163    0.9450    0.3399 C   0  0  0  0  0  0  0  0  0  0  0  0
   -8.2926    1.0341    1.9016 S   0  0  0  0  0  0  0  0  0  0  0  0
   -9.3417   -0.4661    1.8704 C   0  0  0  0  0  0  0  0  0  0  0  0
  -10.4781   -0.3525    0.8757 C   0  0  0  0  0  0  0  0  0  0  0  0
   -7.2543   -0.5574   -0.4901 S   0  0  0  0  0  0  0  0  0  0  0  0
   -4.5952   -0.1708   -3.3565 C   0  0  0  0  0  0  0  0  0  0  0  0
   -3.6219    1.1339   -2.7399 S   0  0  0  0  0  0  0  0  0  0  0  0
   -7.7025   -2.2065   -3.1391 C   0  0  0  0  0  0  0  0  0  0  0  0
   -7.9850   -3.3733   -3.8241 C   0  0  0  0  0  0  0  0  0  0  0  0
   -6.6836   -3.8192   -4.9051 S   0  0  0  0  0  0  0  0  0  0  0  0
   -9.1748   -4.0874   -3.5716 C   0  0  0  0  0  0  0  0  0  0  0  0
   -9.6163   -5.2799   -4.0648 C   0  0  0  0  0  0  0  0  0  0  0  0
   -8.9573   -6.0848   -5.1097 C   0  0  0  0  0  0  0  0  0  0  0  0
   -7.9258   -5.8295   -5.6994 O   0  0  0  0  0  0  0  0  0  0  0  0
   -9.8153   -7.2632   -5.3177 C   0  0  0  0  0  0  0  0  0  0  0  0
   -9.5908   -8.3117   -6.2064 C   0  0  0  0  0  0  0  0  0  0  0  0
  -10.5589   -9.2861   -6.1765 C   0  0  0  0  0  0  0  0  0  0  0  0
  -11.6745   -9.2180   -5.3305 C   0  0  0  0  0  0  0  0  0  0  0  0
  -11.9108   -8.1863   -4.4538 C   0  0  0  0  0  0  0  0  0  0  0  0
  -10.9325   -7.1870   -4.4601 C   0  0  0  0  0  0  0  0  0  0  0  0
  -10.8280   -5.9694   -3.6597 C   0  0  0  0  0  0  0  0  0  0  0  0
  -11.7051   -5.5846   -2.6775 C   0  0  0  0  0  0  0  0  0  0  0  0
  -12.8706   -6.2969   -2.3234 C   0  0  0  0  0  0  0  0  0  0  0  0
  -13.8351   -6.8157   -1.9782 N   0  0  0  0  0  0  0  0  0  0  0  0
  -11.5863   -4.4444   -1.8553 C   0  0  0  0  0  0  0  0  0  0  0  0
  -11.5714   -3.5530   -1.1293 N   0  0  0  0  0  0  0  0  0  0  0  0
  -12.2218  -10.5371   -5.8147 C   0  0  0  0  0  0  0  0  0  0  0  0
  -12.0350  -11.7718   -4.8983 C   0  0  0  0  0  0  0  0  0  0  0  0
  -10.8078  -11.5043   -4.0624 C   0  0  0  0  0  0  0  0  0  0  0  0
   -9.7514  -11.5690   -4.8616 C   0  0  0  0  0  0  0  0  0  0  0  0
  -10.2451  -11.8818   -6.2527 C   0  0  0  0  0  0  0  0  0  0  0  0
  -11.4565  -12.7664   -5.9174 C   0  0  0  0  0  0  0  0  0  0  0  0
  -10.9785  -10.6134   -6.7560 C   0  0  0  0  0  0  0  0  0  0  0  0
    7.2238    4.7122    4.6537 H   0  0  0  0  0  0  0  0  0  0  0  0
    4.8041    4.6234    9.3324 H   0  0  0  0  0  0  0  0  0  0  0  0
    4.1587   -0.0064    7.3723 H   0  0  0  0  0  0  0  0  0  0  0  0
    1.6105    0.7648    9.5187 H   0  0  0  0  0  0  0  0  0  0  0  0
    3.2521   -0.9336   10.7431 H   0  0  0  0  0  0  0  0  0  0  0  0
    1.2254   -0.4528   12.3459 H   0  0  0  0  0  0  0  0  0  0  0  0
    1.5681    1.9562   13.4125 H   0  0  0  0  0  0  0  0  0  0  0  0
    3.8051    2.9584   12.4675 H   0  0  0  0  0  0  0  0  0  0  0  0
    5.0249    1.0678   10.9971 H   0  0  0  0  0  0  0  0  0  0  0  0
    4.5700    0.4289   12.5934 H   0  0  0  0  0  0  0  0  0  0  0  0
    1.9341    3.1284   10.5769 H   0  0  0  0  0  0  0  0  0  0  0  0
    8.3565    3.7140    0.2226 H   0  0  0  0  0  0  0  0  0  0  0  0
    9.1228    4.3321   -2.0388 H   0  0  0  0  0  0  0  0  0  0  0  0
    9.0355    8.9763   -3.1011 H   0  0  0  0  0  0  0  0  0  0  0  0
    7.4628    8.5443   -3.8488 H   0  0  0  0  0  0  0  0  0  0  0  0
    8.9377    8.6076   -4.8365 H   0  0  0  0  0  0  0  0  0  0  0  0
    7.4291    8.2277   -1.5410 H   0  0  0  0  0  0  0  0  0  0  0  0
    6.6645    7.6127    0.6878 H   0  0  0  0  0  0  0  0  0  0  0  0
    4.9748    5.9123    3.4939 H   0  0  0  0  0  0  0  0  0  0  0  0
    5.0561    7.5096    5.3467 H   0  0  0  0  0  0  0  0  0  0  0  0
    6.2861    7.3378    7.5452 H   0  0  0  0  0  0  0  0  0  0  0  0
    6.4605    8.8069    8.5403 H   0  0  0  0  0  0  0  0  0  0  0  0
    5.1204    8.6958    7.3804 H   0  0  0  0  0  0  0  0  0  0  0  0
    9.0924    8.4854    4.3324 H   0  0  0  0  0  0  0  0  0  0  0  0
    9.0144    6.8597    2.4717 H   0  0  0  0  0  0  0  0  0  0  0  0
    4.0191   -1.3866    2.7753 H   0  0  0  0  0  0  0  0  0  0  0  0
    2.9996   -1.3299    5.0112 H   0  0  0  0  0  0  0  0  0  0  0  0
   -0.9239    1.1613    5.3344 H   0  0  0  0  0  0  0  0  0  0  0  0
   -0.8129    1.3305    7.0993 H   0  0  0  0  0  0  0  0  0  0  0  0
    0.0277    2.5004    6.0614 H   0  0  0  0  0  0  0  0  0  0  0  0
    0.7755    2.1568    3.9024 H   0  0  0  0  0  0  0  0  0  0  0  0
    1.8027    2.1050    1.6912 H   0  0  0  0  0  0  0  0  0  0  0  0
    2.0951   -1.7918    0.7794 H   0  0  0  0  0  0  0  0  0  0  0  0
    2.5872   -3.8888   -0.3550 H   0  0  0  0  0  0  0  0  0  0  0  0
    2.6493   -5.4438   -2.1679 H   0  0  0  0  0  0  0  0  0  0  0  0
    3.8599   -6.7382   -2.2719 H   0  0  0  0  0  0  0  0  0  0  0  0
    3.4958   -6.0166   -0.6894 H   0  0  0  0  0  0  0  0  0  0  0  0
    6.3071   -2.2830   -1.7076 H   0  0  0  0  0  0  0  0  0  0  0  0
    5.7948   -0.1482   -0.5989 H   0  0  0  0  0  0  0  0  0  0  0  0
    4.5325    3.1612   -3.5793 H   0  0  0  0  0  0  0  0  0  0  0  0
    6.8053    4.0076   -3.9320 H   0  0  0  0  0  0  0  0  0  0  0  0
   10.2798    0.6665   -4.8155 H   0  0  0  0  0  0  0  0  0  0  0  0
   11.4456    1.8311   -4.1528 H   0  0  0  0  0  0  0  0  0  0  0  0
   10.3608    0.9592   -3.0471 H   0  0  0  0  0  0  0  0  0  0  0  0
    8.3168    0.0104   -3.7627 H   0  0  0  0  0  0  0  0  0  0  0  0
    6.0697   -0.8225   -3.3882 H   0  0  0  0  0  0  0  0  0  0  0  0
    4.7112   -0.6265   -5.4860 H   0  0  0  0  0  0  0  0  0  0  0  0
    4.0794   -2.8531   -6.2491 H   0  0  0  0  0  0  0  0  0  0  0  0
    4.5582   -5.2481   -5.2955 H   0  0  0  0  0  0  0  0  0  0  0  0
    3.8031   -5.0775   -6.9131 H   0  0  0  0  0  0  0  0  0  0  0  0
    3.5624   -6.5618   -5.9696 H   0  0  0  0  0  0  0  0  0  0  0  0
    1.4186   -3.2445   -2.9277 H   0  0  0  0  0  0  0  0  0  0  0  0
    2.1233   -1.0476   -2.1082 H   0  0  0  0  0  0  0  0  0  0  0  0
   -1.8423    3.5869   -4.1077 H   0  0  0  0  0  0  0  0  0  0  0  0
   -2.2817    5.8570   -4.8461 H   0  0  0  0  0  0  0  0  0  0  0  0
   -2.9826    9.3983   -5.3534 H   0  0  0  0  0  0  0  0  0  0  0  0
   -1.8086    8.0683   -5.4592 H   0  0  0  0  0  0  0  0  0  0  0  0
   -3.5696    7.7236   -5.4468 H   0  0  0  0  0  0  0  0  0  0  0  0
   -2.4793    7.1448   -0.7730 H   0  0  0  0  0  0  0  0  0  0  0  0
   -2.0089    4.8511   -0.0268 H   0  0  0  0  0  0  0  0  0  0  0  0
   -3.9178    3.2238   -0.3847 H   0  0  0  0  0  0  0  0  0  0  0  0
   -4.6280    2.3727    1.7785 H   0  0  0  0  0  0  0  0  0  0  0  0
   -5.1390    2.0265    4.0179 H   0  0  0  0  0  0  0  0  0  0  0  0
   -5.2977    0.4458    4.8121 H   0  0  0  0  0  0  0  0  0  0  0  0
   -5.5447    0.5718    3.0558 H   0  0  0  0  0  0  0  0  0  0  0  0
   -0.9661    0.1834    2.1115 H   0  0  0  0  0  0  0  0  0  0  0  0
   -0.2592    1.0272   -0.0680 H   0  0  0  0  0  0  0  0  0  0  0  0
   -1.7883   -1.0534   -4.9821 H   0  0  0  0  0  0  0  0  0  0  0  0
   -2.8182   -1.3820   -7.0545 H   0  0  0  0  0  0  0  0  0  0  0  0
   -1.8137   -3.2460   -8.5176 H   0  0  0  0  0  0  0  0  0  0  0  0
   -1.1674   -5.1251   -9.6191 H   0  0  0  0  0  0  0  0  0  0  0  0
   -0.7549   -6.8391   -9.4441 H   0  0  0  0  0  0  0  0  0  0  0  0
    0.0504   -4.6541   -7.4471 H   0  0  0  0  0  0  0  0  0  0  0  0
    1.1284   -5.3898   -8.6393 H   0  0  0  0  0  0  0  0  0  0  0  0
    0.4571   -6.3618   -7.3234 H   0  0  0  0  0  0  0  0  0  0  0  0
   -5.9486    2.3071   -2.2513 H   0  0  0  0  0  0  0  0  0  0  0  0
   -7.0564    3.0136   -0.0127 H   0  0  0  0  0  0  0  0  0  0  0  0
   -9.7124   -0.5553    2.8908 H   0  0  0  0  0  0  0  0  0  0  0  0
   -8.6896   -1.3113    1.6493 H   0  0  0  0  0  0  0  0  0  0  0  0
  -10.0980   -0.1735   -0.1278 H   0  0  0  0  0  0  0  0  0  0  0  0
  -11.1421    0.4656    1.1453 H   0  0  0  0  0  0  0  0  0  0  0  0
  -11.0464   -1.2797    0.8608 H   0  0  0  0  0  0  0  0  0  0  0  0
   -8.4060   -1.7747   -2.4502 H   0  0  0  0  0  0  0  0  0  0  0  0
   -9.8048   -3.5967   -2.8393 H   0  0  0  0  0  0  0  0  0  0  0  0
   -8.7180   -8.3216   -6.8404 H   0  0  0  0  0  0  0  0  0  0  0  0
  -12.7757   -8.1499   -3.8129 H   0  0  0  0  0  0  0  0  0  0  0  0
  -13.2082  -10.5057   -6.2730 H   0  0  0  0  0  0  0  0  0  0  0  0
  -12.9285  -12.0710   -4.3570 H   0  0  0  0  0  0  0  0  0  0  0  0
  -10.8382  -11.2469   -3.0198 H   0  0  0  0  0  0  0  0  0  0  0  0
   -8.7224  -11.3760   -4.6207 H   0  0  0  0  0  0  0  0  0  0  0  0
   -9.5088  -12.2817   -6.9448 H   0  0  0  0  0  0  0  0  0  0  0  0
  -11.1724  -13.7153   -5.4649 H   0  0  0  0  0  0  0  0  0  0  0  0
  -12.1118  -12.9462   -6.7686 H   0  0  0  0  0  0  0  0  0  0  0  0
  -11.1519  -10.6331   -7.8302 H   0  0  0  0  0  0  0  0  0  0  0  0
  1  2  2  0  0  0  0
  2  3  1  0  0  0  0
  3  4  2  0  0  0  0
  3  5  1  0  0  0  0
  5  6  2  0  0  0  0
  6  7  1  0  0  0  0
  7  8  2  0  0  0  0
  8  9  1  0  0  0  0
  9 10  2  0  0  0  0
 10 11  1  0  0  0  0
 11 12  2  0  0  0  0
 12 13  1  0  0  0  0
 13 14  3  0  0  0  0
 12 15  1  0  0  0  0
 15 16  3  0  0  0  0
  8 17  1  0  0  0  0
 17 18  1  0  0  0  0
 18 19  1  0  0  0  0
 19 20  2  0  0  0  0
 20 21  1  0  0  0  0
 21 22  1  0  0  0  0
 21 23  1  0  0  0  0
  1 24  1  0  0  0  0
 24 25  2  0  0  0  0
 25 26  1  0  0  0  0
 26 27  1  0  0  0  0
 27 28  2  0  0  0  0
 28 29  1  0  0  0  0
 29 30  2  0  0  0  0
 30 31  1  0  0  0  0
 31 32  1  0  0  0  0
 30 33  1  0  0  0  0
 33 34  2  0  0  0  0
 26 35  1  0  0  0  0
 35 36  2  0  0  0  0
 36 37  1  0  0  0  0
 37 38  2  0  0  0  0
 38 39  1  0  0  0  0
 39 40  1  0  0  0  0
 38 41  1  0  0  0  0
 41 42  2  0  0  0  0
 25 43  1  0  0  0  0
 43 44  1  0  0  0  0
 44 45  1  0  0  0  0
 45 46  2  0  0  0  0
 46 47  1  0  0  0  0
 47 48  1  0  0  0  0
 48 49  2  0  0  0  0
 49 50  1  0  0  0  0
 50 51  2  0  0  0  0
 51 52  1  0  0  0  0
 52 53  1  0  0  0  0
 51 54  1  0  0  0  0
 54 55  2  0  0  0  0
 47 56  1  0  0  0  0
 56 57  2  0  0  0  0
 57 58  1  0  0  0  0
 58 59  2  0  0  0  0
 59 60  1  0  0  0  0
 60 61  1  0  0  0  0
 59 62  1  0  0  0  0
 62 63  2  0  0  0  0
 46 64  1  0  0  0  0
 64 65  1  0  0  0  0
 45 66  1  0  0  0  0
 66 67  2  0  0  0  0
 67 68  1  0  0  0  0
 68 69  1  0  0  0  0
 69 70  2  0  0  0  0
 70 71  1  0  0  0  0
 71 72  2  0  0  0  0
 72 73  1  0  0  0  0
 73 74  1  0  0  0  0
 72 75  1  0  0  0  0
 75 76  2  0  0  0  0
 68 77  1  0  0  0  0
 77 78  2  0  0  0  0
 78 79  1  0  0  0  0
 79 80  2  0  0  0  0
 80 81  1  0  0  0  0
 81 82  1  0  0  0  0
 80 83  1  0  0  0  0
 83 84  2  0  0  0  0
 67 85  1  0  0  0  0
 85 86  1  0  0  0  0
 86 87  1  0  0  0  0
 87 88  2  0  0  0  0
 88 89  1  0  0  0  0
 89 90  1  0  0  0  0
 90 91  2  0  0  0  0
 91 92  1  0  0  0  0
 92 93  2  0  0  0  0
 93 94  1  0  0  0  0
 94 95  1  0  0  0  0
 93 96  1  0  0  0  0
 96 97  2  0  0  0  0
 89 98  1  0  0  0  0
 98 99  2  0  0  0  0
 99100  1  0  0  0  0
100101  2  0  0  0  0
101102  1  0  0  0  0
102103  1  0  0  0  0
101104  1  0  0  0  0
104105  2  0  0  0  0
 88106  1  0  0  0  0
106107  1  0  0  0  0
 87108  1  0  0  0  0
108109  2  0  0  0  0
109110  1  0  0  0  0
110111  2  0  0  0  0
111112  1  0  0  0  0
112113  2  0  0  0  0
113114  1  0  0  0  0
114115  2  0  0  0  0
115116  1  0  0  0  0
116117  1  0  0  0  0
117118  1  0  0  0  0
115119  1  0  0  0  0
111120  1  0  0  0  0
120121  2  0  0  0  0
121122  1  0  0  0  0
122123  1  0  0  0  0
123124  2  0  0  0  0
124125  1  0  0  0  0
125126  2  0  0  0  0
126127  1  0  0  0  0
127128  1  0  0  0  0
128129  1  0  0  0  0
126130  1  0  0  0  0
122131  2  0  0  0  0
131132  1  0  0  0  0
121133  1  0  0  0  0
133134  2  0  0  0  0
134135  1  0  0  0  0
134136  1  0  0  0  0
136137  2  0  0  0  0
137138  1  0  0  0  0
138139  2  0  0  0  0
138140  1  0  0  0  0
140141  2  0  0  0  0
141142  1  0  0  0  0
142143  2  0  0  0  0
143144  1  0  0  0  0
144145  2  0  0  0  0
145146  1  0  0  0  0
146147  2  0  0  0  0
147148  1  0  0  0  0
148149  3  0  0  0  0
147150  1  0  0  0  0
150151  3  0  0  0  0
143152  1  0  0  0  0
152153  1  0  0  0  0
153154  1  0  0  0  0
154155  2  0  0  0  0
155156  1  0  0  0  0
156157  1  0  0  0  0
156158  1  0  0  0  0
 11  2  1  0  0  0  0
 23 17  1  0  0  0  0
 65 24  1  0  0  0  0
107 66  1  0  0  0  0
132108  1  0  0  0  0
146137  1  0  0  0  0
158152  1  0  0  0  0
 10  5  1  0  0  0  0
 22 18  1  0  0  0  0
 34 27  1  0  0  0  0
 42 35  1  0  0  0  0
 64 43  2  0  0  0  0
 76 69  1  0  0  0  0
 84 77  1  0  0  0  0
106 85  2  0  0  0  0
131110  1  0  0  0  0
145140  1  0  0  0  0
157153  1  0  0  0  0
 23  7  1  0  0  0  0
 55 48  1  0  0  0  0
 63 56  1  0  0  0  0
 97 90  1  0  0  0  0
105 98  1  0  0  0  0
119112  1  0  0  0  0
135120  1  0  0  0  0
158142  1  0  0  0  0
130123  1  0  0  0  0
  1159  1  0  0  0  0
  6160  1  0  0  0  0
  9161  1  0  0  0  0
 17162  1  0  0  0  0
 18163  1  0  0  0  0
 19164  1  0  0  0  0
 20165  1  0  0  0  0
 21166  1  0  0  0  0
 22167  1  0  0  0  0
 22168  1  0  0  0  0
 23169  1  0  0  0  0
 28170  1  0  0  0  0
 29171  1  0  0  0  0
 32172  1  0  0  0  0
 32173  1  0  0  0  0
 32174  1  0  0  0  0
 33175  1  0  0  0  0
 34176  1  0  0  0  0
 36177  1  0  0  0  0
 37178  1  0  0  0  0
 40179  1  0  0  0  0
 40180  1  0  0  0  0
 40181  1  0  0  0  0
 41182  1  0  0  0  0
 42183  1  0  0  0  0
 49184  1  0  0  0  0
 50185  1  0  0  0  0
 53186  1  0  0  0  0
 53187  1  0  0  0  0
 53188  1  0  0  0  0
 54189  1  0  0  0  0
 55190  1  0  0  0  0
 57191  1  0  0  0  0
 58192  1  0  0  0  0
 61193  1  0  0  0  0
 61194  1  0  0  0  0
 61195  1  0  0  0  0
 62196  1  0  0  0  0
 63197  1  0  0  0  0
 70198  1  0  0  0  0
 71199  1  0  0  0  0
 74200  1  0  0  0  0
 74201  1  0  0  0  0
 74202  1  0  0  0  0
 75203  1  0  0  0  0
 76204  1  0  0  0  0
 78205  1  0  0  0  0
 79206  1  0  0  0  0
 82207  1  0  0  0  0
 82208  1  0  0  0  0
 82209  1  0  0  0  0
 83210  1  0  0  0  0
 84211  1  0  0  0  0
 91212  1  0  0  0  0
 92213  1  0  0  0  0
 95214  1  0  0  0  0
 95215  1  0  0  0  0
 95216  1  0  0  0  0
 96217  1  0  0  0  0
 97218  1  0  0  0  0
 99219  1  0  0  0  0
100220  1  0  0  0  0
103221  1  0  0  0  0
103222  1  0  0  0  0
103223  1  0  0  0  0
104224  1  0  0  0  0
105225  1  0  0  0  0
109226  1  0  0  0  0
113227  1  0  0  0  0
114228  1  0  0  0  0
117229  1  0  0  0  0
117230  1  0  0  0  0
118231  1  0  0  0  0
118232  1  0  0  0  0
118233  1  0  0  0  0
124234  1  0  0  0  0
125235  1  0  0  0  0
128236  1  0  0  0  0
128237  1  0  0  0  0
129238  1  0  0  0  0
129239  1  0  0  0  0
129240  1  0  0  0  0
133241  1  0  0  0  0
136242  1  0  0  0  0
141243  1  0  0  0  0
144244  1  0  0  0  0
152245  1  0  0  0  0
153246  1  0  0  0  0
154247  1  0  0  0  0
155248  1  0  0  0  0
156249  1  0  0  0  0
157250  1  0  0  0  0
157251  1  0  0  0  0
158252  1  0  0  0  0
M  END
