
  xtb     02152220383D
 energy: -397.300588286807 gnorm: 0.000558937107 xtb: 6.4.1 (unknown)
244270  0     0  0            999 V2000
   -3.3847    1.9723   -9.7534 C   0  0  0  0  0  0  0  0  0  0  0  0
   -4.6081    1.5292  -10.2050 C   0  0  0  0  0  0  0  0  0  0  0  0
   -5.6622    0.9897   -9.3296 C   0  0  0  0  0  0  0  0  0  0  0  0
   -5.6185    0.8648   -8.1191 O   0  0  0  0  0  0  0  0  0  0  0  0
   -6.8359    0.7763  -10.1997 C   0  0  0  0  0  0  0  0  0  0  0  0
   -8.0731    0.2571   -9.8307 C   0  0  0  0  0  0  0  0  0  0  0  0
   -8.9686    0.1525  -10.8686 C   0  0  0  0  0  0  0  0  0  0  0  0
   -8.6659    0.5548  -12.1752 C   0  0  0  0  0  0  0  0  0  0  0  0
   -7.4531    1.0821  -12.5503 C   0  0  0  0  0  0  0  0  0  0  0  0
   -6.5232    1.1805  -11.5124 C   0  0  0  0  0  0  0  0  0  0  0  0
   -5.1386    1.6437  -11.5354 C   0  0  0  0  0  0  0  0  0  0  0  0
   -4.4100    1.9565  -12.6578 C   0  0  0  0  0  0  0  0  0  0  0  0
   -4.9198    1.9589  -13.9682 C   0  0  0  0  0  0  0  0  0  0  0  0
   -5.2585    1.9527  -15.0668 N   0  0  0  0  0  0  0  0  0  0  0  0
   -3.0249    2.2147  -12.6491 C   0  0  0  0  0  0  0  0  0  0  0  0
   -1.8907    2.3809  -12.7277 N   0  0  0  0  0  0  0  0  0  0  0  0
  -10.0293    0.1714  -12.6958 C   0  0  0  0  0  0  0  0  0  0  0  0
  -10.1179   -1.1442  -13.4974 C   0  0  0  0  0  0  0  0  0  0  0  0
  -11.5862   -1.4990  -13.4497 C   0  0  0  0  0  0  0  0  0  0  0  0
  -11.8669   -1.8892  -12.2129 C   0  0  0  0  0  0  0  0  0  0  0  0
  -10.5928   -1.8029  -11.4036 C   0  0  0  0  0  0  0  0  0  0  0  0
   -9.5672   -2.1580  -12.4874 C   0  0  0  0  0  0  0  0  0  0  0  0
  -10.3638   -0.2854  -11.2395 C   0  0  0  0  0  0  0  0  0  0  0  0
   -2.7188    1.5114   -8.6131 C   0  0  0  0  0  0  0  0  0  0  0  0
   -2.7931    0.2932   -7.9089 C   0  0  0  0  0  0  0  0  0  0  0  0
   -3.5331   -0.8233   -8.1891 N   0  0  0  0  0  0  0  0  0  0  0  0
   -3.8371   -1.6561   -7.0776 C   0  0  0  0  0  0  0  0  0  0  0  0
   -3.3683   -2.9632   -7.0295 C   0  0  0  0  0  0  0  0  0  0  0  0
   -3.5346   -3.7141   -5.8813 C   0  0  0  0  0  0  0  0  0  0  0  0
   -4.1751   -3.1642   -4.7776 C   0  0  0  0  0  0  0  0  0  0  0  0
   -4.3279   -4.0152   -3.2397 S   0  0  0  0  0  0  0  0  0  0  0  0
   -2.8591   -5.0846   -3.2443 C   0  0  0  0  0  0  0  0  0  0  0  0
   -4.7253   -1.8874   -4.8622 C   0  0  0  0  0  0  0  0  0  0  0  0
   -4.5541   -1.1347   -6.0029 C   0  0  0  0  0  0  0  0  0  0  0  0
   -4.0023   -1.1997   -9.4431 C   0  0  0  0  0  0  0  0  0  0  0  0
   -5.2048   -1.9094   -9.5375 C   0  0  0  0  0  0  0  0  0  0  0  0
   -5.7227   -2.2436  -10.7654 C   0  0  0  0  0  0  0  0  0  0  0  0
   -5.0590   -1.8840  -11.9396 C   0  0  0  0  0  0  0  0  0  0  0  0
   -5.8713   -2.2807  -13.4500 S   0  0  0  0  0  0  0  0  0  0  0  0
   -4.7285   -1.7240  -14.7430 C   0  0  0  0  0  0  0  0  0  0  0  0
   -3.8317   -1.2395  -11.8512 C   0  0  0  0  0  0  0  0  0  0  0  0
   -3.3115   -0.9001  -10.6165 C   0  0  0  0  0  0  0  0  0  0  0  0
   -1.9102    0.3181   -6.8005 C   0  0  0  0  0  0  0  0  0  0  0  0
   -1.5386   -0.8274   -5.5579 S   0  0  0  0  0  0  0  0  0  0  0  0
   -0.4175    0.2977   -4.8304 C   0  0  0  0  0  0  0  0  0  0  0  0
   -0.3576    1.5197   -5.4935 C   0  0  0  0  0  0  0  0  0  0  0  0
    0.2948    2.6552   -5.0564 N   0  0  0  0  0  0  0  0  0  0  0  0
    0.9252    3.4600   -6.0166 C   0  0  0  0  0  0  0  0  0  0  0  0
    1.5906    2.8702   -7.0924 C   0  0  0  0  0  0  0  0  0  0  0  0
    2.2137    3.6531   -8.0376 C   0  0  0  0  0  0  0  0  0  0  0  0
    2.1987    5.0422   -7.9256 C   0  0  0  0  0  0  0  0  0  0  0  0
    3.0667    5.9364   -9.1737 S   0  0  0  0  0  0  0  0  0  0  0  0
    2.7317    7.6766   -8.7812 C   0  0  0  0  0  0  0  0  0  0  0  0
    1.5351    5.6331   -6.8583 C   0  0  0  0  0  0  0  0  0  0  0  0
    0.8982    4.8476   -5.9177 C   0  0  0  0  0  0  0  0  0  0  0  0
    0.3727    2.9629   -3.6927 C   0  0  0  0  0  0  0  0  0  0  0  0
    1.4797    3.6251   -3.1706 C   0  0  0  0  0  0  0  0  0  0  0  0
    1.6106    3.8287   -1.8102 C   0  0  0  0  0  0  0  0  0  0  0  0
    0.6370    3.3626   -0.9399 C   0  0  0  0  0  0  0  0  0  0  0  0
    0.7519    3.4421    0.8195 S   0  0  0  0  0  0  0  0  0  0  0  0
    2.3332    4.2810    1.1227 C   0  0  0  0  0  0  0  0  0  0  0  0
   -0.5145    2.7749   -1.4621 C   0  0  0  0  0  0  0  0  0  0  0  0
   -0.6537    2.5944   -2.8187 C   0  0  0  0  0  0  0  0  0  0  0  0
   -1.1785    1.4865   -6.6494 C   0  0  0  0  0  0  0  0  0  0  0  0
   -1.5047    2.6036   -7.9205 S   0  0  0  0  0  0  0  0  0  0  0  0
    0.1964   -0.0644   -3.6060 C   0  0  0  0  0  0  0  0  0  0  0  0
    1.2809    0.4403   -3.1308 N   0  0  0  0  0  0  0  0  0  0  0  0
    1.5046    0.0884   -1.8477 C   0  0  0  0  0  0  0  0  0  0  0  0
    2.5748    0.6089   -1.0961 C   0  0  0  0  0  0  0  0  0  0  0  0
    3.6151    1.3570   -1.7447 C   0  0  0  0  0  0  0  0  0  0  0  0
    4.6765    2.0379   -1.2009 C   0  0  0  0  0  0  0  0  0  0  0  0
    5.5152    2.6235   -2.1638 C   0  0  0  0  0  0  0  0  0  0  0  0
    5.1182    2.3812   -3.4457 C   0  0  0  0  0  0  0  0  0  0  0  0
    5.7503    2.8619   -4.7071 C   0  0  0  0  0  0  0  0  0  0  0  0
    4.8832    3.9104   -5.4077 C   0  0  0  0  0  0  0  0  0  0  0  0
    3.6723    1.4278   -3.4843 S   0  0  0  0  0  0  0  0  0  0  0  0
    2.4997    0.3345    0.2675 C   0  0  0  0  0  0  0  0  0  0  0  0
    1.5124   -0.5099    0.8431 C   0  0  0  0  0  0  0  0  0  0  0  0
    0.5115   -1.1300    0.0607 C   0  0  0  0  0  0  0  0  0  0  0  0
   -0.4712   -2.0041    0.6422 C   0  0  0  0  0  0  0  0  0  0  0  0
   -0.7547   -2.2130    1.9690 C   0  0  0  0  0  0  0  0  0  0  0  0
   -1.8053   -3.1205    2.1801 C   0  0  0  0  0  0  0  0  0  0  0  0
   -2.3325   -3.6245    1.0281 C   0  0  0  0  0  0  0  0  0  0  0  0
   -3.4139   -4.6366    0.8641 C   0  0  0  0  0  0  0  0  0  0  0  0
   -2.8407   -6.0563    0.8324 C   0  0  0  0  0  0  0  0  0  0  0  0
   -1.5254   -2.9729   -0.3570 S   0  0  0  0  0  0  0  0  0  0  0  0
    0.5284   -0.7698   -1.2841 C   0  0  0  0  0  0  0  0  0  0  0  0
   -0.6496   -1.1645   -2.4998 S   0  0  0  0  0  0  0  0  0  0  0  0
    1.6081   -0.6354    2.1810 N   0  0  0  0  0  0  0  0  0  0  0  0
    2.5610    0.0674    2.7012 C   0  0  0  0  0  0  0  0  0  0  0  0
    3.5184    0.9648    1.5255 S   0  0  0  0  0  0  0  0  0  0  0  0
    2.7217    0.1044    4.1071 C   0  0  0  0  0  0  0  0  0  0  0  0
    3.4592    0.9090    4.9698 C   0  0  0  0  0  0  0  0  0  0  0  0
    4.3538    1.9064    4.6321 N   0  0  0  0  0  0  0  0  0  0  0  0
    5.3316    1.7266    3.6507 C   0  0  0  0  0  0  0  0  0  0  0  0
    5.7782    2.8120    2.8970 C   0  0  0  0  0  0  0  0  0  0  0  0
    6.7166    2.6265    1.9036 C   0  0  0  0  0  0  0  0  0  0  0  0
    7.2384    1.3662    1.6295 C   0  0  0  0  0  0  0  0  0  0  0  0
    8.2111    1.1695    0.5082 C   0  0  0  0  0  0  0  0  0  0  0  0
    6.8055    0.2949    2.3995 C   0  0  0  0  0  0  0  0  0  0  0  0
    5.8687    0.4654    3.4004 C   0  0  0  0  0  0  0  0  0  0  0  0
    4.3130    3.0915    5.3910 C   0  0  0  0  0  0  0  0  0  0  0  0
    5.4818    3.7025    5.8324 C   0  0  0  0  0  0  0  0  0  0  0  0
    5.4141    4.8542    6.5917 C   0  0  0  0  0  0  0  0  0  0  0  0
    4.1920    5.4185    6.9363 C   0  0  0  0  0  0  0  0  0  0  0  0
    4.1165    6.6452    7.7910 C   0  0  0  0  0  0  0  0  0  0  0  0
    3.0295    4.8035    6.4850 C   0  0  0  0  0  0  0  0  0  0  0  0
    3.0831    3.6583    5.7173 C   0  0  0  0  0  0  0  0  0  0  0  0
    3.1297    0.6103    6.3158 C   0  0  0  0  0  0  0  0  0  0  0  0
    3.6311    1.2693    7.8287 S   0  0  0  0  0  0  0  0  0  0  0  0
    2.6140    0.1101    8.6989 C   0  0  0  0  0  0  0  0  0  0  0  0
    1.8505   -0.6854    7.8195 C   0  0  0  0  0  0  0  0  0  0  0  0
    0.8244   -1.5223    8.1484 N   0  0  0  0  0  0  0  0  0  0  0  0
    0.4759   -2.5615    7.2567 C   0  0  0  0  0  0  0  0  0  0  0  0
   -0.8535   -2.7542    6.8991 C   0  0  0  0  0  0  0  0  0  0  0  0
   -1.1885   -3.7616    6.0150 C   0  0  0  0  0  0  0  0  0  0  0  0
   -0.2158   -4.5913    5.4706 C   0  0  0  0  0  0  0  0  0  0  0  0
   -0.5721   -5.6555    4.4793 C   0  0  0  0  0  0  0  0  0  0  0  0
    1.1072   -4.4020    5.8551 C   0  0  0  0  0  0  0  0  0  0  0  0
    1.4567   -3.4025    6.7401 C   0  0  0  0  0  0  0  0  0  0  0  0
    0.0639   -1.3784    9.3163 C   0  0  0  0  0  0  0  0  0  0  0  0
   -0.2990   -0.1199    9.7955 C   0  0  0  0  0  0  0  0  0  0  0  0
   -1.0134   -0.0039   10.9687 C   0  0  0  0  0  0  0  0  0  0  0  0
   -1.3876   -1.1289   11.7008 C   0  0  0  0  0  0  0  0  0  0  0  0
   -2.1124   -0.9782   13.0009 C   0  0  0  0  0  0  0  0  0  0  0  0
   -1.0616   -2.3795   11.1939 C   0  0  0  0  0  0  0  0  0  0  0  0
   -0.3492   -2.5100   10.0163 C   0  0  0  0  0  0  0  0  0  0  0  0
    2.1982   -0.4057    6.4752 C   0  0  0  0  0  0  0  0  0  0  0  0
    1.6706   -1.0227    4.9487 S   0  0  0  0  0  0  0  0  0  0  0  0
    2.6585    0.1606   10.0952 C   0  0  0  0  0  0  0  0  0  0  0  0
    2.3213   -0.8664   10.9493 C   0  0  0  0  0  0  0  0  0  0  0  0
    2.4019   -2.2914   10.5901 C   0  0  0  0  0  0  0  0  0  0  0  0
    2.7308   -2.7659    9.5182 O   0  0  0  0  0  0  0  0  0  0  0  0
    2.1371   -3.0351   11.8398 C   0  0  0  0  0  0  0  0  0  0  0  0
    2.1180   -4.4164   12.0057 C   0  0  0  0  0  0  0  0  0  0  0  0
    1.8318   -4.8222   13.2880 C   0  0  0  0  0  0  0  0  0  0  0  0
    1.5934   -3.9205   14.3317 C   0  0  0  0  0  0  0  0  0  0  0  0
    1.6140   -2.5535   14.1816 C   0  0  0  0  0  0  0  0  0  0  0  0
    1.8954   -2.1217   12.8836 C   0  0  0  0  0  0  0  0  0  0  0  0
    1.9810   -0.7674   12.3405 C   0  0  0  0  0  0  0  0  0  0  0  0
    1.6293    0.3883   12.9958 C   0  0  0  0  0  0  0  0  0  0  0  0
    1.5977    1.6587   12.3883 C   0  0  0  0  0  0  0  0  0  0  0  0
    1.5199    2.7184   11.9510 N   0  0  0  0  0  0  0  0  0  0  0  0
    1.1759    0.4428   14.3259 C   0  0  0  0  0  0  0  0  0  0  0  0
    0.7816    0.5515   15.4001 N   0  0  0  0  0  0  0  0  0  0  0  0
    1.3913   -5.0208   15.3447 C   0  0  0  0  0  0  0  0  0  0  0  0
    2.5659   -5.2986   16.3061 C   0  0  0  0  0  0  0  0  0  0  0  0
    2.2851   -6.6889   16.8290 C   0  0  0  0  0  0  0  0  0  0  0  0
    2.5068   -7.5445   15.8394 C   0  0  0  0  0  0  0  0  0  0  0  0
    2.9417   -6.7467   14.6312 C   0  0  0  0  0  0  0  0  0  0  0  0
    3.7037   -5.6105   15.3254 C   0  0  0  0  0  0  0  0  0  0  0  0
    1.6534   -6.0275   14.1789 C   0  0  0  0  0  0  0  0  0  0  0  0
   -2.8809    2.7602  -10.3006 H   0  0  0  0  0  0  0  0  0  0  0  0
   -8.2712   -0.0343   -8.8110 H   0  0  0  0  0  0  0  0  0  0  0  0
   -7.2365    1.4011  -13.5564 H   0  0  0  0  0  0  0  0  0  0  0  0
  -10.6135    0.9784  -13.1341 H   0  0  0  0  0  0  0  0  0  0  0  0
   -9.6506   -1.1127  -14.4774 H   0  0  0  0  0  0  0  0  0  0  0  0
  -12.2604   -1.3807  -14.2777 H   0  0  0  0  0  0  0  0  0  0  0  0
  -12.8218   -2.1607  -11.8018 H   0  0  0  0  0  0  0  0  0  0  0  0
  -10.5626   -2.3710  -10.4774 H   0  0  0  0  0  0  0  0  0  0  0  0
   -8.5329   -1.9745  -12.2053 H   0  0  0  0  0  0  0  0  0  0  0  0
   -9.6712   -3.1841  -12.8357 H   0  0  0  0  0  0  0  0  0  0  0  0
  -11.1747    0.2124  -10.7103 H   0  0  0  0  0  0  0  0  0  0  0  0
   -2.8475   -3.3776   -7.8801 H   0  0  0  0  0  0  0  0  0  0  0  0
   -3.1459   -4.7193   -5.8494 H   0  0  0  0  0  0  0  0  0  0  0  0
   -2.0022   -4.5019   -3.5670 H   0  0  0  0  0  0  0  0  0  0  0  0
   -2.7219   -5.4047   -2.2171 H   0  0  0  0  0  0  0  0  0  0  0  0
   -3.0162   -5.9501   -3.8815 H   0  0  0  0  0  0  0  0  0  0  0  0
   -5.2591   -1.4869   -4.0146 H   0  0  0  0  0  0  0  0  0  0  0  0
   -4.9530   -0.1355   -6.0795 H   0  0  0  0  0  0  0  0  0  0  0  0
   -5.7393   -2.1668   -8.6361 H   0  0  0  0  0  0  0  0  0  0  0  0
   -6.6604   -2.7732  -10.8333 H   0  0  0  0  0  0  0  0  0  0  0  0
   -5.1927   -2.0125  -15.6809 H   0  0  0  0  0  0  0  0  0  0  0  0
   -4.6186   -0.6441  -14.7102 H   0  0  0  0  0  0  0  0  0  0  0  0
   -3.7723   -2.2273  -14.6353 H   0  0  0  0  0  0  0  0  0  0  0  0
   -3.2726   -0.9794  -12.7360 H   0  0  0  0  0  0  0  0  0  0  0  0
   -2.3554   -0.4008  -10.5685 H   0  0  0  0  0  0  0  0  0  0  0  0
    1.6278    1.7938   -7.1690 H   0  0  0  0  0  0  0  0  0  0  0  0
    2.7316    3.1992   -8.8681 H   0  0  0  0  0  0  0  0  0  0  0  0
    3.1628    7.9331   -7.8177 H   0  0  0  0  0  0  0  0  0  0  0  0
    3.2161    8.2508   -9.5649 H   0  0  0  0  0  0  0  0  0  0  0  0
    1.6613    7.8597   -8.7984 H   0  0  0  0  0  0  0  0  0  0  0  0
    1.4991    6.7048   -6.7487 H   0  0  0  0  0  0  0  0  0  0  0  0
    0.3741    5.3128   -5.0961 H   0  0  0  0  0  0  0  0  0  0  0  0
    2.2643    3.9598   -3.8301 H   0  0  0  0  0  0  0  0  0  0  0  0
    2.4965    4.3224   -1.4446 H   0  0  0  0  0  0  0  0  0  0  0  0
    2.4466    4.3080    2.2024 H   0  0  0  0  0  0  0  0  0  0  0  0
    3.1460    3.7113    0.6824 H   0  0  0  0  0  0  0  0  0  0  0  0
    2.2970    5.2925    0.7285 H   0  0  0  0  0  0  0  0  0  0  0  0
   -1.2922    2.4523   -0.7864 H   0  0  0  0  0  0  0  0  0  0  0  0
   -1.5537    2.1393   -3.2052 H   0  0  0  0  0  0  0  0  0  0  0  0
    4.8665    2.1172   -0.1455 H   0  0  0  0  0  0  0  0  0  0  0  0
    6.3882    3.2004   -1.9115 H   0  0  0  0  0  0  0  0  0  0  0  0
    6.7276    3.2896   -4.4715 H   0  0  0  0  0  0  0  0  0  0  0  0
    5.8996    2.0182   -5.3854 H   0  0  0  0  0  0  0  0  0  0  0  0
    5.3662    4.2545   -6.3188 H   0  0  0  0  0  0  0  0  0  0  0  0
    4.7219    4.7676   -4.7565 H   0  0  0  0  0  0  0  0  0  0  0  0
    3.9179    3.4847   -5.6723 H   0  0  0  0  0  0  0  0  0  0  0  0
   -0.2247   -1.7175    2.7598 H   0  0  0  0  0  0  0  0  0  0  0  0
   -2.1684   -3.3788    3.1587 H   0  0  0  0  0  0  0  0  0  0  0  0
   -3.9578   -4.4426   -0.0630 H   0  0  0  0  0  0  0  0  0  0  0  0
   -4.1145   -4.5491    1.6975 H   0  0  0  0  0  0  0  0  0  0  0  0
   -3.6345   -6.7804    0.6663 H   0  0  0  0  0  0  0  0  0  0  0  0
   -2.1078   -6.1523    0.0338 H   0  0  0  0  0  0  0  0  0  0  0  0
   -2.3486   -6.2877    1.7742 H   0  0  0  0  0  0  0  0  0  0  0  0
    5.3690    3.7938    3.0840 H   0  0  0  0  0  0  0  0  0  0  0  0
    7.0422    3.4754    1.3193 H   0  0  0  0  0  0  0  0  0  0  0  0
    8.8246    0.2875    0.6751 H   0  0  0  0  0  0  0  0  0  0  0  0
    7.6699    1.0336   -0.4294 H   0  0  0  0  0  0  0  0  0  0  0  0
    8.8596    2.0362    0.3997 H   0  0  0  0  0  0  0  0  0  0  0  0
    7.2047   -0.6915    2.2127 H   0  0  0  0  0  0  0  0  0  0  0  0
    5.5438   -0.3797    3.9897 H   0  0  0  0  0  0  0  0  0  0  0  0
    6.4381    3.2662    5.5844 H   0  0  0  0  0  0  0  0  0  0  0  0
    6.3294    5.3156    6.9331 H   0  0  0  0  0  0  0  0  0  0  0  0
    3.3716    7.3389    7.4061 H   0  0  0  0  0  0  0  0  0  0  0  0
    3.8239    6.3719    8.8049 H   0  0  0  0  0  0  0  0  0  0  0  0
    5.0784    7.1494    7.8374 H   0  0  0  0  0  0  0  0  0  0  0  0
    2.0695    5.2300    6.7362 H   0  0  0  0  0  0  0  0  0  0  0  0
    2.1728    3.1944    5.3643 H   0  0  0  0  0  0  0  0  0  0  0  0
   -1.6168   -2.1100    7.3109 H   0  0  0  0  0  0  0  0  0  0  0  0
   -2.2253   -3.9015    5.7443 H   0  0  0  0  0  0  0  0  0  0  0  0
    0.0257   -6.5502    4.6399 H   0  0  0  0  0  0  0  0  0  0  0  0
   -1.6254   -5.9177    4.5481 H   0  0  0  0  0  0  0  0  0  0  0  0
   -0.3732   -5.2953    3.4691 H   0  0  0  0  0  0  0  0  0  0  0  0
    1.8732   -5.0517    5.4578 H   0  0  0  0  0  0  0  0  0  0  0  0
    2.4780   -3.2758    7.0630 H   0  0  0  0  0  0  0  0  0  0  0  0
   -0.0169    0.7667    9.2477 H   0  0  0  0  0  0  0  0  0  0  0  0
   -1.2796    0.9786   11.3304 H   0  0  0  0  0  0  0  0  0  0  0  0
   -1.4519   -0.5461   13.7533 H   0  0  0  0  0  0  0  0  0  0  0  0
   -2.9645   -0.3099   12.8897 H   0  0  0  0  0  0  0  0  0  0  0  0
   -2.4628   -1.9402   13.3656 H   0  0  0  0  0  0  0  0  0  0  0  0
   -1.3531   -3.2680   11.7349 H   0  0  0  0  0  0  0  0  0  0  0  0
   -0.0945   -3.4888    9.6387 H   0  0  0  0  0  0  0  0  0  0  0  0
    3.0273    1.0875   10.5181 H   0  0  0  0  0  0  0  0  0  0  0  0
    2.3078   -5.0783   11.1750 H   0  0  0  0  0  0  0  0  0  0  0  0
    1.4354   -1.8698   14.9950 H   0  0  0  0  0  0  0  0  0  0  0  0
    0.4226   -5.0388   15.8411 H   0  0  0  0  0  0  0  0  0  0  0  0
    2.7410   -4.5232   17.0469 H   0  0  0  0  0  0  0  0  0  0  0  0
    1.9126   -6.8952   17.8153 H   0  0  0  0  0  0  0  0  0  0  0  0
    2.3565   -8.6083   15.8338 H   0  0  0  0  0  0  0  0  0  0  0  0
    3.4597   -7.2910   13.8460 H   0  0  0  0  0  0  0  0  0  0  0  0
    4.5992   -5.9653   15.8331 H   0  0  0  0  0  0  0  0  0  0  0  0
    3.9615   -4.7829   14.6673 H   0  0  0  0  0  0  0  0  0  0  0  0
    0.8582   -6.7157   13.8973 H   0  0  0  0  0  0  0  0  0  0  0  0
  1  2  2  0  0  0  0
  2  3  1  0  0  0  0
  3  4  2  0  0  0  0
  3  5  1  0  0  0  0
  5  6  2  0  0  0  0
  6  7  1  0  0  0  0
  7  8  2  0  0  0  0
  8  9  1  0  0  0  0
  9 10  2  0  0  0  0
 10 11  1  0  0  0  0
 11 12  2  0  0  0  0
 12 13  1  0  0  0  0
 13 14  3  0  0  0  0
 12 15  1  0  0  0  0
 15 16  3  0  0  0  0
  8 17  1  0  0  0  0
 17 18  1  0  0  0  0
 18 19  1  0  0  0  0
 19 20  2  0  0  0  0
 20 21  1  0  0  0  0
 21 22  1  0  0  0  0
 21 23  1  0  0  0  0
  1 24  1  0  0  0  0
 24 25  2  0  0  0  0
 25 26  1  0  0  0  0
 26 27  1  0  0  0  0
 27 28  2  0  0  0  0
 28 29  1  0  0  0  0
 29 30  2  0  0  0  0
 30 31  1  0  0  0  0
 31 32  1  0  0  0  0
 30 33  1  0  0  0  0
 33 34  2  0  0  0  0
 26 35  1  0  0  0  0
 35 36  2  0  0  0  0
 36 37  1  0  0  0  0
 37 38  2  0  0  0  0
 38 39  1  0  0  0  0
 39 40  1  0  0  0  0
 38 41  1  0  0  0  0
 41 42  2  0  0  0  0
 25 43  1  0  0  0  0
 43 44  1  0  0  0  0
 44 45  1  0  0  0  0
 45 46  2  0  0  0  0
 46 47  1  0  0  0  0
 47 48  1  0  0  0  0
 48 49  2  0  0  0  0
 49 50  1  0  0  0  0
 50 51  2  0  0  0  0
 51 52  1  0  0  0  0
 52 53  1  0  0  0  0
 51 54  1  0  0  0  0
 54 55  2  0  0  0  0
 47 56  1  0  0  0  0
 56 57  2  0  0  0  0
 57 58  1  0  0  0  0
 58 59  2  0  0  0  0
 59 60  1  0  0  0  0
 60 61  1  0  0  0  0
 59 62  1  0  0  0  0
 62 63  2  0  0  0  0
 46 64  1  0  0  0  0
 64 65  1  0  0  0  0
 45 66  1  0  0  0  0
 66 67  2  0  0  0  0
 67 68  1  0  0  0  0
 68 69  2  0  0  0  0
 69 70  1  0  0  0  0
 70 71  2  0  0  0  0
 71 72  1  0  0  0  0
 72 73  2  0  0  0  0
 73 74  1  0  0  0  0
 74 75  1  0  0  0  0
 73 76  1  0  0  0  0
 69 77  1  0  0  0  0
 77 78  2  0  0  0  0
 78 79  1  0  0  0  0
 79 80  1  0  0  0  0
 80 81  2  0  0  0  0
 81 82  1  0  0  0  0
 82 83  2  0  0  0  0
 83 84  1  0  0  0  0
 84 85  1  0  0  0  0
 83 86  1  0  0  0  0
 79 87  2  0  0  0  0
 87 88  1  0  0  0  0
 78 89  1  0  0  0  0
 89 90  2  0  0  0  0
 90 91  1  0  0  0  0
 90 92  1  0  0  0  0
 92 93  2  0  0  0  0
 93 94  1  0  0  0  0
 94 95  1  0  0  0  0
 95 96  2  0  0  0  0
 96 97  1  0  0  0  0
 97 98  2  0  0  0  0
 98 99  1  0  0  0  0
 98100  1  0  0  0  0
100101  2  0  0  0  0
 94102  1  0  0  0  0
102103  2  0  0  0  0
103104  1  0  0  0  0
104105  2  0  0  0  0
105106  1  0  0  0  0
105107  1  0  0  0  0
107108  2  0  0  0  0
 93109  1  0  0  0  0
109110  1  0  0  0  0
110111  1  0  0  0  0
111112  2  0  0  0  0
112113  1  0  0  0  0
113114  1  0  0  0  0
114115  2  0  0  0  0
115116  1  0  0  0  0
116117  2  0  0  0  0
117118  1  0  0  0  0
117119  1  0  0  0  0
119120  2  0  0  0  0
113121  1  0  0  0  0
121122  2  0  0  0  0
122123  1  0  0  0  0
123124  2  0  0  0  0
124125  1  0  0  0  0
124126  1  0  0  0  0
126127  2  0  0  0  0
112128  1  0  0  0  0
128129  1  0  0  0  0
111130  1  0  0  0  0
130131  2  0  0  0  0
131132  1  0  0  0  0
132133  2  0  0  0  0
132134  1  0  0  0  0
134135  2  0  0  0  0
135136  1  0  0  0  0
136137  2  0  0  0  0
137138  1  0  0  0  0
138139  2  0  0  0  0
139140  1  0  0  0  0
140141  2  0  0  0  0
141142  1  0  0  0  0
142143  3  0  0  0  0
141144  1  0  0  0  0
144145  3  0  0  0  0
137146  1  0  0  0  0
146147  1  0  0  0  0
147148  1  0  0  0  0
148149  2  0  0  0  0
149150  1  0  0  0  0
150151  1  0  0  0  0
150152  1  0  0  0  0
 11  2  1  0  0  0  0
 23 17  1  0  0  0  0
 65 24  1  0  0  0  0
 88 66  1  0  0  0  0
129 92  1  0  0  0  0
140131  1  0  0  0  0
152146  1  0  0  0  0
 10  5  1  0  0  0  0
 22 18  1  0  0  0  0
 34 27  1  0  0  0  0
 42 35  1  0  0  0  0
 64 43  2  0  0  0  0
 87 68  1  0  0  0  0
101 95  1  0  0  0  0
108102  1  0  0  0  0
128109  2  0  0  0  0
139134  1  0  0  0  0
151147  1  0  0  0  0
 23  7  1  0  0  0  0
 55 48  1  0  0  0  0
 63 56  1  0  0  0  0
 76 70  1  0  0  0  0
 91 77  1  0  0  0  0
120114  1  0  0  0  0
127121  1  0  0  0  0
152136  1  0  0  0  0
 86 80  1  0  0  0  0
  1153  1  0  0  0  0
  6154  1  0  0  0  0
  9155  1  0  0  0  0
 17156  1  0  0  0  0
 18157  1  0  0  0  0
 19158  1  0  0  0  0
 20159  1  0  0  0  0
 21160  1  0  0  0  0
 22161  1  0  0  0  0
 22162  1  0  0  0  0
 23163  1  0  0  0  0
 28164  1  0  0  0  0
 29165  1  0  0  0  0
 32166  1  0  0  0  0
 32167  1  0  0  0  0
 32168  1  0  0  0  0
 33169  1  0  0  0  0
 34170  1  0  0  0  0
 36171  1  0  0  0  0
 37172  1  0  0  0  0
 40173  1  0  0  0  0
 40174  1  0  0  0  0
 40175  1  0  0  0  0
 41176  1  0  0  0  0
 42177  1  0  0  0  0
 49178  1  0  0  0  0
 50179  1  0  0  0  0
 53180  1  0  0  0  0
 53181  1  0  0  0  0
 53182  1  0  0  0  0
 54183  1  0  0  0  0
 55184  1  0  0  0  0
 57185  1  0  0  0  0
 58186  1  0  0  0  0
 61187  1  0  0  0  0
 61188  1  0  0  0  0
 61189  1  0  0  0  0
 62190  1  0  0  0  0
 63191  1  0  0  0  0
 71192  1  0  0  0  0
 72193  1  0  0  0  0
 74194  1  0  0  0  0
 74195  1  0  0  0  0
 75196  1  0  0  0  0
 75197  1  0  0  0  0
 75198  1  0  0  0  0
 81199  1  0  0  0  0
 82200  1  0  0  0  0
 84201  1  0  0  0  0
 84202  1  0  0  0  0
 85203  1  0  0  0  0
 85204  1  0  0  0  0
 85205  1  0  0  0  0
 96206  1  0  0  0  0
 97207  1  0  0  0  0
 99208  1  0  0  0  0
 99209  1  0  0  0  0
 99210  1  0  0  0  0
100211  1  0  0  0  0
101212  1  0  0  0  0
103213  1  0  0  0  0
104214  1  0  0  0  0
106215  1  0  0  0  0
106216  1  0  0  0  0
106217  1  0  0  0  0
107218  1  0  0  0  0
108219  1  0  0  0  0
115220  1  0  0  0  0
116221  1  0  0  0  0
118222  1  0  0  0  0
118223  1  0  0  0  0
118224  1  0  0  0  0
119225  1  0  0  0  0
120226  1  0  0  0  0
122227  1  0  0  0  0
123228  1  0  0  0  0
125229  1  0  0  0  0
125230  1  0  0  0  0
125231  1  0  0  0  0
126232  1  0  0  0  0
127233  1  0  0  0  0
130234  1  0  0  0  0
135235  1  0  0  0  0
138236  1  0  0  0  0
146237  1  0  0  0  0
147238  1  0  0  0  0
148239  1  0  0  0  0
149240  1  0  0  0  0
150241  1  0  0  0  0
151242  1  0  0  0  0
151243  1  0  0  0  0
152244  1  0  0  0  0
M  END
