228

C         -2.27240       -9.22060        4.32230
C         -1.00880       -9.67120        4.05490
C         -0.05340       -8.97900        3.15470
O         -0.19340       -7.91340        2.58330
C          1.18810       -9.76800        3.20090
C          2.35300       -9.52780        2.47440
C          3.35740      -10.43320        2.71480
C          3.21980      -11.48970        3.62510
C          2.08200      -11.72790        4.35950
C          1.04080      -10.82550        4.11970
C         -0.30890      -10.77120        4.68050
C         -0.83620      -11.66060        5.58180
C         -2.16390      -11.63880        6.05770
N         -3.22840      -11.70690        6.48350
C         -0.12540      -12.73450        6.15480
N          0.39430      -13.62370        6.66330
C          4.61310      -12.00450        3.35970
C          4.72570      -13.25000        2.45500
C          6.16470      -13.23040        1.99230
C          6.29810      -12.22910        1.13190
C          4.95150      -11.55550        0.99790
C          4.03020      -12.76940        1.17440
C          4.76660      -10.82570        2.34530
C         -2.95770       -8.31480        3.47160
C         -2.77870       -8.31590        2.06980
C         -3.23660       -7.23670        1.22430
N         -2.90500       -7.44650       -0.05230
S         -2.14010       -8.85010       -0.17750
N         -2.17450       -9.27360        1.36680
C         -3.91440       -6.11070        1.75150
C         -4.29210       -6.23380        3.10310
N         -5.01920       -5.34830        3.78510
S         -5.12440       -5.82290        5.31200
N         -4.24330       -7.16110        5.20840
C         -3.83230       -7.31780        3.94930
C         -4.02830       -4.89320        1.03320
C         -3.36730       -4.63950       -0.14200
C         -3.38430       -3.29050       -0.52380
C         -2.59560       -2.71470       -1.54520
C         -1.78360       -3.60850       -2.35180
C         -0.41780       -3.67070       -2.36570
C          0.03980       -4.89610       -2.88020
S          1.55970       -5.71370       -2.89690
C          0.80550       -7.19710       -3.44790
Si         1.78080       -8.81690       -3.47330
C          1.94840       -9.46090       -5.26800
C          0.72200       -9.21560       -6.14130
C          0.89300      -10.05860       -2.30750
C         -0.38780      -10.67370       -2.86010
C          3.52340       -8.47340       -2.76360
C          3.54040       -8.27770       -1.25110
C         -0.53540       -7.03090       -3.64970
C         -0.97680       -5.74180       -3.31450
S         -2.52600       -4.99920       -3.12940
C         -2.50760       -1.33640       -1.53410
C         -3.29820       -0.52600       -0.67990
C         -4.17310       -1.10620        0.26640
C         -5.00340       -0.27080        1.10420
S         -5.26800       -0.66430        2.79310
C         -6.27170        0.73000        2.98260
C         -6.99630        1.30160        4.04180
C         -7.66320        2.43280        3.67170
Si        -8.75730        3.53920        4.74170
C         -9.97980        4.40310        3.55100
C        -10.92750        5.38560        4.23110
C         -7.61810        4.79400        5.63860
C         -8.20680        5.35570        6.92920
C         -9.66520        2.42090        5.99960
C        -10.48990        1.31540        5.34690
S         -7.39850        2.81710        1.98590
C         -6.38260        1.43520        1.78760
C         -5.66170        0.87090        0.72510
C         -4.12360       -2.49150        0.38410
S         -4.79930       -3.46250        1.67110
C         -2.91570        0.83390       -0.76340
C         -1.83950        1.05180       -1.56990
S         -1.34940       -0.39330       -2.43070
C         -1.07060        2.25780       -1.65120
C          0.29470        2.40160       -1.44820
N          1.16670        1.39970       -1.06640
C          0.76580        0.30870       -0.28170
C         -0.22770        0.42440        0.69310
C         -0.68220       -0.69190        1.36040
C         -0.13060       -1.94690        1.10810
S         -0.85610       -3.32130        1.94790
C          0.00020       -4.76410        1.25950
C          0.93850       -2.04540        0.22660
C          1.36810       -0.93320       -0.47190
C          2.53460        1.56640       -1.35250
C          2.94050        1.98660       -2.61600
C          4.27140        2.24990       -2.87110
C          5.21340        2.09330       -1.86450
S          6.91870        2.48760       -2.10070
C          6.80240        3.90230       -3.23780
C          4.82140        1.60630       -0.62160
C          3.49370        1.34660       -0.36500
C          0.68220        3.76030       -1.60130
S          2.19480        4.58730       -1.49630
C          1.39190        6.13040       -1.80300
C         -0.01370        5.97920       -1.91000
N         -0.92310        6.99360       -2.05930
C         -2.09780        6.72960       -2.78930
C         -2.01860        6.07580       -4.01920
C         -3.16340        5.79920       -4.72990
C         -4.41200        6.17150       -4.23230
S         -5.80390        5.75310       -5.22730
C         -7.22450        6.38240       -4.28860
C         -4.49170        6.83440       -3.01400
C         -3.34250        7.10980       -2.29970
C         -0.80170        8.22590       -1.39630
C         -1.28330        9.39050       -1.99540
C         -1.17450       10.59820       -1.34360
C         -0.57380       10.67560       -0.08870
S         -0.47300       12.27980        0.63560
C          0.53060       12.02650        2.12790
C         -0.10850        9.51460        0.51750
C         -0.22960        8.30090       -0.12850
C         -0.37850        4.62230       -1.84230
S         -1.89630        3.78500       -1.90630
C          2.05120        7.33770       -2.02890
C          3.39220        7.64850       -1.98650
C          4.48420        6.75220       -1.61060
O          4.42950        5.55060       -1.39320
C          5.70300        7.57610       -1.55830
C          6.98490        7.15510       -1.21160
C          7.92890        8.15290       -1.25460
C          7.61870        9.47130       -1.61120
C          6.35610        9.89950       -1.95000
C          5.38030        8.89960       -1.91770
C          3.95190        8.95760       -2.23380
C          3.29370       10.06160       -2.72060
C          1.96220       10.08410       -3.17780
N          0.90150       10.17820       -3.61220
C          3.88100       11.33240       -2.88270
N          4.28790       12.39720       -3.02440
C          9.04520        9.93530       -1.45040
C          9.85440       10.13660       -2.74910
C         11.29310       10.11370       -2.28560
C         11.58770        8.86530       -1.94610
C         10.35320        8.02330       -2.17480
C          9.76250        8.74660       -3.39210
C          9.39100        8.46460       -1.05170
H         -2.78410       -9.51060        5.23040
H          2.41870       -8.69610        1.79010
H          1.99810      -12.53820        5.06410
H          5.27820      -12.04220        4.22020
H          4.36800      -14.17230        2.90420
H          6.92500      -13.88900        2.36920
H          7.19230      -11.88440        0.64640
H          4.80230      -10.93440        0.11870
H          2.98070      -12.51410        1.30910
H          4.13010      -13.48470        0.35960
H          5.53240      -10.07500        2.53130
H         -2.82690       -5.41570       -0.64700
H          0.20920       -2.90310       -1.95350
H          2.81100       -8.98890       -5.74080
H          2.15960      -10.53080       -5.24570
H         -0.15300       -9.71210       -5.73090
H          0.88580       -9.59510       -7.14820
H          0.50810       -8.15200       -6.20840
H          1.58630      -10.86730       -2.06830
H          0.66160       -9.56170       -1.36280
H         -0.18590      -11.21870       -3.77880
H         -0.81960      -11.36900       -2.14160
H         -1.12790       -9.90590       -3.06970
H          3.93880       -7.58270       -3.23640
H          4.19110       -9.29700       -3.02000
H          2.90660       -7.44120       -0.96770
H          4.55010       -8.07180       -0.89910
H          3.17620       -9.16820       -0.74480
H         -1.18370       -7.81280       -3.99730
H         -7.03100        0.89710        5.03620
H        -10.56890        3.64720        3.02890
H         -9.41540        4.93070        2.78000
H        -10.37150        6.19870        4.69060
H        -11.50840        4.88870        5.00420
H        -11.62040        5.81610        3.51000
H         -7.38930        5.62050        4.96400
H         -6.66480        4.31580        5.86970
H         -7.52590        6.07500        7.38110
H         -9.15230        5.85670        6.74000
H         -8.38400        4.55930        7.64700
H         -8.93900        1.96800        6.67620
H        -10.32110        3.03140        6.62070
H         -9.85960        0.68340        4.72600
H        -10.96380        0.69040        6.10170
H        -11.26980        1.73810        4.71870
H         -5.66170        1.25500       -0.27850
H         -3.33640        1.61160       -0.15200
H         -0.64770        1.39270        0.91850
H         -1.47490       -0.60510        2.08770
H         -0.43130       -5.63430        1.74590
H          1.05960       -4.71340        1.49270
H         -0.16780       -4.81210        0.18700
H          1.43650       -2.98780        0.06340
H          2.17120       -1.02880       -1.18800
H          2.20480        2.11530       -3.39660
H          4.56440        2.58280       -3.85400
H          6.65650        3.56220       -4.25910
H          7.74540        4.43470       -3.16260
H          5.98180        4.53260       -2.90940
H          5.56440        1.46510        0.14790
H          3.18450        1.00250        0.61080
H         -1.05290        5.79400       -4.41170
H         -3.10740        5.29500       -5.68220
H         -8.09800        6.13740       -4.88490
H         -7.28460        5.88370       -3.32570
H         -7.14740        7.45970       -4.17480
H         -5.44170        7.13490       -2.60340
H         -3.41030        7.61700       -1.34880
H         -1.72650        9.34420       -2.97710
H         -1.53370       11.50100       -1.81110
H          0.68590       13.01660        2.54480
H         -0.00510       11.40770        2.84210
H          1.48620       11.58580        1.85960
H          0.33940        9.53790        1.49790
H          0.12640        7.40210        0.35340
H          1.38890        8.15580       -2.28130
H          7.17790        6.13050       -0.93400
H          6.13550       10.91990       -2.21470
H          9.20880       10.72580       -0.72040
H          9.54650       10.98820       -3.34970
H         11.91040       10.98880       -2.20200
H         12.50030        8.48890       -1.52230
H         10.50180        6.94930       -2.25200
H         10.39750        8.65770       -4.27210
H          8.74840        8.44000       -3.64230
H          9.78420        8.27390       -0.05480
