213

C         -9.20840        5.51360       -1.59180
C        -10.49750        5.09530       -1.56740
C        -11.58570        5.91070       -2.17540
O        -11.54290        7.08580       -2.45770
C        -12.68520        4.95470       -2.41690
C        -13.87470        5.19370       -3.10220
C        -14.69960        4.09840       -3.19330
C        -14.37330        2.85090       -2.64230
C        -13.21100        2.60120       -1.95270
C        -12.35750        3.70210       -1.85220
C        -11.07490        3.82660       -1.17230
C        -10.61860        3.05460       -0.13690
C        -11.22300        1.85460        0.28300
N        -11.67660        0.86200        0.63890
C         -9.54930        3.48230        0.67690
N         -8.73840        3.87730        1.38660
C        -15.64940        2.21270       -3.13010
C        -15.56780        1.29900       -4.37820
C        -14.38250        1.77400       -5.18140
C        -14.69230        2.95430       -5.70120
C        -16.09280        3.29870       -5.25880
C        -16.71470        1.89380       -5.21070
C        -16.01410        3.60200       -3.74170
C         -8.03060        4.71980       -1.50490
C         -6.76430        5.17230       -1.25030
C         -5.76790        4.17700       -1.35150
C         -4.38630        4.30680       -1.10120
C         -3.78280        5.56420       -0.71850
C         -3.99670        6.80530       -1.24530
C         -3.30510        7.86740       -0.62850
C         -2.52760        7.51240        0.43510
S         -1.55760        8.64750        1.34760
C         -1.49230        7.85590        2.99850
C         -0.33120        6.89240        3.13790
Se        -2.55700        5.65000        0.71190
C         -3.63810        3.14210       -1.19660
C         -4.16940        1.87620       -1.53770
C         -5.54140        1.75300       -1.84530
C         -6.15790        0.51900       -2.28700
C         -7.14840        0.41910       -3.22770
C         -7.64240       -0.87260       -3.49500
C         -7.06140       -1.86270       -2.75950
S         -7.35870       -3.58120       -2.76440
C         -8.81040       -3.71710       -3.87390
C         -9.26730       -5.16190       -3.91800
Se        -5.75750       -1.19630       -1.59640
C         -6.30010        2.91730       -1.72110
S         -8.02690        3.01300       -1.91840
C         -3.16730        0.87100       -1.51560
C         -1.93460        1.33000       -1.17180
S         -1.92160        3.06810       -0.93540
C         -0.71810        0.62190       -0.90220
C         -0.51040       -0.44040       -0.03680
N         -1.48490       -1.04330        0.73580
C         -1.38950       -2.40880        1.02980
C         -1.82220       -2.89510        2.25990
C         -1.71650       -4.23780        2.56400
C         -1.16490       -5.11890        1.64330
S         -0.96190       -6.85010        1.92030
C         -1.64460       -7.11380        3.58140
C         -0.73690       -4.63720        0.40810
C         -0.85350       -3.30070        0.10010
C         -2.58580       -0.28890        1.17300
C         -3.87450       -0.81660        1.11390
C         -4.96080       -0.01790        1.39410
C         -4.79380        1.32690        1.72340
S         -6.27380        2.27150        1.86550
C         -5.70770        3.91120        2.38490
C         -3.50760        1.82950        1.87240
C         -2.41700        1.02210        1.61250
C          0.87380       -0.74880        0.04870
S          1.80790       -1.92300        0.91100
C          3.29790       -1.18940        0.33580
C          3.07330       -0.13260       -0.53700
N          4.01620        0.63490       -1.20940
C          5.20090        0.09150       -1.70710
C          6.36130        0.86460       -1.78990
C          7.56570        0.28120       -2.11110
C          7.65080       -1.09150       -2.32870
S          9.26890       -1.76790       -2.52840
C          9.00800       -3.55100       -2.31050
C          6.48570       -1.84560       -2.35600
C          5.27330       -1.25410       -2.06430
C          3.74640        2.01270       -1.28600
C          3.20730        2.66620       -0.17940
C          2.81110        3.98530       -0.26240
C          2.96710        4.68050       -1.45360
S          2.43050        6.35000       -1.66790
C          1.08920        6.49560       -0.45070
C          3.57570        4.05350       -2.53880
C          3.95590        2.73150       -2.46180
C          1.68480        0.10520       -0.67780
S          0.77480        1.29370       -1.53480
C          4.57730       -1.66710        0.74800
C          5.69420       -0.89280        0.86870
C          6.89180       -1.61260        1.05770
C          8.20690       -1.08740        1.12190
C          8.50390        0.31830        0.95340
C          9.62410        0.83920        0.35810
C          9.67560        2.23850        0.22630
C          8.59730        2.91070        0.72570
S          8.39670        4.64720        0.65300
C          6.57620        4.81540        0.51690
C          5.89430        4.88760        1.86750
Se         7.38000        1.72340        1.51850
C          9.21820       -2.03120        1.27940
C          8.97140       -3.42880        1.35740
C          7.65370       -3.95330        1.30870
C          7.38510       -5.35240        1.50550
C          6.32700       -6.07130        1.00500
C          6.20830       -7.39260        1.45040
C          7.16020       -7.78510        2.35380
S          7.25260       -9.40720        2.98450
C          8.44860       -9.19410        4.34690
C          7.83560       -8.49340        5.54190
Se         8.41230       -6.42550        2.68500
C          6.64650       -3.00690        1.12520
S          4.94230       -3.35970        0.96420
C         10.15400       -4.17130        1.47960
C         11.28930       -3.40470        1.60660
S         10.92050       -1.69590        1.43860
C         12.61620       -3.82320        1.80200
C         13.03030       -4.99650        2.38360
C         12.22550       -5.87900        3.25610
O         11.01900       -5.90340        3.41900
C         13.21110       -6.71700        3.97330
C         13.01530       -7.64740        4.98020
Cl        11.44820       -7.96690        5.60060
C         14.11720       -8.32150        5.50180
C         15.38650       -8.05310        5.02230
C         15.60150       -7.11450        4.01960
C         14.50820       -6.44710        3.49680
C         14.41270       -5.41680        2.46610
C         15.43500       -4.99580        1.65660
C         16.76390       -5.45760        1.75220
N         17.86220       -5.79050        1.78450
C         15.28720       -4.08770        0.58590
N         15.23930       -3.38220       -0.31850
H         -9.05190        6.56540       -1.80930
H        -14.09400        6.16800       -3.51010
H        -12.96160        1.64050       -1.53190
H        -16.30260        1.80630       -2.36060
H        -15.60580        0.23470       -4.16120
H        -13.44810        1.24700       -5.23990
H        -14.06880        3.60950       -6.28100
H        -16.60890        4.05480       -5.84450
H        -16.80100        1.43750       -6.19570
H        -17.67890        1.86310       -4.70520
H        -16.90640        4.10310       -3.37200
H         -6.56380        6.18630       -0.95450
H         -4.63340        6.96060       -2.10030
H         -3.39210        8.88870       -0.95660
H         -2.45160        7.35770        3.15080
H         -1.39960        8.68470        3.69980
H          0.60980        7.40490        2.95270
H         -0.31410        6.48120        4.14510
H         -0.42950        6.06780        2.42900
H         -7.50420        1.27150       -3.78180
H         -8.40960       -1.04420       -4.22920
H         -9.58800       -3.06730       -3.47210
H         -8.50490       -3.37030       -4.86140
H        -10.13020       -5.25590       -4.57380
H         -8.47160       -5.80160       -4.29310
H         -9.54460       -5.50370       -2.92350
H         -3.34910       -0.16550       -1.74390
H         -2.24180       -2.21240        2.98400
H         -2.06020       -4.57940        3.52690
H         -2.69490       -6.83770        3.59990
H         -1.07260       -6.54980        4.31240
H         -1.53990       -8.17720        3.77350
H         -0.31980       -5.32780       -0.30840
H         -0.54030       -2.94120       -0.86880
H         -4.01800       -1.84860        0.82380
H         -5.96260       -0.41810        1.33560
H         -5.21580        3.84650        3.35110
H         -5.04620        4.33490        1.63250
H         -6.61360        4.50390        2.45800
H         -3.33710        2.85450        2.16980
H         -1.42030        1.42610        1.71700
H          6.32290        1.92150       -1.56950
H          8.46260        0.87850       -2.15660
H          8.43040       -3.72770       -1.40750
H          9.99910       -3.98220       -2.20750
H          8.51480       -3.97070       -3.18260
H          6.50860       -2.89730       -2.59270
H          4.37470       -1.85240       -2.08060
H          3.08170        2.12640        0.74840
H          2.37530        4.45880        0.60310
H          0.44000        5.62650       -0.52410
H          1.49640        6.60140        0.55050
H          0.54150        7.39490       -0.71570
H          3.71560        4.60770       -3.45380
H          4.38830        2.23830       -3.31930
H          5.63010        0.17770        0.80840
H         10.38490        0.21780       -0.08130
H         10.48640        2.74560       -0.26730
H          6.21330        3.96930       -0.06980
H          6.42300        5.73390       -0.04890
H          6.28000        5.72420        2.44500
H          6.06100        3.96870        2.43320
H          4.82320        5.01600        1.72700
H          5.64630       -5.66340        0.27750
H          5.42310       -8.05200        1.12350
H          9.29630       -8.63390        3.94030
H          8.77060      -10.20390        4.59960
H          7.52080       -7.48420        5.27480
H          8.56920       -8.42130        6.34200
H          6.97110       -9.04420        5.90610
H         10.20470       -5.23990        1.38900
H         13.37730       -3.10480        1.52130
H         13.96930       -9.04930        6.28370
H         16.23030       -8.58030        5.44010
H         16.60190       -6.91530        3.67330
