173

C          2.02130       -2.67240        6.32840
C          1.13180       -3.45610        7.02300
C         -0.33570       -3.35000        7.01630
O         -1.04700       -2.84070        6.17070
C         -0.79350       -4.00010        8.26020
C         -2.09630       -4.06160        8.74730
C         -2.21430       -4.73100        9.94240
C         -1.11800       -5.29570       10.60770
C          0.17210       -5.25020       10.13340
C          0.31150       -4.57790        8.91740
C          1.49480       -4.36040        8.09060
C          2.69290       -5.01830        8.21940
C          3.02980       -5.86010        9.29730
N          3.37280       -6.53950       10.15770
C          3.66950       -5.05650        7.20950
N          4.45210       -5.22990        6.38560
C         -1.96910       -5.81130       11.74100
C         -2.30830       -7.32230       11.75660
C         -2.25450       -7.78720       10.32230
C         -3.29200       -7.25880        9.68660
C         -4.06610       -6.42730       10.67960
C         -3.83000       -7.24510       11.95960
C         -3.19180       -5.18810       10.99600
C          1.77410       -1.70340        5.34590
C          2.67950       -0.68670        4.96460
N          3.91660       -0.44170        5.51850
C          4.86220       -1.45910        5.71980
C          5.70120       -1.42040        6.83390
C          6.65640       -2.39540        7.01250
C          6.79460       -3.42670        6.08540
S          8.04970       -4.62020        6.39530
C          7.49790       -6.04820        5.41910
C          5.96630       -3.46010        4.96870
C          5.00590       -2.48650        4.79090
C          4.30180        0.89490        5.71330
C          5.59830        1.31490        5.43290
C          5.97160        2.62940        5.63260
C          5.04890        3.55130        6.10910
S          5.40190        5.25450        6.39620
C          7.14440        5.43100        5.91800
C          3.74890        3.13370        6.39230
C          3.37980        1.82230        6.20240
C          2.12060        0.14090        3.97490
S          2.70130        1.50550        3.07370
C          1.21450        1.55710        2.16690
C          0.32390        0.56790        2.53010
N         -0.92250        0.33950        1.91000
C         -0.98550       -0.38870        0.72090
C          0.08770       -0.44770       -0.16960
C         -0.04420       -1.07820       -1.38750
C         -1.23700       -1.69690       -1.74440
S         -1.32620       -2.37810       -3.37420
C         -3.04060       -2.96270       -3.50960
C         -2.26990       -1.74490       -0.81850
C         -2.13890       -1.10640        0.39790
C         -2.06440        0.91340        2.47800
C         -2.14390        1.13970        3.85230
C         -3.26440        1.72200        4.40260
C         -4.33700        2.09790        3.60020
S         -5.71820        2.84530        4.41540
C         -6.98880        2.93350        3.12080
C         -4.25540        1.90330        2.22840
C         -3.13050        1.32380        1.67720
C          0.85090       -0.24360        3.56180
S          0.25470       -1.59260        4.45040
C          1.05260        2.41320        1.00760
C          1.97950        2.41130       -0.01460
C          1.63490        2.84790       -1.29500
C          0.35970        3.28660       -1.57720
C         -0.52680        3.53450       -0.49730
N         -1.68050        4.19580       -0.70450
C         -2.42310        4.45630        0.33710
C         -2.03140        4.10120        1.64190
N         -0.92920        3.43830        1.87190
C         -0.16460        3.11970        0.81290
C         -0.12100        3.34230       -2.95630
C         -1.24080        2.53520       -3.28250
N         -1.85680        1.82140       -2.30940
C         -2.85970        1.07490       -2.64350
C         -3.30230        0.97670       -3.99600
O         -4.31640        0.15300       -4.24970
C         -4.76040        0.05380       -5.60310
C         -5.67070        1.20980       -5.98850
N         -2.71410        1.64590       -4.95570
C         -1.67500        2.44170       -4.62590
C         -0.99010        3.16090       -5.65200
C          0.07060        3.97480       -5.28050
C          0.50610        4.04880       -3.96060
C         -1.49370        3.02550       -6.98830
C         -0.86060        3.15730       -8.18250
C          0.60460        3.21940       -8.43830
O          1.50490        3.40340       -7.64820
C          0.76690        2.95120       -9.87970
C          1.97250        2.83520      -10.56860
C          1.82800        2.57350      -11.90920
C          0.57500        2.43460      -12.52320
C         -0.62110        2.55160      -11.85740
C         -0.49630        2.81900      -10.48990
C         -1.52220        3.00910       -9.47290
C         -2.86790        3.11380       -9.70200
C         -3.47500        2.97700      -10.96830
N         -4.03780        2.86770      -11.96300
C         -3.84090        3.41410       -8.72440
N         -4.70150        3.68030       -8.01170
C          1.18040        2.16160      -13.87700
C          1.20500        0.69440      -14.37300
C          1.21530       -0.17560      -13.14060
C          2.40040       -0.04210      -12.56020
C          3.21320        0.92090      -13.39000
C          2.68000        0.58690      -14.79230
C          2.57550        2.31880      -13.19380
H          3.06070       -2.74730        6.63390
H         -2.91380       -3.61210        8.20530
H          1.00860       -5.68770       10.65350
H         -1.72720       -5.42950       12.73110
H         -1.73570       -7.90620       12.47230
H         -1.45990       -8.38570        9.91660
H         -3.53730       -7.32740        8.64280
H         -5.09500       -6.19770       10.41460
H         -4.12050       -6.72090       12.86920
H         -4.30890       -8.22270       11.92920
H         -3.75210       -4.40380       11.50200
H          5.58910       -0.62590        7.55710
H          7.30090       -2.37660        7.87780
H          8.05140       -6.90100        5.79950
H          6.43360       -6.18470        5.58200
H          7.72820       -5.89980        4.36780
H          6.06630       -4.23690        4.22980
H          4.36240       -2.51340        3.92360
H          6.31840        0.60730        5.05030
H          6.98370        2.92020        5.40320
H          7.38480        6.47750        6.07720
H          7.76990        4.80920        6.55200
H          7.26890        5.18010        4.86870
H          3.03720        3.85160        6.76950
H          2.37440        1.50510        6.43660
H          1.02930        0.01240        0.07730
H          0.78020       -1.08360       -2.08440
H         -3.22040       -3.76040       -2.79470
H         -3.72620       -2.13280       -3.36380
H         -3.13610       -3.34860       -4.52000
H         -3.18500       -2.27530       -1.03000
H         -2.94810       -1.16150        1.11040
H         -1.32930        0.85460        4.49760
H         -3.32220        1.88820        5.46730
H         -7.89170        3.27260        3.61930
H         -6.70090        3.65020        2.35680
H         -7.14850        1.94690        2.69580
H         -5.05150        2.21490        1.57060
H         -3.06310        1.22230        0.60400
H          2.94770        1.95920        0.14950
H          2.34330        2.72500       -2.10100
H         -3.34110        4.99850        0.15300
H         -2.61150        4.38710        2.50810
H         -3.35260        0.50770       -1.86690
H         -3.88690        0.01430       -6.26120
H         -5.29960       -0.89600       -5.64520
H         -6.04990        1.05550       -6.99430
H         -6.51000        1.27180       -5.30000
H         -5.12600        2.14980       -5.96750
H          0.57150        4.56770       -6.02670
H          1.34570        4.68250       -3.71680
H         -2.52840        2.70370       -7.00940
H          2.91520        2.94890      -10.05660
H         -1.57660        2.43910      -12.34190
H          0.91690        2.86200      -14.66700
H          0.45290        0.45860      -15.12100
H          0.36630       -0.73710      -12.79690
H          2.73900       -0.46930      -11.63450
H          4.28970        0.89100      -13.24320
H          2.95290       -0.41550      -15.11870
H          2.96960        1.31260      -15.55110
H          3.22360        3.12270      -13.53730
