
  xtb     02082222313D
 energy: -309.747752190664 gnorm: 0.000417839931 xtb: 6.4.1 (unknown)
179199  0     0  0            999 V2000
   -2.7842   -5.6860    5.6042 C   0  0  0  0  0  0  0  0  0  0  0  0
   -4.0783   -6.0893    5.5389 C   0  0  0  0  0  0  0  0  0  0  0  0
   -4.5999   -7.0941    6.5071 C   0  0  0  0  0  0  0  0  0  0  0  0
   -4.0580   -7.4690    7.5222 O   0  0  0  0  0  0  0  0  0  0  0  0
   -5.8811   -7.5564    5.9389 C   0  0  0  0  0  0  0  0  0  0  0  0
   -6.7035   -8.5712    6.4233 C   0  0  0  0  0  0  0  0  0  0  0  0
   -7.8314   -8.7879    5.6683 C   0  0  0  0  0  0  0  0  0  0  0  0
   -8.1227   -8.0536    4.5104 C   0  0  0  0  0  0  0  0  0  0  0  0
   -7.3255   -7.0456    4.0241 C   0  0  0  0  0  0  0  0  0  0  0  0
   -6.1763   -6.8053    4.7812 C   0  0  0  0  0  0  0  0  0  0  0  0
   -5.1407   -5.7934    4.6036 C   0  0  0  0  0  0  0  0  0  0  0  0
   -5.2748   -4.6549    3.8527 C   0  0  0  0  0  0  0  0  0  0  0  0
   -6.3334   -4.3969    2.9631 C   0  0  0  0  0  0  0  0  0  0  0  0
   -7.1306   -4.1139    2.1849 N   0  0  0  0  0  0  0  0  0  0  0  0
   -4.4040   -3.5475    3.8978 C   0  0  0  0  0  0  0  0  0  0  0  0
   -3.7776   -2.5848    3.8981 N   0  0  0  0  0  0  0  0  0  0  0  0
   -9.3984   -8.8143    4.2518 C   0  0  0  0  0  0  0  0  0  0  0  0
   -9.3805   -9.8980    3.1456 C   0  0  0  0  0  0  0  0  0  0  0  0
   -7.9550  -10.3806    3.0410 C   0  0  0  0  0  0  0  0  0  0  0  0
   -7.6814  -11.0753    4.1373 C   0  0  0  0  0  0  0  0  0  0  0  0
   -8.9169  -11.0747    5.0032 C   0  0  0  0  0  0  0  0  0  0  0  0
  -10.0071  -11.0687    3.9196 C   0  0  0  0  0  0  0  0  0  0  0  0
   -9.0758   -9.6314    5.5424 C   0  0  0  0  0  0  0  0  0  0  0  0
   -2.0285   -4.9888    4.6103 C   0  0  0  0  0  0  0  0  0  0  0  0
   -1.0326   -4.0881    4.9711 C   0  0  0  0  0  0  0  0  0  0  0  0
   -0.3951   -3.2714    4.0493 C   0  0  0  0  0  0  0  0  0  0  0  0
    0.3786   -2.2924    4.5637 F   0  0  0  0  0  0  0  0  0  0  0  0
   -0.5945   -3.3376    2.6690 C   0  0  0  0  0  0  0  0  0  0  0  0
   -1.5350   -4.3307    2.2740 C   0  0  0  0  0  0  0  0  0  0  0  0
   -2.2620   -5.1294    3.2171 C   0  0  0  0  0  0  0  0  0  0  0  0
   -3.1207   -5.9483    2.6106 N   0  0  0  0  0  0  0  0  0  0  0  0
   -3.0323   -5.7257    1.0166 S   0  0  0  0  0  0  0  0  0  0  0  0
   -1.8937   -4.5894    1.0210 N   0  0  0  0  0  0  0  0  0  0  0  0
   -0.1144   -2.4202    1.6941 C   0  0  0  0  0  0  0  0  0  0  0  0
    0.8990   -1.4521    1.7574 C   0  0  0  0  0  0  0  0  0  0  0  0
    1.9894   -1.4811    2.5927 N   0  0  0  0  0  0  0  0  0  0  0  0
    2.5618   -2.6907    3.0131 C   0  0  0  0  0  0  0  0  0  0  0  0
    2.4824   -3.8436    2.2374 C   0  0  0  0  0  0  0  0  0  0  0  0
    3.0382   -5.0307    2.6739 C   0  0  0  0  0  0  0  0  0  0  0  0
    3.6946   -5.0863    3.8955 C   0  0  0  0  0  0  0  0  0  0  0  0
    4.4353   -6.5417    4.5621 S   0  0  0  0  0  0  0  0  0  0  0  0
    4.0073   -7.8406    3.3685 C   0  0  0  0  0  0  0  0  0  0  0  0
    3.7960   -3.9283    4.6663 C   0  0  0  0  0  0  0  0  0  0  0  0
    3.2382   -2.7481    4.2339 C   0  0  0  0  0  0  0  0  0  0  0  0
    2.6538   -0.2743    2.8688 C   0  0  0  0  0  0  0  0  0  0  0  0
    1.9268    0.8522    3.2525 C   0  0  0  0  0  0  0  0  0  0  0  0
    2.5727    2.0477    3.4771 C   0  0  0  0  0  0  0  0  0  0  0  0
    3.9537    2.1408    3.3258 C   0  0  0  0  0  0  0  0  0  0  0  0
    4.6774    3.7295    3.5984 S   0  0  0  0  0  0  0  0  0  0  0  0
    6.4502    3.3719    3.7709 C   0  0  0  0  0  0  0  0  0  0  0  0
    4.6830    1.0174    2.9593 C   0  0  0  0  0  0  0  0  0  0  0  0
    4.0360   -0.1810    2.7356 C   0  0  0  0  0  0  0  0  0  0  0  0
    0.7319   -0.4948    0.7268 C   0  0  0  0  0  0  0  0  0  0  0  0
    1.5094    0.9985    0.3253 S   0  0  0  0  0  0  0  0  0  0  0  0
    0.4144    1.2268   -1.0449 C   0  0  0  0  0  0  0  0  0  0  0  0
   -0.3851    0.0890   -1.2692 C   0  0  0  0  0  0  0  0  0  0  0  0
   -1.1209   -0.2322   -2.3807 N   0  0  0  0  0  0  0  0  0  0  0  0
   -2.1191   -1.2293   -2.2406 C   0  0  0  0  0  0  0  0  0  0  0  0
   -2.0159   -2.4163   -2.9623 C   0  0  0  0  0  0  0  0  0  0  0  0
   -2.9434   -3.4158   -2.7768 C   0  0  0  0  0  0  0  0  0  0  0  0
   -3.9960   -3.2421   -1.8795 C   0  0  0  0  0  0  0  0  0  0  0  0
   -5.0917   -4.6080   -1.6716 S   0  0  0  0  0  0  0  0  0  0  0  0
   -6.5995   -3.8509   -0.9997 C   0  0  0  0  0  0  0  0  0  0  0  0
   -4.1219   -2.0460   -1.1861 C   0  0  0  0  0  0  0  0  0  0  0  0
   -3.1863   -1.0451   -1.3679 C   0  0  0  0  0  0  0  0  0  0  0  0
   -0.8672    0.2568   -3.6671 C   0  0  0  0  0  0  0  0  0  0  0  0
    0.3988    0.6873   -4.0570 C   0  0  0  0  0  0  0  0  0  0  0  0
    0.5952    1.2856   -5.2841 C   0  0  0  0  0  0  0  0  0  0  0  0
   -0.4745    1.4437   -6.1570 C   0  0  0  0  0  0  0  0  0  0  0  0
   -0.3619    2.3017   -7.6884 S   0  0  0  0  0  0  0  0  0  0  0  0
    1.2271    3.1675   -7.5658 C   0  0  0  0  0  0  0  0  0  0  0  0
   -1.7178    0.9087   -5.8188 C   0  0  0  0  0  0  0  0  0  0  0  0
   -1.9152    0.3230   -4.5909 C   0  0  0  0  0  0  0  0  0  0  0  0
   -0.2551   -0.8199   -0.1897 C   0  0  0  0  0  0  0  0  0  0  0  0
   -1.0467   -2.3055    0.2109 S   0  0  0  0  0  0  0  0  0  0  0  0
    0.4847    2.4829   -1.6926 C   0  0  0  0  0  0  0  0  0  0  0  0
   -0.4903    3.0642   -2.5365 C   0  0  0  0  0  0  0  0  0  0  0  0
   -1.8314    2.6487   -2.7277 C   0  0  0  0  0  0  0  0  0  0  0  0
   -2.4998    3.3835   -3.6577 C   0  0  0  0  0  0  0  0  0  0  0  0
   -3.8523    3.1251   -4.1393 C   0  0  0  0  0  0  0  0  0  0  0  0
   -4.5622    2.2437   -3.7126 O   0  0  0  0  0  0  0  0  0  0  0  0
   -4.1885    3.9705   -5.1189 O   0  0  0  0  0  0  0  0  0  0  0  0
   -5.4500    3.7633   -5.7501 C   0  0  0  0  0  0  0  0  0  0  0  0
   -5.3641    2.6652   -6.8010 C   0  0  0  0  0  0  0  0  0  0  0  0
   -1.5231    4.6452   -4.3463 S   0  0  0  0  0  0  0  0  0  0  0  0
   -0.2007    4.2250   -3.3024 C   0  0  0  0  0  0  0  0  0  0  0  0
    0.9922    4.9642   -3.2326 C   0  0  0  0  0  0  0  0  0  0  0  0
    1.8752    4.4981   -2.2263 C   0  0  0  0  0  0  0  0  0  0  0  0
    1.6214    3.3009   -1.4965 C   0  0  0  0  0  0  0  0  0  0  0  0
    2.6282    3.1377   -0.6301 N   0  0  0  0  0  0  0  0  0  0  0  0
    3.3967    4.1695   -0.8207 N   0  0  0  0  0  0  0  0  0  0  0  0
    4.6025    4.3701   -0.0705 C   0  0  0  0  0  0  0  0  0  0  0  0
    5.5643    3.2097   -0.2932 C   0  0  0  0  0  0  0  0  0  0  0  0
    3.0174    5.0107   -1.7459 N   0  0  0  0  0  0  0  0  0  0  0  0
    1.1699    6.1309   -4.0151 C   0  0  0  0  0  0  0  0  0  0  0  0
    2.2826    6.8950   -4.2214 C   0  0  0  0  0  0  0  0  0  0  0  0
    2.1292    8.3137   -4.6382 C   0  0  0  0  0  0  0  0  0  0  0  0
    1.1373    8.8393   -5.0921 O   0  0  0  0  0  0  0  0  0  0  0  0
    3.4273    8.9505   -4.3278 C   0  0  0  0  0  0  0  0  0  0  0  0
    3.7446   10.3037   -4.4042 C   0  0  0  0  0  0  0  0  0  0  0  0
    5.0256   10.6023   -4.0038 C   0  0  0  0  0  0  0  0  0  0  0  0
    5.9309    9.6279   -3.5641 C   0  0  0  0  0  0  0  0  0  0  0  0
    5.6375    8.2859   -3.5000 C   0  0  0  0  0  0  0  0  0  0  0  0
    4.3379    7.9638   -3.8952 C   0  0  0  0  0  0  0  0  0  0  0  0
    3.6784    6.6640   -3.9694 C   0  0  0  0  0  0  0  0  0  0  0  0
    4.3034    5.4403   -4.0019 C   0  0  0  0  0  0  0  0  0  0  0  0
    5.6532    5.2176   -3.6854 C   0  0  0  0  0  0  0  0  0  0  0  0
    6.7301    4.9560   -3.3793 N   0  0  0  0  0  0  0  0  0  0  0  0
    3.6386    4.2713   -4.4102 C   0  0  0  0  0  0  0  0  0  0  0  0
    3.1448    3.3077   -4.7955 N   0  0  0  0  0  0  0  0  0  0  0  0
    7.0132   10.6425   -3.2912 C   0  0  0  0  0  0  0  0  0  0  0  0
    7.2608   11.0525   -1.8180 C   0  0  0  0  0  0  0  0  0  0  0  0
    5.9576   10.8425   -1.0879 C   0  0  0  0  0  0  0  0  0  0  0  0
    5.1039   11.7660   -1.5091 C   0  0  0  0  0  0  0  0  0  0  0  0
    5.8145   12.6166   -2.5324 C   0  0  0  0  0  0  0  0  0  0  0  0
    7.2436   12.5821   -1.9676 C   0  0  0  0  0  0  0  0  0  0  0  0
    6.0063   11.7279   -3.7864 C   0  0  0  0  0  0  0  0  0  0  0  0
   -2.2578   -5.9496    6.5160 H   0  0  0  0  0  0  0  0  0  0  0  0
   -6.4455   -9.1139    7.3192 H   0  0  0  0  0  0  0  0  0  0  0  0
   -7.5547   -6.4904    3.1293 H   0  0  0  0  0  0  0  0  0  0  0  0
  -10.3112   -8.2220    4.2378 H   0  0  0  0  0  0  0  0  0  0  0  0
   -9.8565   -9.6007    2.2149 H   0  0  0  0  0  0  0  0  0  0  0  0
   -7.2941  -10.1260    2.2333 H   0  0  0  0  0  0  0  0  0  0  0  0
   -6.7464  -11.5172    4.4279 H   0  0  0  0  0  0  0  0  0  0  0  0
   -8.9711  -11.8494    5.7635 H   0  0  0  0  0  0  0  0  0  0  0  0
  -11.0018  -10.8505    4.3059 H   0  0  0  0  0  0  0  0  0  0  0  0
  -10.0312  -11.9912    3.3414 H   0  0  0  0  0  0  0  0  0  0  0  0
   -9.7787   -9.5728    6.3712 H   0  0  0  0  0  0  0  0  0  0  0  0
   -0.8179   -3.9220    6.0158 H   0  0  0  0  0  0  0  0  0  0  0  0
    1.9895   -3.8188    1.2772 H   0  0  0  0  0  0  0  0  0  0  0  0
    2.9563   -5.9013    2.0434 H   0  0  0  0  0  0  0  0  0  0  0  0
    2.9279   -7.9167    3.2754 H   0  0  0  0  0  0  0  0  0  0  0  0
    4.4748   -7.6368    2.4095 H   0  0  0  0  0  0  0  0  0  0  0  0
    4.4074   -8.7605    3.7836 H   0  0  0  0  0  0  0  0  0  0  0  0
    4.3090   -3.9738    5.6145 H   0  0  0  0  0  0  0  0  0  0  0  0
    3.2995   -1.8630    4.8477 H   0  0  0  0  0  0  0  0  0  0  0  0
    0.8584    0.7756    3.3823 H   0  0  0  0  0  0  0  0  0  0  0  0
    2.0152    2.9225    3.7733 H   0  0  0  0  0  0  0  0  0  0  0  0
    6.9065    4.3014    4.0966 H   0  0  0  0  0  0  0  0  0  0  0  0
    6.8727    3.0708    2.8170 H   0  0  0  0  0  0  0  0  0  0  0  0
    6.5936    2.6043    4.5252 H   0  0  0  0  0  0  0  0  0  0  0  0
    5.7522    1.0644    2.8299 H   0  0  0  0  0  0  0  0  0  0  0  0
    4.6045   -1.0498    2.4384 H   0  0  0  0  0  0  0  0  0  0  0  0
   -1.1968   -2.5483   -3.6532 H   0  0  0  0  0  0  0  0  0  0  0  0
   -2.8611   -4.3469   -3.3155 H   0  0  0  0  0  0  0  0  0  0  0  0
   -6.4892   -3.6359    0.0595 H   0  0  0  0  0  0  0  0  0  0  0  0
   -7.3830   -4.5901   -1.1346 H   0  0  0  0  0  0  0  0  0  0  0  0
   -6.8328   -2.9555   -1.5671 H   0  0  0  0  0  0  0  0  0  0  0  0
   -4.9307   -1.8902   -0.4906 H   0  0  0  0  0  0  0  0  0  0  0  0
   -3.2761   -0.1221   -0.8148 H   0  0  0  0  0  0  0  0  0  0  0  0
    1.2422    0.5675   -3.3952 H   0  0  0  0  0  0  0  0  0  0  0  0
    1.5811    1.6398   -5.5314 H   0  0  0  0  0  0  0  0  0  0  0  0
    2.0486    2.4634   -7.6597 H   0  0  0  0  0  0  0  0  0  0  0  0
    1.2458    3.8690   -8.3942 H   0  0  0  0  0  0  0  0  0  0  0  0
    1.2818    3.7015   -6.6219 H   0  0  0  0  0  0  0  0  0  0  0  0
   -2.5326    0.9899   -6.5214 H   0  0  0  0  0  0  0  0  0  0  0  0
   -2.8951   -0.0365   -4.3173 H   0  0  0  0  0  0  0  0  0  0  0  0
   -2.3175    1.8743   -2.1659 H   0  0  0  0  0  0  0  0  0  0  0  0
   -6.1908    3.5022   -4.9868 H   0  0  0  0  0  0  0  0  0  0  0  0
   -5.7005    4.7246   -6.2024 H   0  0  0  0  0  0  0  0  0  0  0  0
   -4.5763    2.8928   -7.5155 H   0  0  0  0  0  0  0  0  0  0  0  0
   -5.1470    1.7127   -6.3231 H   0  0  0  0  0  0  0  0  0  0  0  0
   -6.3114    2.5871   -7.3266 H   0  0  0  0  0  0  0  0  0  0  0  0
    5.0318    5.3130   -0.4126 H   0  0  0  0  0  0  0  0  0  0  0  0
    4.3424    4.4437    0.9903 H   0  0  0  0  0  0  0  0  0  0  0  0
    5.0893    2.2775    0.0036 H   0  0  0  0  0  0  0  0  0  0  0  0
    5.8520    3.1480   -1.3402 H   0  0  0  0  0  0  0  0  0  0  0  0
    6.4620    3.3617    0.2988 H   0  0  0  0  0  0  0  0  0  0  0  0
    0.2568    6.5357   -4.4449 H   0  0  0  0  0  0  0  0  0  0  0  0
    3.0207   11.0255   -4.7488 H   0  0  0  0  0  0  0  0  0  0  0  0
    6.3385    7.5404   -3.1604 H   0  0  0  0  0  0  0  0  0  0  0  0
    7.9403   10.5151   -3.8469 H   0  0  0  0  0  0  0  0  0  0  0  0
    8.1418   10.6035   -1.3666 H   0  0  0  0  0  0  0  0  0  0  0  0
    5.7766   10.0335   -0.4045 H   0  0  0  0  0  0  0  0  0  0  0  0
    4.0683   11.8821   -1.2479 H   0  0  0  0  0  0  0  0  0  0  0  0
    5.3788   13.5921   -2.7320 H   0  0  0  0  0  0  0  0  0  0  0  0
    7.9937   12.9589   -2.6616 H   0  0  0  0  0  0  0  0  0  0  0  0
    7.3320   13.0999   -1.0135 H   0  0  0  0  0  0  0  0  0  0  0  0
    6.2750   12.3066   -4.6682 H   0  0  0  0  0  0  0  0  0  0  0  0
  1  2  2  0  0  0  0
  2  3  1  0  0  0  0
  3  4  2  0  0  0  0
  3  5  1  0  0  0  0
  5  6  2  0  0  0  0
  6  7  1  0  0  0  0
  7  8  2  0  0  0  0
  8  9  1  0  0  0  0
  9 10  2  0  0  0  0
 10 11  1  0  0  0  0
 11 12  2  0  0  0  0
 12 13  1  0  0  0  0
 13 14  3  0  0  0  0
 12 15  1  0  0  0  0
 15 16  3  0  0  0  0
  8 17  1  0  0  0  0
 17 18  1  0  0  0  0
 18 19  1  0  0  0  0
 19 20  2  0  0  0  0
 20 21  1  0  0  0  0
 21 22  1  0  0  0  0
 21 23  1  0  0  0  0
  1 24  1  0  0  0  0
 24 25  2  0  0  0  0
 25 26  1  0  0  0  0
 26 27  1  0  0  0  0
 26 28  2  0  0  0  0
 28 29  1  0  0  0  0
 29 30  1  0  0  0  0
 30 31  2  0  0  0  0
 31 32  1  0  0  0  0
 32 33  1  0  0  0  0
 28 34  1  0  0  0  0
 34 35  2  0  0  0  0
 35 36  1  0  0  0  0
 36 37  1  0  0  0  0
 37 38  2  0  0  0  0
 38 39  1  0  0  0  0
 39 40  2  0  0  0  0
 40 41  1  0  0  0  0
 41 42  1  0  0  0  0
 40 43  1  0  0  0  0
 43 44  2  0  0  0  0
 36 45  1  0  0  0  0
 45 46  2  0  0  0  0
 46 47  1  0  0  0  0
 47 48  2  0  0  0  0
 48 49  1  0  0  0  0
 49 50  1  0  0  0  0
 48 51  1  0  0  0  0
 51 52  2  0  0  0  0
 35 53  1  0  0  0  0
 53 54  1  0  0  0  0
 54 55  1  0  0  0  0
 55 56  2  0  0  0  0
 56 57  1  0  0  0  0
 57 58  1  0  0  0  0
 58 59  2  0  0  0  0
 59 60  1  0  0  0  0
 60 61  2  0  0  0  0
 61 62  1  0  0  0  0
 62 63  1  0  0  0  0
 61 64  1  0  0  0  0
 64 65  2  0  0  0  0
 57 66  1  0  0  0  0
 66 67  2  0  0  0  0
 67 68  1  0  0  0  0
 68 69  2  0  0  0  0
 69 70  1  0  0  0  0
 70 71  1  0  0  0  0
 69 72  1  0  0  0  0
 72 73  2  0  0  0  0
 56 74  1  0  0  0  0
 74 75  1  0  0  0  0
 55 76  1  0  0  0  0
 76 77  2  0  0  0  0
 77 78  1  0  0  0  0
 78 79  2  0  0  0  0
 79 80  1  0  0  0  0
 80 81  2  0  0  0  0
 80 82  1  0  0  0  0
 82 83  1  0  0  0  0
 83 84  1  0  0  0  0
 79 85  1  0  0  0  0
 85 86  1  0  0  0  0
 86 87  2  0  0  0  0
 87 88  1  0  0  0  0
 88 89  1  0  0  0  0
 89 90  2  0  0  0  0
 90 91  1  0  0  0  0
 91 92  1  0  0  0  0
 92 93  1  0  0  0  0
 91 94  1  0  0  0  0
 87 95  1  0  0  0  0
 95 96  2  0  0  0  0
 96 97  1  0  0  0  0
 97 98  2  0  0  0  0
 97 99  1  0  0  0  0
 99100  2  0  0  0  0
100101  1  0  0  0  0
101102  2  0  0  0  0
102103  1  0  0  0  0
103104  2  0  0  0  0
104105  1  0  0  0  0
105106  2  0  0  0  0
106107  1  0  0  0  0
107108  3  0  0  0  0
106109  1  0  0  0  0
109110  3  0  0  0  0
102111  1  0  0  0  0
111112  1  0  0  0  0
112113  1  0  0  0  0
113114  2  0  0  0  0
114115  1  0  0  0  0
115116  1  0  0  0  0
115117  1  0  0  0  0
 11  2  1  0  0  0  0
 23 17  1  0  0  0  0
 30 24  1  0  0  0  0
 75 34  1  0  0  0  0
 89 76  1  0  0  0  0
105 96  1  0  0  0  0
117111  1  0  0  0  0
 10  5  1  0  0  0  0
 22 18  1  0  0  0  0
 33 29  2  0  0  0  0
 44 37  1  0  0  0  0
 52 45  1  0  0  0  0
 74 53  2  0  0  0  0
 86 77  1  0  0  0  0
 94 88  2  0  0  0  0
104 99  1  0  0  0  0
116112  1  0  0  0  0
 23  7  1  0  0  0  0
 65 58  1  0  0  0  0
 73 66  1  0  0  0  0
117101  1  0  0  0  0
  1118  1  0  0  0  0
  6119  1  0  0  0  0
  9120  1  0  0  0  0
 17121  1  0  0  0  0
 18122  1  0  0  0  0
 19123  1  0  0  0  0
 20124  1  0  0  0  0
 21125  1  0  0  0  0
 22126  1  0  0  0  0
 22127  1  0  0  0  0
 23128  1  0  0  0  0
 25129  1  0  0  0  0
 38130  1  0  0  0  0
 39131  1  0  0  0  0
 42132  1  0  0  0  0
 42133  1  0  0  0  0
 42134  1  0  0  0  0
 43135  1  0  0  0  0
 44136  1  0  0  0  0
 46137  1  0  0  0  0
 47138  1  0  0  0  0
 50139  1  0  0  0  0
 50140  1  0  0  0  0
 50141  1  0  0  0  0
 51142  1  0  0  0  0
 52143  1  0  0  0  0
 59144  1  0  0  0  0
 60145  1  0  0  0  0
 63146  1  0  0  0  0
 63147  1  0  0  0  0
 63148  1  0  0  0  0
 64149  1  0  0  0  0
 65150  1  0  0  0  0
 67151  1  0  0  0  0
 68152  1  0  0  0  0
 71153  1  0  0  0  0
 71154  1  0  0  0  0
 71155  1  0  0  0  0
 72156  1  0  0  0  0
 73157  1  0  0  0  0
 78158  1  0  0  0  0
 83159  1  0  0  0  0
 83160  1  0  0  0  0
 84161  1  0  0  0  0
 84162  1  0  0  0  0
 84163  1  0  0  0  0
 92164  1  0  0  0  0
 92165  1  0  0  0  0
 93166  1  0  0  0  0
 93167  1  0  0  0  0
 93168  1  0  0  0  0
 95169  1  0  0  0  0
100170  1  0  0  0  0
103171  1  0  0  0  0
111172  1  0  0  0  0
112173  1  0  0  0  0
113174  1  0  0  0  0
114175  1  0  0  0  0
115176  1  0  0  0  0
116177  1  0  0  0  0
116178  1  0  0  0  0
117179  1  0  0  0  0
M  END
