
  xtb     02062202413D
 energy: -422.871716695194 gnorm: 0.000240881140 xtb: 6.4.1 (unknown)
261288  0     0  0            999 V2000
   -6.9723    3.9401   -3.4431 C   0  0  0  0  0  0  0  0  0  0  0  0
   -7.2062    4.8041   -2.4001 C   0  0  0  0  0  0  0  0  0  0  0  0
   -6.7137    4.6983   -1.0176 C   0  0  0  0  0  0  0  0  0  0  0  0
   -6.4580    3.6926   -0.3800 O   0  0  0  0  0  0  0  0  0  0  0  0
   -6.6486    6.0819   -0.5092 C   0  0  0  0  0  0  0  0  0  0  0  0
   -6.0657    6.5166    0.6784 C   0  0  0  0  0  0  0  0  0  0  0  0
   -6.1771    7.8704    0.8886 C   0  0  0  0  0  0  0  0  0  0  0  0
   -6.8211    8.7297   -0.0109 C   0  0  0  0  0  0  0  0  0  0  0  0
   -7.3893    8.3148   -1.1931 C   0  0  0  0  0  0  0  0  0  0  0  0
   -7.2821    6.9419   -1.4287 C   0  0  0  0  0  0  0  0  0  0  0  0
   -7.7483    6.1361   -2.5540 C   0  0  0  0  0  0  0  0  0  0  0  0
   -8.6429    6.5321   -3.5167 C   0  0  0  0  0  0  0  0  0  0  0  0
   -9.1359    7.8442   -3.6524 C   0  0  0  0  0  0  0  0  0  0  0  0
   -9.5593    8.8989   -3.8186 N   0  0  0  0  0  0  0  0  0  0  0  0
   -9.2865    5.6350   -4.3872 C   0  0  0  0  0  0  0  0  0  0  0  0
   -9.9198    4.9425   -5.0508 N   0  0  0  0  0  0  0  0  0  0  0  0
   -6.5651    9.9460    0.8446 C   0  0  0  0  0  0  0  0  0  0  0  0
   -7.7570   10.4679    1.6750 C   0  0  0  0  0  0  0  0  0  0  0  0
   -7.1086   11.3231    2.7395 C   0  0  0  0  0  0  0  0  0  0  0  0
   -6.4920   10.5115    3.5891 C   0  0  0  0  0  0  0  0  0  0  0  0
   -6.7140    9.0941    3.1133 C   0  0  0  0  0  0  0  0  0  0  0  0
   -8.1185    9.2342    2.5123 C   0  0  0  0  0  0  0  0  0  0  0  0
   -5.8418    8.9877    1.8448 C   0  0  0  0  0  0  0  0  0  0  0  0
   -6.3119    2.7042   -3.4270 C   0  0  0  0  0  0  0  0  0  0  0  0
   -5.6769    2.0937   -4.5341 C   0  0  0  0  0  0  0  0  0  0  0  0
   -5.6457    2.5852   -5.8196 N   0  0  0  0  0  0  0  0  0  0  0  0
   -4.4524    2.5006   -6.5547 C   0  0  0  0  0  0  0  0  0  0  0  0
   -4.4782    2.1938   -7.9120 C   0  0  0  0  0  0  0  0  0  0  0  0
   -3.3112    2.1585   -8.6492 C   0  0  0  0  0  0  0  0  0  0  0  0
   -2.0942    2.4256   -8.0372 C   0  0  0  0  0  0  0  0  0  0  0  0
   -0.5441    2.4235   -8.8842 S   0  0  0  0  0  0  0  0  0  0  0  0
   -0.9961    2.2408  -10.6323 C   0  0  0  0  0  0  0  0  0  0  0  0
   -2.0606    2.7119   -6.6734 C   0  0  0  0  0  0  0  0  0  0  0  0
   -3.2245    2.7503   -5.9401 C   0  0  0  0  0  0  0  0  0  0  0  0
   -6.7959    3.0888   -6.4466 C   0  0  0  0  0  0  0  0  0  0  0  0
   -6.7013    4.1789   -7.3127 C   0  0  0  0  0  0  0  0  0  0  0  0
   -7.8239    4.6522   -7.9533 C   0  0  0  0  0  0  0  0  0  0  0  0
   -9.0641    4.0537   -7.7407 C   0  0  0  0  0  0  0  0  0  0  0  0
  -10.4368    4.7210   -8.6160 S   0  0  0  0  0  0  0  0  0  0  0  0
  -11.8521    4.1837   -7.6135 C   0  0  0  0  0  0  0  0  0  0  0  0
   -9.1595    2.9640   -6.8821 C   0  0  0  0  0  0  0  0  0  0  0  0
   -8.0357    2.4886   -6.2398 C   0  0  0  0  0  0  0  0  0  0  0  0
   -4.9702    0.9446   -4.1359 C   0  0  0  0  0  0  0  0  0  0  0  0
   -3.9594   -0.2097   -4.9399 S   0  0  0  0  0  0  0  0  0  0  0  0
   -3.6789   -1.0777   -3.4313 C   0  0  0  0  0  0  0  0  0  0  0  0
   -4.4037   -0.5288   -2.3822 C   0  0  0  0  0  0  0  0  0  0  0  0
   -4.4634   -0.9509   -1.0562 N   0  0  0  0  0  0  0  0  0  0  0  0
   -4.4866    0.0808   -0.0947 C   0  0  0  0  0  0  0  0  0  0  0  0
   -3.5253    1.0886   -0.1524 C   0  0  0  0  0  0  0  0  0  0  0  0
   -3.5886    2.1571    0.7159 C   0  0  0  0  0  0  0  0  0  0  0  0
   -4.6064    2.2299    1.6603 C   0  0  0  0  0  0  0  0  0  0  0  0
   -4.6414    3.6360    2.7267 S   0  0  0  0  0  0  0  0  0  0  0  0
   -6.4110    3.7652    3.1252 C   0  0  0  0  0  0  0  0  0  0  0  0
   -5.5380    1.2053    1.7506 C   0  0  0  0  0  0  0  0  0  0  0  0
   -5.4832    0.1423    0.8736 C   0  0  0  0  0  0  0  0  0  0  0  0
   -4.6864   -2.2724   -0.6773 C   0  0  0  0  0  0  0  0  0  0  0  0
   -4.3518   -2.6883    0.6153 C   0  0  0  0  0  0  0  0  0  0  0  0
   -4.5407   -3.9956    0.9975 C   0  0  0  0  0  0  0  0  0  0  0  0
   -5.0505   -4.9281    0.0996 C   0  0  0  0  0  0  0  0  0  0  0  0
   -5.2762   -6.5792    0.6885 S   0  0  0  0  0  0  0  0  0  0  0  0
   -5.2007   -7.5683   -0.8302 C   0  0  0  0  0  0  0  0  0  0  0  0
   -5.3816   -4.5246   -1.1855 C   0  0  0  0  0  0  0  0  0  0  0  0
   -5.2013   -3.2106   -1.5694 C   0  0  0  0  0  0  0  0  0  0  0  0
   -5.1149    0.6268   -2.7940 C   0  0  0  0  0  0  0  0  0  0  0  0
   -6.0683    1.7798   -1.9461 S   0  0  0  0  0  0  0  0  0  0  0  0
   -2.6615   -2.0984   -3.4156 C   0  0  0  0  0  0  0  0  0  0  0  0
   -2.1217   -2.5526   -2.2033 C   0  0  0  0  0  0  0  0  0  0  0  0
   -1.0147   -3.3529   -2.2280 C   0  0  0  0  0  0  0  0  0  0  0  0
   -0.2563   -3.9070   -1.0494 C   0  0  0  0  0  0  0  0  0  0  0  0
   -0.3540   -3.1108    0.2212 C   0  0  0  0  0  0  0  0  0  0  0  0
    0.0412   -1.8175    0.4747 C   0  0  0  0  0  0  0  0  0  0  0  0
   -0.2172   -1.2494    1.7160 C   0  0  0  0  0  0  0  0  0  0  0  0
   -0.8745   -1.9751    2.7066 C   0  0  0  0  0  0  0  0  0  0  0  0
   -1.1541   -1.5243    3.9623 O   0  0  0  0  0  0  0  0  0  0  0  0
   -1.0488   -0.1445    4.2580 C   0  0  0  0  0  0  0  0  0  0  0  0
   -2.1561    0.6762    3.6062 C   0  0  0  0  0  0  0  0  0  0  0  0
   -1.2671   -3.2924    2.4555 C   0  0  0  0  0  0  0  0  0  0  0  0
   -1.0039   -3.8519    1.2226 C   0  0  0  0  0  0  0  0  0  0  0  0
   -1.2982   -5.1766    0.7015 C   0  0  0  0  0  0  0  0  0  0  0  0
   -1.8621   -6.2799    1.3206 C   0  0  0  0  0  0  0  0  0  0  0  0
   -2.0096   -7.4524    0.5849 C   0  0  0  0  0  0  0  0  0  0  0  0
   -2.5442   -8.6130    1.0479 O   0  0  0  0  0  0  0  0  0  0  0  0
   -2.9111   -8.7238    2.4093 C   0  0  0  0  0  0  0  0  0  0  0  0
   -1.7072   -8.9129    3.3278 C   0  0  0  0  0  0  0  0  0  0  0  0
   -1.6037   -7.4869   -0.7545 C   0  0  0  0  0  0  0  0  0  0  0  0
   -1.0378   -6.3839   -1.3666 C   0  0  0  0  0  0  0  0  0  0  0  0
   -0.8753   -5.2306   -0.6291 C   0  0  0  0  0  0  0  0  0  0  0  0
    1.0913   -4.1371   -1.6808 C   0  0  0  0  0  0  0  0  0  0  0  0
    0.9639   -4.1686   -3.0849 C   0  0  0  0  0  0  0  0  0  0  0  0
   -0.3585   -3.6833   -3.4258 C   0  0  0  0  0  0  0  0  0  0  0  0
   -0.9417   -3.3200   -4.6318 C   0  0  0  0  0  0  0  0  0  0  0  0
   -2.0901   -2.5530   -4.6133 C   0  0  0  0  0  0  0  0  0  0  0  0
    2.0801   -4.4319   -3.8652 C   0  0  0  0  0  0  0  0  0  0  0  0
    3.3242   -4.4388   -3.2621 C   0  0  0  0  0  0  0  0  0  0  0  0
    3.4605   -4.1895   -1.8947 C   0  0  0  0  0  0  0  0  0  0  0  0
    2.3184   -4.1674   -1.0788 C   0  0  0  0  0  0  0  0  0  0  0  0
    4.6762   -3.6280   -1.3364 C   0  0  0  0  0  0  0  0  0  0  0  0
    5.3745   -2.5727   -1.8994 C   0  0  0  0  0  0  0  0  0  0  0  0
    5.1859   -2.1176   -3.2248 N   0  0  0  0  0  0  0  0  0  0  0  0
    4.0049   -1.4579   -3.5521 C   0  0  0  0  0  0  0  0  0  0  0  0
    3.0040   -1.2501   -2.5970 C   0  0  0  0  0  0  0  0  0  0  0  0
    1.7935   -0.6998   -2.9545 C   0  0  0  0  0  0  0  0  0  0  0  0
    1.5481   -0.3036   -4.2613 C   0  0  0  0  0  0  0  0  0  0  0  0
   -0.0659    0.3180   -4.6479 S   0  0  0  0  0  0  0  0  0  0  0  0
   -0.2308   -0.1578   -6.3920 C   0  0  0  0  0  0  0  0  0  0  0  0
    2.5817   -0.3736   -5.1835 C   0  0  0  0  0  0  0  0  0  0  0  0
    3.7931   -0.9336   -4.8302 C   0  0  0  0  0  0  0  0  0  0  0  0
    6.0887   -2.6159   -4.1862 C   0  0  0  0  0  0  0  0  0  0  0  0
    7.4526   -2.6257   -3.9080 C   0  0  0  0  0  0  0  0  0  0  0  0
    8.3672   -3.1320   -4.8119 C   0  0  0  0  0  0  0  0  0  0  0  0
    7.9353   -3.6457   -6.0252 C   0  0  0  0  0  0  0  0  0  0  0  0
    9.0025   -4.3082   -7.2664 S   0  0  0  0  0  0  0  0  0  0  0  0
   10.6682   -4.0388   -6.5983 C   0  0  0  0  0  0  0  0  0  0  0  0
    6.5708   -3.6592   -6.3051 C   0  0  0  0  0  0  0  0  0  0  0  0
    5.6605   -3.1604   -5.4001 C   0  0  0  0  0  0  0  0  0  0  0  0
    6.1984   -1.9409   -0.9432 C   0  0  0  0  0  0  0  0  0  0  0  0
    7.2486   -0.5751   -0.9821 S   0  0  0  0  0  0  0  0  0  0  0  0
    7.4916   -0.6741    0.7692 C   0  0  0  0  0  0  0  0  0  0  0  0
    6.8526   -1.7994    1.3289 C   0  0  0  0  0  0  0  0  0  0  0  0
    6.9315   -2.2540    2.6159 N   0  0  0  0  0  0  0  0  0  0  0  0
    5.8648   -3.0381    3.1160 C   0  0  0  0  0  0  0  0  0  0  0  0
    4.5481   -2.6114    2.9795 C   0  0  0  0  0  0  0  0  0  0  0  0
    3.5057   -3.3944    3.4381 C   0  0  0  0  0  0  0  0  0  0  0  0
    3.7739   -4.6129    4.0494 C   0  0  0  0  0  0  0  0  0  0  0  0
    2.5383   -5.7072    4.6648 S   0  0  0  0  0  0  0  0  0  0  0  0
    0.9797   -4.9900    4.0770 C   0  0  0  0  0  0  0  0  0  0  0  0
    5.0964   -5.0234    4.2180 C   0  0  0  0  0  0  0  0  0  0  0  0
    6.1339   -4.2462    3.7551 C   0  0  0  0  0  0  0  0  0  0  0  0
    7.9841   -1.9694    3.4899 C   0  0  0  0  0  0  0  0  0  0  0  0
    9.3034   -1.8760    3.0521 C   0  0  0  0  0  0  0  0  0  0  0  0
   10.3167   -1.5308    3.9253 C   0  0  0  0  0  0  0  0  0  0  0  0
   10.0307   -1.2713    5.2607 C   0  0  0  0  0  0  0  0  0  0  0  0
   11.2081   -0.7226    6.4481 S   0  0  0  0  0  0  0  0  0  0  0  0
   12.7786   -0.6821    5.5425 C   0  0  0  0  0  0  0  0  0  0  0  0
    8.7220   -1.4291    5.7166 C   0  0  0  0  0  0  0  0  0  0  0  0
    7.7134   -1.7715    4.8475 C   0  0  0  0  0  0  0  0  0  0  0  0
    6.1159   -2.4855    0.3324 C   0  0  0  0  0  0  0  0  0  0  0  0
    5.0602   -3.8592    0.3492 S   0  0  0  0  0  0  0  0  0  0  0  0
    8.2748    0.3358    1.3359 C   0  0  0  0  0  0  0  0  0  0  0  0
    8.2331    0.7516    2.6478 C   0  0  0  0  0  0  0  0  0  0  0  0
    7.0442    0.6485    3.5096 C   0  0  0  0  0  0  0  0  0  0  0  0
    5.9594    0.1793    3.2153 O   0  0  0  0  0  0  0  0  0  0  0  0
    7.3915    1.3655    4.7547 C   0  0  0  0  0  0  0  0  0  0  0  0
    6.5982    1.5179    5.8875 C   0  0  0  0  0  0  0  0  0  0  0  0
    7.2068    2.2093    6.9085 C   0  0  0  0  0  0  0  0  0  0  0  0
    8.4994    2.7366    6.8034 C   0  0  0  0  0  0  0  0  0  0  0  0
    9.2901    2.6026    5.6869 C   0  0  0  0  0  0  0  0  0  0  0  0
    8.6970    1.8834    4.6471 C   0  0  0  0  0  0  0  0  0  0  0  0
    9.2420    1.4925    3.3507 C   0  0  0  0  0  0  0  0  0  0  0  0
   10.5463    1.6397    2.9436 C   0  0  0  0  0  0  0  0  0  0  0  0
   11.0717    1.0551    1.7747 C   0  0  0  0  0  0  0  0  0  0  0  0
   11.5840    0.5599    0.8729 N   0  0  0  0  0  0  0  0  0  0  0  0
   11.5479    2.2973    3.6799 C   0  0  0  0  0  0  0  0  0  0  0  0
   12.4242    2.8002    4.2281 N   0  0  0  0  0  0  0  0  0  0  0  0
    8.4689    3.3058    8.2006 C   0  0  0  0  0  0  0  0  0  0  0  0
    9.2617    2.5325    9.2749 C   0  0  0  0  0  0  0  0  0  0  0  0
    8.6651    3.0073   10.5798 C   0  0  0  0  0  0  0  0  0  0  0  0
    7.4489    2.4864   10.6807 C   0  0  0  0  0  0  0  0  0  0  0  0
    7.2020    1.6535    9.4434 C   0  0  0  0  0  0  0  0  0  0  0  0
    8.6244    1.1408    9.1827 C   0  0  0  0  0  0  0  0  0  0  0  0
    7.0328    2.7025    8.3233 C   0  0  0  0  0  0  0  0  0  0  0  0
   -7.2289    4.3085   -4.4314 H   0  0  0  0  0  0  0  0  0  0  0  0
   -5.5618    5.8298    1.3394 H   0  0  0  0  0  0  0  0  0  0  0  0
   -7.8650    8.9863   -1.8888 H   0  0  0  0  0  0  0  0  0  0  0  0
   -5.9903   10.7437    0.3780 H   0  0  0  0  0  0  0  0  0  0  0  0
   -8.5504   10.9282    1.0926 H   0  0  0  0  0  0  0  0  0  0  0  0
   -7.1172   12.3973    2.7338 H   0  0  0  0  0  0  0  0  0  0  0  0
   -5.8826   10.7719    4.4346 H   0  0  0  0  0  0  0  0  0  0  0  0
   -6.5555    8.3036    3.8423 H   0  0  0  0  0  0  0  0  0  0  0  0
   -8.8702    9.4560    3.2683 H   0  0  0  0  0  0  0  0  0  0  0  0
   -8.4370    8.3762    1.9229 H   0  0  0  0  0  0  0  0  0  0  0  0
   -4.7826    9.1426    2.0415 H   0  0  0  0  0  0  0  0  0  0  0  0
   -5.4209    1.9829   -8.3943 H   0  0  0  0  0  0  0  0  0  0  0  0
   -3.3683    1.9159   -9.6979 H   0  0  0  0  0  0  0  0  0  0  0  0
   -1.6739    3.0380  -10.9225 H   0  0  0  0  0  0  0  0  0  0  0  0
   -0.0656    2.3277  -11.1847 H   0  0  0  0  0  0  0  0  0  0  0  0
   -1.4362    1.2630  -10.8060 H   0  0  0  0  0  0  0  0  0  0  0  0
   -1.1140    2.9118   -6.1966 H   0  0  0  0  0  0  0  0  0  0  0  0
   -3.1877    2.9893   -4.8879 H   0  0  0  0  0  0  0  0  0  0  0  0
   -5.7440    4.6542   -7.4686 H   0  0  0  0  0  0  0  0  0  0  0  0
   -7.7565    5.5004   -8.6170 H   0  0  0  0  0  0  0  0  0  0  0  0
  -12.6878    4.8043   -7.9211 H   0  0  0  0  0  0  0  0  0  0  0  0
  -11.6162    4.3574   -6.5686 H   0  0  0  0  0  0  0  0  0  0  0  0
  -12.0791    3.1391   -7.8076 H   0  0  0  0  0  0  0  0  0  0  0  0
  -10.1047    2.4766   -6.7121 H   0  0  0  0  0  0  0  0  0  0  0  0
   -8.1115    1.6416   -5.5737 H   0  0  0  0  0  0  0  0  0  0  0  0
   -2.7457    1.0372   -0.8993 H   0  0  0  0  0  0  0  0  0  0  0  0
   -2.8585    2.9502    0.6618 H   0  0  0  0  0  0  0  0  0  0  0  0
   -6.5624    4.7609    3.5313 H   0  0  0  0  0  0  0  0  0  0  0  0
   -6.9767    3.6394    2.2067 H   0  0  0  0  0  0  0  0  0  0  0  0
   -6.6891    3.0239    3.8689 H   0  0  0  0  0  0  0  0  0  0  0  0
   -6.3243    1.2352    2.4874 H   0  0  0  0  0  0  0  0  0  0  0  0
   -6.2271   -0.6390    0.9241 H   0  0  0  0  0  0  0  0  0  0  0  0
   -3.9246   -1.9830    1.3123 H   0  0  0  0  0  0  0  0  0  0  0  0
   -4.2855   -4.3096    1.9969 H   0  0  0  0  0  0  0  0  0  0  0  0
   -5.0139   -8.5888   -0.5112 H   0  0  0  0  0  0  0  0  0  0  0  0
   -4.3747   -7.2147   -1.4401 H   0  0  0  0  0  0  0  0  0  0  0  0
   -6.1443   -7.5135   -1.3660 H   0  0  0  0  0  0  0  0  0  0  0  0
   -5.7930   -5.2241   -1.8959 H   0  0  0  0  0  0  0  0  0  0  0  0
   -5.4717   -2.9086   -2.5698 H   0  0  0  0  0  0  0  0  0  0  0  0
   -2.5011   -2.2252   -1.2540 H   0  0  0  0  0  0  0  0  0  0  0  0
    0.5502   -1.2374   -0.2795 H   0  0  0  0  0  0  0  0  0  0  0  0
    0.1016   -0.2347    1.8940 H   0  0  0  0  0  0  0  0  0  0  0  0
   -1.1388   -0.0983    5.3467 H   0  0  0  0  0  0  0  0  0  0  0  0
   -0.0601    0.2401    3.9790 H   0  0  0  0  0  0  0  0  0  0  0  0
   -2.0978    0.6186    2.5216 H   0  0  0  0  0  0  0  0  0  0  0  0
   -3.1279    0.2980    3.9146 H   0  0  0  0  0  0  0  0  0  0  0  0
   -2.0740    1.7172    3.9053 H   0  0  0  0  0  0  0  0  0  0  0  0
   -1.7733   -3.8390    3.2350 H   0  0  0  0  0  0  0  0  0  0  0  0
   -2.1786   -6.2094    2.3482 H   0  0  0  0  0  0  0  0  0  0  0  0
   -3.5472   -9.6125    2.4460 H   0  0  0  0  0  0  0  0  0  0  0  0
   -3.5142   -7.8609    2.7149 H   0  0  0  0  0  0  0  0  0  0  0  0
   -1.1584   -9.8058    3.0389 H   0  0  0  0  0  0  0  0  0  0  0  0
   -1.0310   -8.0637    3.2646 H   0  0  0  0  0  0  0  0  0  0  0  0
   -2.0437   -9.0227    4.3550 H   0  0  0  0  0  0  0  0  0  0  0  0
   -1.7385   -8.4103   -1.2961 H   0  0  0  0  0  0  0  0  0  0  0  0
   -0.7241   -6.4338   -2.3992 H   0  0  0  0  0  0  0  0  0  0  0  0
   -0.4876   -3.5983   -5.5717 H   0  0  0  0  0  0  0  0  0  0  0  0
   -2.5344   -2.2421   -5.5482 H   0  0  0  0  0  0  0  0  0  0  0  0
    1.9940   -4.5527   -4.9347 H   0  0  0  0  0  0  0  0  0  0  0  0
    4.2116   -4.5860   -3.8570 H   0  0  0  0  0  0  0  0  0  0  0  0
    2.4161   -4.0440   -0.0098 H   0  0  0  0  0  0  0  0  0  0  0  0
    3.1624   -1.5287   -1.5678 H   0  0  0  0  0  0  0  0  0  0  0  0
    1.0104   -0.5769   -2.2230 H   0  0  0  0  0  0  0  0  0  0  0  0
    0.1223   -1.1770   -6.5115 H   0  0  0  0  0  0  0  0  0  0  0  0
   -1.2897   -0.0929   -6.6222 H   0  0  0  0  0  0  0  0  0  0  0  0
    0.3232    0.5275   -7.0265 H   0  0  0  0  0  0  0  0  0  0  0  0
    2.4545    0.0101   -6.1838 H   0  0  0  0  0  0  0  0  0  0  0  0
    4.5893   -0.9480   -5.5577 H   0  0  0  0  0  0  0  0  0  0  0  0
    7.8161   -2.2219   -2.9771 H   0  0  0  0  0  0  0  0  0  0  0  0
    9.4133   -3.1115   -4.5532 H   0  0  0  0  0  0  0  0  0  0  0  0
   11.3505   -4.3995   -7.3617 H   0  0  0  0  0  0  0  0  0  0  0  0
   10.8317   -2.9786   -6.4281 H   0  0  0  0  0  0  0  0  0  0  0  0
   10.8015   -4.6118   -5.6852 H   0  0  0  0  0  0  0  0  0  0  0  0
    6.2322   -4.0752   -7.2418 H   0  0  0  0  0  0  0  0  0  0  0  0
    4.6084   -3.1988   -5.6366 H   0  0  0  0  0  0  0  0  0  0  0  0
    4.3521   -1.6512    2.5280 H   0  0  0  0  0  0  0  0  0  0  0  0
    2.4937   -3.0420    3.3159 H   0  0  0  0  0  0  0  0  0  0  0  0
    0.2075   -5.6877    4.3853 H   0  0  0  0  0  0  0  0  0  0  0  0
    0.9938   -4.9097    2.9941 H   0  0  0  0  0  0  0  0  0  0  0  0
    0.8049   -4.0243    4.5417 H   0  0  0  0  0  0  0  0  0  0  0  0
    5.2941   -5.9651    4.7063 H   0  0  0  0  0  0  0  0  0  0  0  0
    7.1564   -4.5714    3.8767 H   0  0  0  0  0  0  0  0  0  0  0  0
    9.5443   -2.0657    2.0168 H   0  0  0  0  0  0  0  0  0  0  0  0
   11.3225   -1.4536    3.5443 H   0  0  0  0  0  0  0  0  0  0  0  0
   13.0093   -1.6705    5.1563 H   0  0  0  0  0  0  0  0  0  0  0  0
   12.7371    0.0578    4.7488 H   0  0  0  0  0  0  0  0  0  0  0  0
   13.5252   -0.3871    6.2732 H   0  0  0  0  0  0  0  0  0  0  0  0
    8.5053   -1.2585    6.7598 H   0  0  0  0  0  0  0  0  0  0  0  0
    6.6996   -1.8631    5.2053 H   0  0  0  0  0  0  0  0  0  0  0  0
    8.9414    0.8483    0.6518 H   0  0  0  0  0  0  0  0  0  0  0  0
    5.6022    1.1050    5.9281 H   0  0  0  0  0  0  0  0  0  0  0  0
   10.2819    3.0171    5.6139 H   0  0  0  0  0  0  0  0  0  0  0  0
    8.5862    4.3852    8.2762 H   0  0  0  0  0  0  0  0  0  0  0  0
   10.3416    2.5942    9.1761 H   0  0  0  0  0  0  0  0  0  0  0  0
    9.1506    3.6946   11.2477 H   0  0  0  0  0  0  0  0  0  0  0  0
    6.7156    2.6525   11.4482 H   0  0  0  0  0  0  0  0  0  0  0  0
    6.4053    0.9163    9.5012 H   0  0  0  0  0  0  0  0  0  0  0  0
    8.7605    0.6624    8.2150 H   0  0  0  0  0  0  0  0  0  0  0  0
    8.9737    0.4744    9.9695 H   0  0  0  0  0  0  0  0  0  0  0  0
    6.1955    3.3768    8.4956 H   0  0  0  0  0  0  0  0  0  0  0  0
  1  2  2  0  0  0  0
  2  3  1  0  0  0  0
  3  4  2  0  0  0  0
  3  5  1  0  0  0  0
  5  6  2  0  0  0  0
  6  7  1  0  0  0  0
  7  8  2  0  0  0  0
  8  9  1  0  0  0  0
  9 10  2  0  0  0  0
 10 11  1  0  0  0  0
 11 12  2  0  0  0  0
 12 13  1  0  0  0  0
 13 14  3  0  0  0  0
 12 15  1  0  0  0  0
 15 16  3  0  0  0  0
  8 17  1  0  0  0  0
 17 18  1  0  0  0  0
 18 19  1  0  0  0  0
 19 20  2  0  0  0  0
 20 21  1  0  0  0  0
 21 22  1  0  0  0  0
 21 23  1  0  0  0  0
  1 24  1  0  0  0  0
 24 25  2  0  0  0  0
 25 26  1  0  0  0  0
 26 27  1  0  0  0  0
 27 28  2  0  0  0  0
 28 29  1  0  0  0  0
 29 30  2  0  0  0  0
 30 31  1  0  0  0  0
 31 32  1  0  0  0  0
 30 33  1  0  0  0  0
 33 34  2  0  0  0  0
 26 35  1  0  0  0  0
 35 36  2  0  0  0  0
 36 37  1  0  0  0  0
 37 38  2  0  0  0  0
 38 39  1  0  0  0  0
 39 40  1  0  0  0  0
 38 41  1  0  0  0  0
 41 42  2  0  0  0  0
 25 43  1  0  0  0  0
 43 44  1  0  0  0  0
 44 45  1  0  0  0  0
 45 46  2  0  0  0  0
 46 47  1  0  0  0  0
 47 48  1  0  0  0  0
 48 49  2  0  0  0  0
 49 50  1  0  0  0  0
 50 51  2  0  0  0  0
 51 52  1  0  0  0  0
 52 53  1  0  0  0  0
 51 54  1  0  0  0  0
 54 55  2  0  0  0  0
 47 56  1  0  0  0  0
 56 57  2  0  0  0  0
 57 58  1  0  0  0  0
 58 59  2  0  0  0  0
 59 60  1  0  0  0  0
 60 61  1  0  0  0  0
 59 62  1  0  0  0  0
 62 63  2  0  0  0  0
 46 64  1  0  0  0  0
 64 65  1  0  0  0  0
 45 66  1  0  0  0  0
 66 67  2  0  0  0  0
 67 68  1  0  0  0  0
 68 69  1  0  0  0  0
 69 70  1  0  0  0  0
 70 71  2  0  0  0  0
 71 72  1  0  0  0  0
 72 73  2  0  0  0  0
 73 74  1  0  0  0  0
 74 75  1  0  0  0  0
 75 76  1  0  0  0  0
 73 77  1  0  0  0  0
 77 78  2  0  0  0  0
 78 79  1  0  0  0  0
 79 80  2  0  0  0  0
 80 81  1  0  0  0  0
 81 82  1  0  0  0  0
 82 83  1  0  0  0  0
 83 84  1  0  0  0  0
 81 85  2  0  0  0  0
 85 86  1  0  0  0  0
 86 87  2  0  0  0  0
 69 88  1  0  0  0  0
 88 89  2  0  0  0  0
 89 90  1  0  0  0  0
 90 91  1  0  0  0  0
 91 92  2  0  0  0  0
 89 93  1  0  0  0  0
 93 94  2  0  0  0  0
 94 95  1  0  0  0  0
 95 96  2  0  0  0  0
 95 97  1  0  0  0  0
 97 98  2  0  0  0  0
 98 99  1  0  0  0  0
 99100  1  0  0  0  0
100101  2  0  0  0  0
101102  1  0  0  0  0
102103  2  0  0  0  0
103104  1  0  0  0  0
104105  1  0  0  0  0
103106  1  0  0  0  0
106107  2  0  0  0  0
 99108  1  0  0  0  0
108109  2  0  0  0  0
109110  1  0  0  0  0
110111  2  0  0  0  0
111112  1  0  0  0  0
112113  1  0  0  0  0
111114  1  0  0  0  0
114115  2  0  0  0  0
 98116  1  0  0  0  0
116117  1  0  0  0  0
117118  1  0  0  0  0
118119  2  0  0  0  0
119120  1  0  0  0  0
120121  1  0  0  0  0
121122  2  0  0  0  0
122123  1  0  0  0  0
123124  2  0  0  0  0
124125  1  0  0  0  0
125126  1  0  0  0  0
124127  1  0  0  0  0
127128  2  0  0  0  0
120129  1  0  0  0  0
129130  2  0  0  0  0
130131  1  0  0  0  0
131132  2  0  0  0  0
132133  1  0  0  0  0
133134  1  0  0  0  0
132135  1  0  0  0  0
135136  2  0  0  0  0
119137  1  0  0  0  0
137138  1  0  0  0  0
118139  1  0  0  0  0
139140  2  0  0  0  0
140141  1  0  0  0  0
141142  2  0  0  0  0
141143  1  0  0  0  0
143144  2  0  0  0  0
144145  1  0  0  0  0
145146  2  0  0  0  0
146147  1  0  0  0  0
147148  2  0  0  0  0
148149  1  0  0  0  0
149150  2  0  0  0  0
150151  1  0  0  0  0
151152  3  0  0  0  0
150153  1  0  0  0  0
153154  3  0  0  0  0
146155  1  0  0  0  0
155156  1  0  0  0  0
156157  1  0  0  0  0
157158  2  0  0  0  0
158159  1  0  0  0  0
159160  1  0  0  0  0
159161  1  0  0  0  0
 11  2  1  0  0  0  0
 23 17  1  0  0  0  0
 65 24  1  0  0  0  0
 92 66  1  0  0  0  0
138 97  1  0  0  0  0
149140  1  0  0  0  0
161155  1  0  0  0  0
 10  5  1  0  0  0  0
 22 18  1  0  0  0  0
 34 27  1  0  0  0  0
 42 35  1  0  0  0  0
 64 43  2  0  0  0  0
 90 68  2  0  0  0  0
107100  1  0  0  0  0
115108  1  0  0  0  0
137116  2  0  0  0  0
148143  1  0  0  0  0
160156  1  0  0  0  0
 23  7  1  0  0  0  0
 55 48  1  0  0  0  0
 63 56  1  0  0  0  0
 87 69  1  0  0  0  0
 96 88  1  0  0  0  0
128121  1  0  0  0  0
136129  1  0  0  0  0
161145  1  0  0  0  0
 78 70  1  0  0  0  0
 87 79  1  0  0  0  0
  1162  1  0  0  0  0
  6163  1  0  0  0  0
  9164  1  0  0  0  0
 17165  1  0  0  0  0
 18166  1  0  0  0  0
 19167  1  0  0  0  0
 20168  1  0  0  0  0
 21169  1  0  0  0  0
 22170  1  0  0  0  0
 22171  1  0  0  0  0
 23172  1  0  0  0  0
 28173  1  0  0  0  0
 29174  1  0  0  0  0
 32175  1  0  0  0  0
 32176  1  0  0  0  0
 32177  1  0  0  0  0
 33178  1  0  0  0  0
 34179  1  0  0  0  0
 36180  1  0  0  0  0
 37181  1  0  0  0  0
 40182  1  0  0  0  0
 40183  1  0  0  0  0
 40184  1  0  0  0  0
 41185  1  0  0  0  0
 42186  1  0  0  0  0
 49187  1  0  0  0  0
 50188  1  0  0  0  0
 53189  1  0  0  0  0
 53190  1  0  0  0  0
 53191  1  0  0  0  0
 54192  1  0  0  0  0
 55193  1  0  0  0  0
 57194  1  0  0  0  0
 58195  1  0  0  0  0
 61196  1  0  0  0  0
 61197  1  0  0  0  0
 61198  1  0  0  0  0
 62199  1  0  0  0  0
 63200  1  0  0  0  0
 67201  1  0  0  0  0
 71202  1  0  0  0  0
 72203  1  0  0  0  0
 75204  1  0  0  0  0
 75205  1  0  0  0  0
 76206  1  0  0  0  0
 76207  1  0  0  0  0
 76208  1  0  0  0  0
 77209  1  0  0  0  0
 80210  1  0  0  0  0
 83211  1  0  0  0  0
 83212  1  0  0  0  0
 84213  1  0  0  0  0
 84214  1  0  0  0  0
 84215  1  0  0  0  0
 85216  1  0  0  0  0
 86217  1  0  0  0  0
 91218  1  0  0  0  0
 92219  1  0  0  0  0
 93220  1  0  0  0  0
 94221  1  0  0  0  0
 96222  1  0  0  0  0
101223  1  0  0  0  0
102224  1  0  0  0  0
105225  1  0  0  0  0
105226  1  0  0  0  0
105227  1  0  0  0  0
106228  1  0  0  0  0
107229  1  0  0  0  0
109230  1  0  0  0  0
110231  1  0  0  0  0
113232  1  0  0  0  0
113233  1  0  0  0  0
113234  1  0  0  0  0
114235  1  0  0  0  0
115236  1  0  0  0  0
122237  1  0  0  0  0
123238  1  0  0  0  0
126239  1  0  0  0  0
126240  1  0  0  0  0
126241  1  0  0  0  0
127242  1  0  0  0  0
128243  1  0  0  0  0
130244  1  0  0  0  0
131245  1  0  0  0  0
134246  1  0  0  0  0
134247  1  0  0  0  0
134248  1  0  0  0  0
135249  1  0  0  0  0
136250  1  0  0  0  0
139251  1  0  0  0  0
144252  1  0  0  0  0
147253  1  0  0  0  0
155254  1  0  0  0  0
156255  1  0  0  0  0
157256  1  0  0  0  0
158257  1  0  0  0  0
159258  1  0  0  0  0
160259  1  0  0  0  0
160260  1  0  0  0  0
161261  1  0  0  0  0
M  END
