
  xtb     02082222113D
 energy: -431.961184453280 gnorm: 0.000422231247 xtb: 6.4.1 (unknown)
273297  0     0  0            999 V2000
   -5.7736    7.3791   -0.6049 C   0  0  0  0  0  0  0  0  0  0  0  0
   -5.1678    8.4087   -1.2649 C   0  0  0  0  0  0  0  0  0  0  0  0
   -3.7908    8.8635   -0.9774 C   0  0  0  0  0  0  0  0  0  0  0  0
   -3.0068    8.3659   -0.1936 O   0  0  0  0  0  0  0  0  0  0  0  0
   -3.6330   10.1405   -1.6967 C   0  0  0  0  0  0  0  0  0  0  0  0
   -2.5012   10.9503   -1.7324 C   0  0  0  0  0  0  0  0  0  0  0  0
   -2.6506   12.0960   -2.4758 C   0  0  0  0  0  0  0  0  0  0  0  0
   -3.8547   12.4357   -3.1075 C   0  0  0  0  0  0  0  0  0  0  0  0
   -4.9828   11.6515   -3.0752 C   0  0  0  0  0  0  0  0  0  0  0  0
   -4.8395   10.4655   -2.3500 C   0  0  0  0  0  0  0  0  0  0  0  0
   -5.7985    9.3918   -2.1162 C   0  0  0  0  0  0  0  0  0  0  0  0
   -7.0352    9.2612   -2.6944 C   0  0  0  0  0  0  0  0  0  0  0  0
   -7.8513    8.1207   -2.5431 C   0  0  0  0  0  0  0  0  0  0  0  0
   -8.5440    7.2065   -2.4863 N   0  0  0  0  0  0  0  0  0  0  0  0
   -7.6262   10.2175   -3.5435 C   0  0  0  0  0  0  0  0  0  0  0  0
   -8.1632   10.9621   -4.2336 N   0  0  0  0  0  0  0  0  0  0  0  0
   -3.3042   13.7379   -3.6342 C   0  0  0  0  0  0  0  0  0  0  0  0
   -2.9304   13.8127   -5.1340 C   0  0  0  0  0  0  0  0  0  0  0  0
   -2.6101   12.4017   -5.5618 C   0  0  0  0  0  0  0  0  0  0  0  0
   -1.4665   12.0553   -4.9867 C   0  0  0  0  0  0  0  0  0  0  0  0
   -0.9919   13.2253   -4.1616 C   0  0  0  0  0  0  0  0  0  0  0  0
   -1.5103   14.3899   -5.0204 C   0  0  0  0  0  0  0  0  0  0  0  0
   -1.9548   13.3451   -2.9538 C   0  0  0  0  0  0  0  0  0  0  0  0
   -5.1187    6.2496   -0.0525 C   0  0  0  0  0  0  0  0  0  0  0  0
   -4.2241    5.3805   -0.6745 C   0  0  0  0  0  0  0  0  0  0  0  0
   -3.7307    5.4761   -1.9706 N   0  0  0  0  0  0  0  0  0  0  0  0
   -2.7079    6.3893   -2.2862 C   0  0  0  0  0  0  0  0  0  0  0  0
   -2.7553    7.0957   -3.4848 C   0  0  0  0  0  0  0  0  0  0  0  0
   -1.7718    8.0131   -3.7821 C   0  0  0  0  0  0  0  0  0  0  0  0
   -0.7186    8.2289   -2.8939 C   0  0  0  0  0  0  0  0  0  0  0  0
    0.4812    9.4340   -3.3705 S   0  0  0  0  0  0  0  0  0  0  0  0
    1.5676    9.5729   -1.9232 C   0  0  0  0  0  0  0  0  0  0  0  0
   -0.6555    7.5063   -1.7124 C   0  0  0  0  0  0  0  0  0  0  0  0
   -1.6504    6.5960   -1.4086 C   0  0  0  0  0  0  0  0  0  0  0  0
   -3.8846    4.3208   -2.7557 C   0  0  0  0  0  0  0  0  0  0  0  0
   -2.8229    3.7717   -3.4673 C   0  0  0  0  0  0  0  0  0  0  0  0
   -2.9769    2.5816   -4.1527 C   0  0  0  0  0  0  0  0  0  0  0  0
   -4.2021    1.9293   -4.1503 C   0  0  0  0  0  0  0  0  0  0  0  0
   -4.4992    0.3604   -4.9031 S   0  0  0  0  0  0  0  0  0  0  0  0
   -2.9017   -0.0936   -5.6275 C   0  0  0  0  0  0  0  0  0  0  0  0
   -5.2860    2.5157   -3.4959 C   0  0  0  0  0  0  0  0  0  0  0  0
   -5.1291    3.6895   -2.7968 C   0  0  0  0  0  0  0  0  0  0  0  0
   -4.0274    4.2215    0.1108 C   0  0  0  0  0  0  0  0  0  0  0  0
   -3.0201    2.8386   -0.0826 S   0  0  0  0  0  0  0  0  0  0  0  0
   -3.5129    2.2331    1.5029 C   0  0  0  0  0  0  0  0  0  0  0  0
   -4.4170    3.0708    2.1259 C   0  0  0  0  0  0  0  0  0  0  0  0
   -5.0217    2.8191    3.3452 N   0  0  0  0  0  0  0  0  0  0  0  0
   -6.3828    3.0689    3.5266 C   0  0  0  0  0  0  0  0  0  0  0  0
   -7.2639    3.0838    2.4430 C   0  0  0  0  0  0  0  0  0  0  0  0
   -8.6015    3.3463    2.6360 C   0  0  0  0  0  0  0  0  0  0  0  0
   -9.1038    3.5706    3.9159 C   0  0  0  0  0  0  0  0  0  0  0  0
  -10.8471    3.8328    4.0439 S   0  0  0  0  0  0  0  0  0  0  0  0
  -11.0764    4.3859    5.7578 C   0  0  0  0  0  0  0  0  0  0  0  0
   -8.2356    3.5453    4.9983 C   0  0  0  0  0  0  0  0  0  0  0  0
   -6.8885    3.3106    4.8021 C   0  0  0  0  0  0  0  0  0  0  0  0
   -4.2367    2.3299    4.4064 C   0  0  0  0  0  0  0  0  0  0  0  0
   -4.6028    1.1688    5.0787 C   0  0  0  0  0  0  0  0  0  0  0  0
   -3.8245    0.6846    6.1102 C   0  0  0  0  0  0  0  0  0  0  0  0
   -2.6705    1.3609    6.4869 C   0  0  0  0  0  0  0  0  0  0  0  0
   -1.6320    0.8123    7.8052 S   0  0  0  0  0  0  0  0  0  0  0  0
   -1.9297   -0.9823    7.8284 C   0  0  0  0  0  0  0  0  0  0  0  0
   -2.3150    2.5384    5.8358 C   0  0  0  0  0  0  0  0  0  0  0  0
   -3.0885    3.0159    4.7989 C   0  0  0  0  0  0  0  0  0  0  0  0
   -4.7050    4.2023    1.3154 C   0  0  0  0  0  0  0  0  0  0  0  0
   -5.6839    5.6159    1.4912 S   0  0  0  0  0  0  0  0  0  0  0  0
   -2.8787    0.9949    1.8691 C   0  0  0  0  0  0  0  0  0  0  0  0
   -2.8577   -0.1035    1.0275 C   0  0  0  0  0  0  0  0  0  0  0  0
   -3.7264   -0.2794   -0.0397 N   0  0  0  0  0  0  0  0  0  0  0  0
   -3.2338   -0.9511   -1.1657 C   0  0  0  0  0  0  0  0  0  0  0  0
   -1.9406   -0.6727   -1.6071 C   0  0  0  0  0  0  0  0  0  0  0  0
   -1.3609   -1.4282   -2.6055 C   0  0  0  0  0  0  0  0  0  0  0  0
   -2.0725   -2.4674   -3.1893 C   0  0  0  0  0  0  0  0  0  0  0  0
   -1.3458   -3.5321   -4.4064 S   0  0  0  0  0  0  0  0  0  0  0  0
    0.3471   -3.7065   -3.7639 C   0  0  0  0  0  0  0  0  0  0  0  0
   -3.3950   -2.6860   -2.8197 C   0  0  0  0  0  0  0  0  0  0  0  0
   -3.9718   -1.9402   -1.8147 C   0  0  0  0  0  0  0  0  0  0  0  0
   -5.0952   -0.0303    0.1286 C   0  0  0  0  0  0  0  0  0  0  0  0
   -5.7070   -0.1735    1.3711 C   0  0  0  0  0  0  0  0  0  0  0  0
   -7.0622    0.0466    1.5215 C   0  0  0  0  0  0  0  0  0  0  0  0
   -7.8336    0.4152    0.4276 C   0  0  0  0  0  0  0  0  0  0  0  0
   -9.5707    0.7167    0.4948 S   0  0  0  0  0  0  0  0  0  0  0  0
  -10.0437    0.2194    2.1737 C   0  0  0  0  0  0  0  0  0  0  0  0
   -7.2208    0.5734   -0.8147 C   0  0  0  0  0  0  0  0  0  0  0  0
   -5.8701    0.3539   -0.9645 C   0  0  0  0  0  0  0  0  0  0  0  0
   -1.8570   -1.0261    1.4061 C   0  0  0  0  0  0  0  0  0  0  0  0
   -1.2690   -2.4942    0.7266 S   0  0  0  0  0  0  0  0  0  0  0  0
    0.0347   -2.5464    1.9073 C   0  0  0  0  0  0  0  0  0  0  0  0
   -0.0708   -1.5324    2.8582 C   0  0  0  0  0  0  0  0  0  0  0  0
    0.7345   -1.3468    3.9673 N   0  0  0  0  0  0  0  0  0  0  0  0
    1.1957   -2.4227    4.7318 C   0  0  0  0  0  0  0  0  0  0  0  0
    0.4808   -3.6188    4.8071 C   0  0  0  0  0  0  0  0  0  0  0  0
    0.9980   -4.6937    5.4946 C   0  0  0  0  0  0  0  0  0  0  0  0
    2.2348   -4.6045    6.1314 C   0  0  0  0  0  0  0  0  0  0  0  0
    2.8152   -6.0603    6.9394 S   0  0  0  0  0  0  0  0  0  0  0  0
    4.4846   -5.6129    7.4930 C   0  0  0  0  0  0  0  0  0  0  0  0
    2.9302   -3.4032    6.0965 C   0  0  0  0  0  0  0  0  0  0  0  0
    2.4148   -2.3281    5.4018 C   0  0  0  0  0  0  0  0  0  0  0  0
    1.0282   -0.0265    4.3505 C   0  0  0  0  0  0  0  0  0  0  0  0
    1.3258    0.9273    3.3817 C   0  0  0  0  0  0  0  0  0  0  0  0
    1.5477    2.2446    3.7320 C   0  0  0  0  0  0  0  0  0  0  0  0
    1.4848    2.6259    5.0647 C   0  0  0  0  0  0  0  0  0  0  0  0
    1.7121    4.2830    5.6298 S   0  0  0  0  0  0  0  0  0  0  0  0
    1.6645    5.2662    4.1041 C   0  0  0  0  0  0  0  0  0  0  0  0
    1.2349    1.6645    6.0424 C   0  0  0  0  0  0  0  0  0  0  0  0
    1.0055    0.3543    5.6910 C   0  0  0  0  0  0  0  0  0  0  0  0
   -1.1352   -0.6532    2.5273 C   0  0  0  0  0  0  0  0  0  0  0  0
   -1.7139    0.8445    3.1802 S   0  0  0  0  0  0  0  0  0  0  0  0
    1.0662   -3.4886    1.6461 C   0  0  0  0  0  0  0  0  0  0  0  0
    2.3043   -3.6409    2.2057 C   0  0  0  0  0  0  0  0  0  0  0  0
    3.1023   -4.6220    1.5763 C   0  0  0  0  0  0  0  0  0  0  0  0
    4.4199   -5.0013    1.9035 C   0  0  0  0  0  0  0  0  0  0  0  0
    5.1521   -4.4169    3.0094 C   0  0  0  0  0  0  0  0  0  0  0  0
    5.9703   -5.0612    3.8974 C   0  0  0  0  0  0  0  0  0  0  0  0
    6.5770   -4.1919    4.8204 C   0  0  0  0  0  0  0  0  0  0  0  0
    6.2461   -2.8758    4.6560 C   0  0  0  0  0  0  0  0  0  0  0  0
    6.9356   -1.3669    5.5587 Si  0  0  0  0  0  4  0  0  0  0  0  0
    7.7803   -2.0082    7.1491 C   0  0  0  0  0  0  0  0  0  0  0  0
    8.4963   -0.9093    7.9255 C   0  0  0  0  0  0  0  0  0  0  0  0
    8.1960   -0.5450    4.3747 C   0  0  0  0  0  0  0  0  0  0  0  0
    9.3644   -1.4600    4.0175 C   0  0  0  0  0  0  0  0  0  0  0  0
    5.5506   -0.1265    6.0159 C   0  0  0  0  0  0  0  0  0  0  0  0
    4.9414    0.5959    4.8184 C   0  0  0  0  0  0  0  0  0  0  0  0
    5.1511   -2.7065    3.3240 S   0  0  0  0  0  0  0  0  0  0  0  0
    5.0051   -5.9642    1.0875 C   0  0  0  0  0  0  0  0  0  0  0  0
    4.3526   -6.5295   -0.0411 C   0  0  0  0  0  0  0  0  0  0  0  0
    3.0310   -6.1484   -0.3680 C   0  0  0  0  0  0  0  0  0  0  0  0
    2.3527   -6.6143   -1.5569 C   0  0  0  0  0  0  0  0  0  0  0  0
    1.0214   -6.9056   -1.7127 C   0  0  0  0  0  0  0  0  0  0  0  0
    0.6851   -7.2414   -3.0329 C   0  0  0  0  0  0  0  0  0  0  0  0
    1.7357   -7.1899   -3.9072 C   0  0  0  0  0  0  0  0  0  0  0  0
    1.7765   -7.5844   -5.7524 Si  0  0  0  0  0  4  0  0  0  0  0  0
    1.8037   -9.4897   -5.9514 C   0  0  0  0  0  0  0  0  0  0  0  0
    0.6575  -10.1873   -5.2246 C   0  0  0  0  0  0  0  0  0  0  0  0
    0.2220   -6.7908   -6.5408 C   0  0  0  0  0  0  0  0  0  0  0  0
   -0.1893   -7.4242   -7.8662 C   0  0  0  0  0  0  0  0  0  0  0  0
    3.4020   -6.8335   -6.4246 C   0  0  0  0  0  0  0  0  0  0  0  0
    3.5757   -6.9583   -7.9338 C   0  0  0  0  0  0  0  0  0  0  0  0
    3.1839   -6.7443   -3.0786 S   0  0  0  0  0  0  0  0  0  0  0  0
    2.4369   -5.2277    0.4812 C   0  0  0  0  0  0  0  0  0  0  0  0
    0.8334   -4.5779    0.2891 S   0  0  0  0  0  0  0  0  0  0  0  0
    5.1668   -7.4463   -0.7271 C   0  0  0  0  0  0  0  0  0  0  0  0
    6.4305   -7.5724   -0.2053 C   0  0  0  0  0  0  0  0  0  0  0  0
    6.6267   -6.5705    1.2355 S   0  0  0  0  0  0  0  0  0  0  0  0
    7.5554   -8.3171   -0.6231 C   0  0  0  0  0  0  0  0  0  0  0  0
    7.7752   -9.0549   -1.7525 C   0  0  0  0  0  0  0  0  0  0  0  0
    6.8853   -9.2742   -2.9195 C   0  0  0  0  0  0  0  0  0  0  0  0
    5.6887   -9.0772   -3.0046 O   0  0  0  0  0  0  0  0  0  0  0  0
    7.7462   -9.8266   -3.9800 C   0  0  0  0  0  0  0  0  0  0  0  0
    9.0242  -10.0542   -3.4760 C   0  0  0  0  0  0  0  0  0  0  0  0
   10.0308  -10.5685   -4.3054 C   0  0  0  0  0  0  0  0  0  0  0  0
    9.7307  -10.8433   -5.6141 C   0  0  0  0  0  0  0  0  0  0  0  0
    8.4424  -10.6303   -6.1515 C   0  0  0  0  0  0  0  0  0  0  0  0
    8.1421  -10.9188   -7.4983 C   0  0  0  0  0  0  0  0  0  0  0  0
    6.8858  -10.7028   -7.9946 C   0  0  0  0  0  0  0  0  0  0  0  0
    5.8727  -10.1889   -7.1697 C   0  0  0  0  0  0  0  0  0  0  0  0
    6.1260   -9.8947   -5.8588 C   0  0  0  0  0  0  0  0  0  0  0  0
    7.4108  -10.1083   -5.3188 C   0  0  0  0  0  0  0  0  0  0  0  0
    9.0551   -9.6725   -2.0677 C   0  0  0  0  0  0  0  0  0  0  0  0
   10.0882   -9.9209   -1.2033 C   0  0  0  0  0  0  0  0  0  0  0  0
   11.2989  -10.5479   -1.5679 C   0  0  0  0  0  0  0  0  0  0  0  0
   12.3107  -11.0437   -1.7885 N   0  0  0  0  0  0  0  0  0  0  0  0
   10.0954   -9.6435    0.1812 C   0  0  0  0  0  0  0  0  0  0  0  0
   10.1880   -9.4782    1.3141 N   0  0  0  0  0  0  0  0  0  0  0  0
   -6.8502    7.3948   -0.4754 H   0  0  0  0  0  0  0  0  0  0  0  0
   -1.6026   10.6672   -1.2079 H   0  0  0  0  0  0  0  0  0  0  0  0
   -5.9062   11.9273   -3.5572 H   0  0  0  0  0  0  0  0  0  0  0  0
   -3.8051   14.6381   -3.2831 H   0  0  0  0  0  0  0  0  0  0  0  0
   -3.6432   14.3527   -5.7514 H   0  0  0  0  0  0  0  0  0  0  0  0
   -3.2573   11.8009   -6.1736 H   0  0  0  0  0  0  0  0  0  0  0  0
   -0.9591   11.1098   -5.0194 H   0  0  0  0  0  0  0  0  0  0  0  0
    0.0626   13.2249   -3.8987 H   0  0  0  0  0  0  0  0  0  0  0  0
   -1.0060   14.4596   -5.9830 H   0  0  0  0  0  0  0  0  0  0  0  0
   -1.4728   15.3540   -4.5146 H   0  0  0  0  0  0  0  0  0  0  0  0
   -1.5627   14.0010   -2.1784 H   0  0  0  0  0  0  0  0  0  0  0  0
   -3.5743    6.9271   -4.1682 H   0  0  0  0  0  0  0  0  0  0  0  0
   -1.8142    8.5808   -4.6992 H   0  0  0  0  0  0  0  0  0  0  0  0
    0.9834    9.8282   -1.0441 H   0  0  0  0  0  0  0  0  0  0  0  0
    2.1170    8.6475   -1.7761 H   0  0  0  0  0  0  0  0  0  0  0  0
    2.2593   10.3772   -2.1539 H   0  0  0  0  0  0  0  0  0  0  0  0
    0.1512    7.6457   -1.0116 H   0  0  0  0  0  0  0  0  0  0  0  0
   -1.6085    6.0425   -0.4831 H   0  0  0  0  0  0  0  0  0  0  0  0
   -1.8626    4.2660   -3.4607 H   0  0  0  0  0  0  0  0  0  0  0  0
   -2.1275    2.1679   -4.6715 H   0  0  0  0  0  0  0  0  0  0  0  0
   -2.1450   -0.1299   -4.8498 H   0  0  0  0  0  0  0  0  0  0  0  0
   -2.6374    0.6083   -6.4134 H   0  0  0  0  0  0  0  0  0  0  0  0
   -3.0401   -1.0861   -6.0452 H   0  0  0  0  0  0  0  0  0  0  0  0
   -6.2513    2.0364   -3.5432 H   0  0  0  0  0  0  0  0  0  0  0  0
   -5.9685    4.1284   -2.2783 H   0  0  0  0  0  0  0  0  0  0  0  0
   -6.9043    2.8761    1.4475 H   0  0  0  0  0  0  0  0  0  0  0  0
   -9.2755    3.3665    1.7937 H   0  0  0  0  0  0  0  0  0  0  0  0
  -10.4402    5.2438    5.9541 H   0  0  0  0  0  0  0  0  0  0  0  0
  -12.1203    4.6737    5.8347 H   0  0  0  0  0  0  0  0  0  0  0  0
  -10.8687    3.5734    6.4485 H   0  0  0  0  0  0  0  0  0  0  0  0
   -8.5904    3.7152    6.0021 H   0  0  0  0  0  0  0  0  0  0  0  0
   -6.2210    3.3144    5.6508 H   0  0  0  0  0  0  0  0  0  0  0  0
   -5.5026    0.6480    4.7853 H   0  0  0  0  0  0  0  0  0  0  0  0
   -4.1250   -0.2189    6.6166 H   0  0  0  0  0  0  0  0  0  0  0  0
   -1.8888   -1.3656    6.8132 H   0  0  0  0  0  0  0  0  0  0  0  0
   -2.8839   -1.2069    8.2959 H   0  0  0  0  0  0  0  0  0  0  0  0
   -1.1271   -1.4109    8.4207 H   0  0  0  0  0  0  0  0  0  0  0  0
   -1.4267    3.0654    6.1467 H   0  0  0  0  0  0  0  0  0  0  0  0
   -2.8106    3.9230    4.2831 H   0  0  0  0  0  0  0  0  0  0  0  0
   -1.3855    0.1326   -1.1475 H   0  0  0  0  0  0  0  0  0  0  0  0
   -0.3499   -1.2117   -2.9158 H   0  0  0  0  0  0  0  0  0  0  0  0
    0.7534   -4.6047   -4.2191 H   0  0  0  0  0  0  0  0  0  0  0  0
    0.3049   -3.8241   -2.6851 H   0  0  0  0  0  0  0  0  0  0  0  0
    0.9511   -2.8470   -4.0404 H   0  0  0  0  0  0  0  0  0  0  0  0
   -3.9548   -3.4701   -3.3047 H   0  0  0  0  0  0  0  0  0  0  0  0
   -4.9842   -2.1459   -1.5028 H   0  0  0  0  0  0  0  0  0  0  0  0
   -5.1206   -0.4728    2.2277 H   0  0  0  0  0  0  0  0  0  0  0  0
   -7.5055   -0.0769    2.4966 H   0  0  0  0  0  0  0  0  0  0  0  0
   -9.7877   -0.8238    2.3346 H   0  0  0  0  0  0  0  0  0  0  0  0
  -11.1203    0.3497    2.2210 H   0  0  0  0  0  0  0  0  0  0  0  0
   -9.5663    0.8668    2.9036 H   0  0  0  0  0  0  0  0  0  0  0  0
   -7.8226    0.8683   -1.6603 H   0  0  0  0  0  0  0  0  0  0  0  0
   -5.4017    0.4682   -1.9289 H   0  0  0  0  0  0  0  0  0  0  0  0
   -0.4761   -3.7065    4.3153 H   0  0  0  0  0  0  0  0  0  0  0  0
    0.4510   -5.6227    5.5414 H   0  0  0  0  0  0  0  0  0  0  0  0
    4.4315   -4.8443    8.2588 H   0  0  0  0  0  0  0  0  0  0  0  0
    4.9048   -6.5216    7.9129 H   0  0  0  0  0  0  0  0  0  0  0  0
    5.0779   -5.2862    6.6439 H   0  0  0  0  0  0  0  0  0  0  0  0
    3.8856   -3.2926    6.5836 H   0  0  0  0  0  0  0  0  0  0  0  0
    2.9765   -1.4093    5.3509 H   0  0  0  0  0  0  0  0  0  0  0  0
    1.3794    0.6335    2.3436 H   0  0  0  0  0  0  0  0  0  0  0  0
    1.7713    2.9583    2.9559 H   0  0  0  0  0  0  0  0  0  0  0  0
    0.7599    5.0360    3.5491 H   0  0  0  0  0  0  0  0  0  0  0  0
    1.6492    6.3033    4.4245 H   0  0  0  0  0  0  0  0  0  0  0  0
    2.5531    5.0796    3.5078 H   0  0  0  0  0  0  0  0  0  0  0  0
    1.1976    1.9622    7.0787 H   0  0  0  0  0  0  0  0  0  0  0  0
    0.7908   -0.3777    6.4537 H   0  0  0  0  0  0  0  0  0  0  0  0
    2.6561   -3.0524    3.0275 H   0  0  0  0  0  0  0  0  0  0  0  0
    6.1091   -6.1277    3.9038 H   0  0  0  0  0  0  0  0  0  0  0  0
    7.2542   -4.5261    5.5866 H   0  0  0  0  0  0  0  0  0  0  0  0
    7.0455   -2.4809    7.8025 H   0  0  0  0  0  0  0  0  0  0  0  0
    8.5045   -2.7807    6.8910 H   0  0  0  0  0  0  0  0  0  0  0  0
    7.7958   -0.1398    8.2395 H   0  0  0  0  0  0  0  0  0  0  0  0
    8.9767   -1.3133    8.8150 H   0  0  0  0  0  0  0  0  0  0  0  0
    9.2614   -0.4423    7.3107 H   0  0  0  0  0  0  0  0  0  0  0  0
    7.6869   -0.2532    3.4546 H   0  0  0  0  0  0  0  0  0  0  0  0
    8.5841    0.3730    4.8185 H   0  0  0  0  0  0  0  0  0  0  0  0
    9.9317   -1.7260    4.9058 H   0  0  0  0  0  0  0  0  0  0  0  0
   10.0392   -0.9705    3.3176 H   0  0  0  0  0  0  0  0  0  0  0  0
    9.0046   -2.3782    3.5586 H   0  0  0  0  0  0  0  0  0  0  0  0
    5.9531    0.6215    6.6999 H   0  0  0  0  0  0  0  0  0  0  0  0
    4.7602   -0.6407    6.5649 H   0  0  0  0  0  0  0  0  0  0  0  0
    4.1193    1.2383    5.1308 H   0  0  0  0  0  0  0  0  0  0  0  0
    4.5603   -0.1131    4.0863 H   0  0  0  0  0  0  0  0  0  0  0  0
    5.6888    1.2136    4.3275 H   0  0  0  0  0  0  0  0  0  0  0  0
    0.3187   -6.9169   -0.8987 H   0  0  0  0  0  0  0  0  0  0  0  0
   -0.3114   -7.5065   -3.3377 H   0  0  0  0  0  0  0  0  0  0  0  0
    1.7628   -9.7505   -7.0100 H   0  0  0  0  0  0  0  0  0  0  0  0
    2.7478   -9.8832   -5.5700 H   0  0  0  0  0  0  0  0  0  0  0  0
    0.7072  -11.2652   -5.3691 H   0  0  0  0  0  0  0  0  0  0  0  0
    0.7056   -9.9836   -4.1578 H   0  0  0  0  0  0  0  0  0  0  0  0
   -0.3044   -9.8388   -5.5924 H   0  0  0  0  0  0  0  0  0  0  0  0
   -0.6179   -6.8576   -5.8480 H   0  0  0  0  0  0  0  0  0  0  0  0
    0.3934   -5.7247   -6.7009 H   0  0  0  0  0  0  0  0  0  0  0  0
    0.6133   -7.3569   -8.5958 H   0  0  0  0  0  0  0  0  0  0  0  0
   -0.4356   -8.4742   -7.7319 H   0  0  0  0  0  0  0  0  0  0  0  0
   -1.0635   -6.9209   -8.2754 H   0  0  0  0  0  0  0  0  0  0  0  0
    4.2466   -7.3147   -5.9292 H   0  0  0  0  0  0  0  0  0  0  0  0
    3.4547   -5.7782   -6.1517 H   0  0  0  0  0  0  0  0  0  0  0  0
    4.5504   -6.5852   -8.2441 H   0  0  0  0  0  0  0  0  0  0  0  0
    3.4950   -7.9956   -8.2487 H   0  0  0  0  0  0  0  0  0  0  0  0
    2.8130   -6.3847   -8.4545 H   0  0  0  0  0  0  0  0  0  0  0  0
    4.8436   -8.0106   -1.5806 H   0  0  0  0  0  0  0  0  0  0  0  0
    8.3966   -8.2221    0.0539 H   0  0  0  0  0  0  0  0  0  0  0  0
   11.0260  -10.7395   -3.9301 H   0  0  0  0  0  0  0  0  0  0  0  0
   10.4977  -11.2361   -6.2661 H   0  0  0  0  0  0  0  0  0  0  0  0
    8.9237  -11.3142   -8.1310 H   0  0  0  0  0  0  0  0  0  0  0  0
    6.6647  -10.9270   -9.0277 H   0  0  0  0  0  0  0  0  0  0  0  0
    4.8872  -10.0266   -7.5795 H   0  0  0  0  0  0  0  0  0  0  0  0
    5.3553   -9.5001   -5.2159 H   0  0  0  0  0  0  0  0  0  0  0  0
  1  2  2  0  0  0  0
  2  3  1  0  0  0  0
  3  4  2  0  0  0  0
  3  5  1  0  0  0  0
  5  6  2  0  0  0  0
  6  7  1  0  0  0  0
  7  8  2  0  0  0  0
  8  9  1  0  0  0  0
  9 10  2  0  0  0  0
 10 11  1  0  0  0  0
 11 12  2  0  0  0  0
 12 13  1  0  0  0  0
 13 14  3  0  0  0  0
 12 15  1  0  0  0  0
 15 16  3  0  0  0  0
  8 17  1  0  0  0  0
 17 18  1  0  0  0  0
 18 19  1  0  0  0  0
 19 20  2  0  0  0  0
 20 21  1  0  0  0  0
 21 22  1  0  0  0  0
 21 23  1  0  0  0  0
  1 24  1  0  0  0  0
 24 25  2  0  0  0  0
 25 26  1  0  0  0  0
 26 27  1  0  0  0  0
 27 28  2  0  0  0  0
 28 29  1  0  0  0  0
 29 30  2  0  0  0  0
 30 31  1  0  0  0  0
 31 32  1  0  0  0  0
 30 33  1  0  0  0  0
 33 34  2  0  0  0  0
 26 35  1  0  0  0  0
 35 36  2  0  0  0  0
 36 37  1  0  0  0  0
 37 38  2  0  0  0  0
 38 39  1  0  0  0  0
 39 40  1  0  0  0  0
 38 41  1  0  0  0  0
 41 42  2  0  0  0  0
 25 43  1  0  0  0  0
 43 44  1  0  0  0  0
 44 45  1  0  0  0  0
 45 46  2  0  0  0  0
 46 47  1  0  0  0  0
 47 48  1  0  0  0  0
 48 49  2  0  0  0  0
 49 50  1  0  0  0  0
 50 51  2  0  0  0  0
 51 52  1  0  0  0  0
 52 53  1  0  0  0  0
 51 54  1  0  0  0  0
 54 55  2  0  0  0  0
 47 56  1  0  0  0  0
 56 57  2  0  0  0  0
 57 58  1  0  0  0  0
 58 59  2  0  0  0  0
 59 60  1  0  0  0  0
 60 61  1  0  0  0  0
 59 62  1  0  0  0  0
 62 63  2  0  0  0  0
 46 64  1  0  0  0  0
 64 65  1  0  0  0  0
 45 66  1  0  0  0  0
 66 67  2  0  0  0  0
 67 68  1  0  0  0  0
 68 69  1  0  0  0  0
 69 70  2  0  0  0  0
 70 71  1  0  0  0  0
 71 72  2  0  0  0  0
 72 73  1  0  0  0  0
 73 74  1  0  0  0  0
 72 75  1  0  0  0  0
 75 76  2  0  0  0  0
 68 77  1  0  0  0  0
 77 78  2  0  0  0  0
 78 79  1  0  0  0  0
 79 80  2  0  0  0  0
 80 81  1  0  0  0  0
 81 82  1  0  0  0  0
 80 83  1  0  0  0  0
 83 84  2  0  0  0  0
 67 85  1  0  0  0  0
 85 86  1  0  0  0  0
 86 87  1  0  0  0  0
 87 88  2  0  0  0  0
 88 89  1  0  0  0  0
 89 90  1  0  0  0  0
 90 91  2  0  0  0  0
 91 92  1  0  0  0  0
 92 93  2  0  0  0  0
 93 94  1  0  0  0  0
 94 95  1  0  0  0  0
 93 96  1  0  0  0  0
 96 97  2  0  0  0  0
 89 98  1  0  0  0  0
 98 99  2  0  0  0  0
 99100  1  0  0  0  0
100101  2  0  0  0  0
101102  1  0  0  0  0
102103  1  0  0  0  0
101104  1  0  0  0  0
104105  2  0  0  0  0
 88106  1  0  0  0  0
106107  1  0  0  0  0
 87108  1  0  0  0  0
108109  2  0  0  0  0
109110  1  0  0  0  0
110111  2  0  0  0  0
111112  1  0  0  0  0
112113  2  0  0  0  0
113114  1  0  0  0  0
114115  2  0  0  0  0
115116  1  0  0  0  0
116117  1  0  0  0  0
117118  1  0  0  0  0
116119  1  0  0  0  0
119120  1  0  0  0  0
116121  1  0  0  0  0
121122  1  0  0  0  0
115123  1  0  0  0  0
111124  1  0  0  0  0
124125  2  0  0  0  0
125126  1  0  0  0  0
126127  1  0  0  0  0
127128  2  0  0  0  0
128129  1  0  0  0  0
129130  2  0  0  0  0
130131  1  0  0  0  0
131132  1  0  0  0  0
132133  1  0  0  0  0
131134  1  0  0  0  0
134135  1  0  0  0  0
131136  1  0  0  0  0
136137  1  0  0  0  0
130138  1  0  0  0  0
126139  2  0  0  0  0
139140  1  0  0  0  0
125141  1  0  0  0  0
141142  2  0  0  0  0
142143  1  0  0  0  0
142144  1  0  0  0  0
144145  2  0  0  0  0
145146  1  0  0  0  0
146147  2  0  0  0  0
146148  1  0  0  0  0
148149  2  0  0  0  0
149150  1  0  0  0  0
150151  2  0  0  0  0
151152  1  0  0  0  0
152153  2  0  0  0  0
153154  1  0  0  0  0
154155  2  0  0  0  0
155156  1  0  0  0  0
156157  2  0  0  0  0
149158  1  0  0  0  0
158159  2  0  0  0  0
159160  1  0  0  0  0
160161  3  0  0  0  0
159162  1  0  0  0  0
162163  3  0  0  0  0
 11  2  1  0  0  0  0
 23 17  1  0  0  0  0
 65 24  1  0  0  0  0
107 66  1  0  0  0  0
140108  1  0  0  0  0
158145  1  0  0  0  0
 10  5  1  0  0  0  0
 22 18  1  0  0  0  0
 34 27  1  0  0  0  0
 42 35  1  0  0  0  0
 64 43  2  0  0  0  0
 76 69  1  0  0  0  0
 84 77  1  0  0  0  0
106 85  2  0  0  0  0
139110  1  0  0  0  0
157148  1  0  0  0  0
 23  7  1  0  0  0  0
 55 48  1  0  0  0  0
 63 56  1  0  0  0  0
 97 90  1  0  0  0  0
105 98  1  0  0  0  0
123112  1  0  0  0  0
143124  1  0  0  0  0
157152  1  0  0  0  0
138127  1  0  0  0  0
  1164  1  0  0  0  0
  6165  1  0  0  0  0
  9166  1  0  0  0  0
 17167  1  0  0  0  0
 18168  1  0  0  0  0
 19169  1  0  0  0  0
 20170  1  0  0  0  0
 21171  1  0  0  0  0
 22172  1  0  0  0  0
 22173  1  0  0  0  0
 23174  1  0  0  0  0
 28175  1  0  0  0  0
 29176  1  0  0  0  0
 32177  1  0  0  0  0
 32178  1  0  0  0  0
 32179  1  0  0  0  0
 33180  1  0  0  0  0
 34181  1  0  0  0  0
 36182  1  0  0  0  0
 37183  1  0  0  0  0
 40184  1  0  0  0  0
 40185  1  0  0  0  0
 40186  1  0  0  0  0
 41187  1  0  0  0  0
 42188  1  0  0  0  0
 49189  1  0  0  0  0
 50190  1  0  0  0  0
 53191  1  0  0  0  0
 53192  1  0  0  0  0
 53193  1  0  0  0  0
 54194  1  0  0  0  0
 55195  1  0  0  0  0
 57196  1  0  0  0  0
 58197  1  0  0  0  0
 61198  1  0  0  0  0
 61199  1  0  0  0  0
 61200  1  0  0  0  0
 62201  1  0  0  0  0
 63202  1  0  0  0  0
 70203  1  0  0  0  0
 71204  1  0  0  0  0
 74205  1  0  0  0  0
 74206  1  0  0  0  0
 74207  1  0  0  0  0
 75208  1  0  0  0  0
 76209  1  0  0  0  0
 78210  1  0  0  0  0
 79211  1  0  0  0  0
 82212  1  0  0  0  0
 82213  1  0  0  0  0
 82214  1  0  0  0  0
 83215  1  0  0  0  0
 84216  1  0  0  0  0
 91217  1  0  0  0  0
 92218  1  0  0  0  0
 95219  1  0  0  0  0
 95220  1  0  0  0  0
 95221  1  0  0  0  0
 96222  1  0  0  0  0
 97223  1  0  0  0  0
 99224  1  0  0  0  0
100225  1  0  0  0  0
103226  1  0  0  0  0
103227  1  0  0  0  0
103228  1  0  0  0  0
104229  1  0  0  0  0
105230  1  0  0  0  0
109231  1  0  0  0  0
113232  1  0  0  0  0
114233  1  0  0  0  0
117234  1  0  0  0  0
117235  1  0  0  0  0
118236  1  0  0  0  0
118237  1  0  0  0  0
118238  1  0  0  0  0
119239  1  0  0  0  0
119240  1  0  0  0  0
120241  1  0  0  0  0
120242  1  0  0  0  0
120243  1  0  0  0  0
121244  1  0  0  0  0
121245  1  0  0  0  0
122246  1  0  0  0  0
122247  1  0  0  0  0
122248  1  0  0  0  0
128249  1  0  0  0  0
129250  1  0  0  0  0
132251  1  0  0  0  0
132252  1  0  0  0  0
133253  1  0  0  0  0
133254  1  0  0  0  0
133255  1  0  0  0  0
134256  1  0  0  0  0
134257  1  0  0  0  0
135258  1  0  0  0  0
135259  1  0  0  0  0
135260  1  0  0  0  0
136261  1  0  0  0  0
136262  1  0  0  0  0
137263  1  0  0  0  0
137264  1  0  0  0  0
137265  1  0  0  0  0
141266  1  0  0  0  0
144267  1  0  0  0  0
150268  1  0  0  0  0
151269  1  0  0  0  0
153270  1  0  0  0  0
154271  1  0  0  0  0
155272  1  0  0  0  0
156273  1  0  0  0  0
M  END
