
  xtb     02122205163D
 energy: -376.268105172122 gnorm: 0.000359991857 xtb: 6.4.1 (unknown)
216238  0     0  0            999 V2000
    6.6724   -6.8052    6.4318 C   0  0  0  0  0  0  0  0  0  0  0  0
    7.9668   -7.0470    6.0983 C   0  0  0  0  0  0  0  0  0  0  0  0
    8.6264   -8.3180    6.5046 C   0  0  0  0  0  0  0  0  0  0  0  0
    8.2416   -9.0986    7.3454 O   0  0  0  0  0  0  0  0  0  0  0  0
    9.8037   -8.4398    5.6219 C   0  0  0  0  0  0  0  0  0  0  0  0
   10.6814   -9.5185    5.5294 C   0  0  0  0  0  0  0  0  0  0  0  0
   11.6803   -9.3505    4.6006 C   0  0  0  0  0  0  0  0  0  0  0  0
   11.8021   -8.1964    3.8139 C   0  0  0  0  0  0  0  0  0  0  0  0
   10.9517   -7.1200    3.8994 C   0  0  0  0  0  0  0  0  0  0  0  0
    9.9306   -7.2700    4.8416 C   0  0  0  0  0  0  0  0  0  0  0  0
    8.8920   -6.3304    5.2483 C   0  0  0  0  0  0  0  0  0  0  0  0
    8.9370   -4.9685    5.0956 C   0  0  0  0  0  0  0  0  0  0  0  0
    8.1011   -4.0963    5.8206 C   0  0  0  0  0  0  0  0  0  0  0  0
    7.4916   -3.3524    6.4488 N   0  0  0  0  0  0  0  0  0  0  0  0
    9.8746   -4.2866    4.2968 C   0  0  0  0  0  0  0  0  0  0  0  0
   10.5932   -3.6811    3.6369 N   0  0  0  0  0  0  0  0  0  0  0  0
   13.0201   -8.7185    3.0937 C   0  0  0  0  0  0  0  0  0  0  0  0
   12.8006   -9.2572    1.6642 C   0  0  0  0  0  0  0  0  0  0  0  0
   14.0187  -10.1157    1.4106 C   0  0  0  0  0  0  0  0  0  0  0  0
   13.9056  -11.2072    2.1566 C   0  0  0  0  0  0  0  0  0  0  0  0
   12.6090  -11.1048    2.9271 C   0  0  0  0  0  0  0  0  0  0  0  0
   11.7517  -10.3514    1.9019 C   0  0  0  0  0  0  0  0  0  0  0  0
   12.8866  -10.0035    3.9724 C   0  0  0  0  0  0  0  0  0  0  0  0
    5.7537   -5.9051    5.8342 C   0  0  0  0  0  0  0  0  0  0  0  0
    4.5740   -5.4781    6.3888 C   0  0  0  0  0  0  0  0  0  0  0  0
    3.8205   -4.6221    5.5604 C   0  0  0  0  0  0  0  0  0  0  0  0
    2.5685   -4.0215    5.8410 C   0  0  0  0  0  0  0  0  0  0  0  0
    2.0371   -3.9921    7.1775 C   0  0  0  0  0  0  0  0  0  0  0  0
    2.7430   -3.8830    8.3499 C   0  0  0  0  0  0  0  0  0  0  0  0
    1.9370   -3.7440    9.4882 C   0  0  0  0  0  0  0  0  0  0  0  0
    0.6017   -3.7574    9.1927 C   0  0  0  0  0  0  0  0  0  0  0  0
   -0.7907   -3.5823   10.2293 S   0  0  0  0  0  0  0  0  0  0  0  0
   -0.0997   -3.9765   11.8761 C   0  0  0  0  0  0  0  0  0  0  0  0
    0.2884   -5.4363   12.0010 C   0  0  0  0  0  0  0  0  0  0  0  0
    0.3213   -3.9407    7.4914 S   0  0  0  0  0  0  0  0  0  0  0  0
    1.9473   -3.3814    4.7718 C   0  0  0  0  0  0  0  0  0  0  0  0
    2.5682   -3.1918    3.5127 C   0  0  0  0  0  0  0  0  0  0  0  0
    3.8527   -3.7215    3.2554 C   0  0  0  0  0  0  0  0  0  0  0  0
    4.5368   -3.5196    1.9984 C   0  0  0  0  0  0  0  0  0  0  0  0
    5.8773   -3.3429    1.7771 C   0  0  0  0  0  0  0  0  0  0  0  0
    6.2154   -3.1776    0.4246 C   0  0  0  0  0  0  0  0  0  0  0  0
    5.1315   -3.2387   -0.4071 C   0  0  0  0  0  0  0  0  0  0  0  0
    5.1645   -2.9768   -2.1318 S   0  0  0  0  0  0  0  0  0  0  0  0
    3.4854   -3.4865   -2.6412 C   0  0  0  0  0  0  0  0  0  0  0  0
    3.3133   -4.9915   -2.6339 C   0  0  0  0  0  0  0  0  0  0  0  0
    3.6665   -3.5004    0.4843 S   0  0  0  0  0  0  0  0  0  0  0  0
    4.4297   -4.4473    4.2921 C   0  0  0  0  0  0  0  0  0  0  0  0
    5.9497   -5.2909    4.2007 S   0  0  0  0  0  0  0  0  0  0  0  0
    1.7992   -2.3506    2.6790 C   0  0  0  0  0  0  0  0  0  0  0  0
    0.6367   -1.9154    3.2454 C   0  0  0  0  0  0  0  0  0  0  0  0
    0.3883   -2.6056    4.8312 S   0  0  0  0  0  0  0  0  0  0  0  0
   -0.2585   -0.9880    2.6269 C   0  0  0  0  0  0  0  0  0  0  0  0
   -0.9271    0.1101    3.1505 C   0  0  0  0  0  0  0  0  0  0  0  0
   -0.9236    0.5191    4.4720 N   0  0  0  0  0  0  0  0  0  0  0  0
    0.2152    0.3401    5.2690 C   0  0  0  0  0  0  0  0  0  0  0  0
    1.4865    0.4697    4.7148 C   0  0  0  0  0  0  0  0  0  0  0  0
    2.6096    0.1445    5.4470 C   0  0  0  0  0  0  0  0  0  0  0  0
    2.4813   -0.3006    6.7565 C   0  0  0  0  0  0  0  0  0  0  0  0
    3.8539   -0.8238    7.7328 S   0  0  0  0  0  0  0  0  0  0  0  0
    5.1170   -1.2000    6.4865 C   0  0  0  0  0  0  0  0  0  0  0  0
    1.2185   -0.3423    7.3434 C   0  0  0  0  0  0  0  0  0  0  0  0
    0.0957   -0.0289    6.6099 C   0  0  0  0  0  0  0  0  0  0  0  0
   -2.0616    1.1544    4.9849 C   0  0  0  0  0  0  0  0  0  0  0  0
   -1.9388    2.2151    5.8833 C   0  0  0  0  0  0  0  0  0  0  0  0
   -3.0616    2.8529    6.3579 C   0  0  0  0  0  0  0  0  0  0  0  0
   -4.3326    2.4556    5.9442 C   0  0  0  0  0  0  0  0  0  0  0  0
   -5.6942    3.3622    6.6062 S   0  0  0  0  0  0  0  0  0  0  0  0
   -7.1270    2.7309    5.6870 C   0  0  0  0  0  0  0  0  0  0  0  0
   -4.4603    1.3901    5.0643 C   0  0  0  0  0  0  0  0  0  0  0  0
   -3.3335    0.7441    4.5946 C   0  0  0  0  0  0  0  0  0  0  0  0
   -1.5574    0.8493    2.1143 C   0  0  0  0  0  0  0  0  0  0  0  0
   -2.4290    2.3487    2.0671 S   0  0  0  0  0  0  0  0  0  0  0  0
   -2.4583    2.2838    0.3206 C   0  0  0  0  0  0  0  0  0  0  0  0
   -1.9136    1.1170   -0.1872 C   0  0  0  0  0  0  0  0  0  0  0  0
   -1.9585    0.7650   -1.5331 N   0  0  0  0  0  0  0  0  0  0  0  0
   -3.1196    1.0780   -2.2603 C   0  0  0  0  0  0  0  0  0  0  0  0
   -3.0493    1.6193   -3.5448 C   0  0  0  0  0  0  0  0  0  0  0  0
   -4.1928    2.0315   -4.1906 C   0  0  0  0  0  0  0  0  0  0  0  0
   -5.4384    1.9013   -3.5819 C   0  0  0  0  0  0  0  0  0  0  0  0
   -6.8226    2.5572   -4.4610 S   0  0  0  0  0  0  0  0  0  0  0  0
   -8.2528    1.7770   -3.6573 C   0  0  0  0  0  0  0  0  0  0  0  0
   -5.5218    1.3113   -2.3285 C   0  0  0  0  0  0  0  0  0  0  0  0
   -4.3732    0.9036   -1.6791 C   0  0  0  0  0  0  0  0  0  0  0  0
   -0.7771    0.4113   -2.1957 C   0  0  0  0  0  0  0  0  0  0  0  0
   -0.8221   -0.4409   -3.2998 C   0  0  0  0  0  0  0  0  0  0  0  0
    0.3258   -0.7251   -4.0026 C   0  0  0  0  0  0  0  0  0  0  0  0
    1.5480   -0.1775   -3.6154 C   0  0  0  0  0  0  0  0  0  0  0  0
    2.9366   -0.5588   -4.6372 S   0  0  0  0  0  0  0  0  0  0  0  0
    4.3012    0.3771   -3.8981 C   0  0  0  0  0  0  0  0  0  0  0  0
    1.6063    0.6280   -2.4880 C   0  0  0  0  0  0  0  0  0  0  0  0
    0.4517    0.9211   -1.7879 C   0  0  0  0  0  0  0  0  0  0  0  0
   -1.3734    0.3207    0.8467 C   0  0  0  0  0  0  0  0  0  0  0  0
   -0.4058   -1.1039    0.8753 S   0  0  0  0  0  0  0  0  0  0  0  0
   -2.8374    3.3589   -0.5562 C   0  0  0  0  0  0  0  0  0  0  0  0
   -4.0109    4.0035   -0.7782 C   0  0  0  0  0  0  0  0  0  0  0  0
   -4.0127    4.7800   -1.9689 C   0  0  0  0  0  0  0  0  0  0  0  0
   -5.0795    5.4914   -2.5529 C   0  0  0  0  0  0  0  0  0  0  0  0
   -6.4052    5.5463   -1.9775 C   0  0  0  0  0  0  0  0  0  0  0  0
   -7.3108    6.5708   -2.0396 C   0  0  0  0  0  0  0  0  0  0  0  0
   -8.5561    6.2739   -1.4600 C   0  0  0  0  0  0  0  0  0  0  0  0
   -8.6179    5.0029   -0.9676 C   0  0  0  0  0  0  0  0  0  0  0  0
   -9.9309    4.1562   -0.1795 S   0  0  0  0  0  0  0  0  0  0  0  0
  -11.3903    4.9871   -0.9026 C   0  0  0  0  0  0  0  0  0  0  0  0
  -11.5047    4.7447   -2.3942 C   0  0  0  0  0  0  0  0  0  0  0  0
   -7.1166    4.1643   -1.1851 S   0  0  0  0  0  0  0  0  0  0  0  0
   -4.8233    6.1038   -3.7808 C   0  0  0  0  0  0  0  0  0  0  0  0
   -3.5705    6.0180   -4.4475 C   0  0  0  0  0  0  0  0  0  0  0  0
   -2.4850    5.3307   -3.8483 C   0  0  0  0  0  0  0  0  0  0  0  0
   -1.1947    5.2167   -4.4863 C   0  0  0  0  0  0  0  0  0  0  0  0
   -0.5124    6.1458   -5.2283 C   0  0  0  0  0  0  0  0  0  0  0  0
    0.7429    5.7088   -5.6826 C   0  0  0  0  0  0  0  0  0  0  0  0
    1.0236    4.4272   -5.2984 C   0  0  0  0  0  0  0  0  0  0  0  0
    2.4400    3.4422   -5.5573 S   0  0  0  0  0  0  0  0  0  0  0  0
    3.1125    4.1340   -7.1109 C   0  0  0  0  0  0  0  0  0  0  0  0
    2.1874    3.8928   -8.2863 C   0  0  0  0  0  0  0  0  0  0  0  0
   -0.2612    3.7420   -4.3618 S   0  0  0  0  0  0  0  0  0  0  0  0
   -2.7564    4.7343   -2.6261 C   0  0  0  0  0  0  0  0  0  0  0  0
   -1.6067    3.7991   -1.7253 S   0  0  0  0  0  0  0  0  0  0  0  0
   -3.6239    6.6040   -5.7170 C   0  0  0  0  0  0  0  0  0  0  0  0
   -4.8479    7.1733   -6.0310 C   0  0  0  0  0  0  0  0  0  0  0  0
   -5.9997    6.9640   -4.7309 S   0  0  0  0  0  0  0  0  0  0  0  0
   -5.0506    7.8457   -7.2486 C   0  0  0  0  0  0  0  0  0  0  0  0
   -6.1424    8.5202   -7.7299 C   0  0  0  0  0  0  0  0  0  0  0  0
   -7.4404    8.6671   -7.0533 C   0  0  0  0  0  0  0  0  0  0  0  0
   -7.7766    8.2385   -5.9684 O   0  0  0  0  0  0  0  0  0  0  0  0
   -8.2841    9.4628   -7.9727 C   0  0  0  0  0  0  0  0  0  0  0  0
   -9.5906    9.8702   -7.7998 C   0  0  0  0  0  0  0  0  0  0  0  0
  -10.1706   10.6199   -8.8175 C   0  0  0  0  0  0  0  0  0  0  0  0
  -11.5810   11.1216   -8.6754 C   0  0  0  0  0  0  0  0  0  0  0  0
  -11.6162   12.4101   -8.2819 F   0  0  0  0  0  0  0  0  0  0  0  0
  -12.2939   10.4338   -7.7741 F   0  0  0  0  0  0  0  0  0  0  0  0
  -12.2652   11.0667   -9.8291 F   0  0  0  0  0  0  0  0  0  0  0  0
   -9.4546   10.9498   -9.9641 C   0  0  0  0  0  0  0  0  0  0  0  0
   -8.1415   10.5351  -10.1300 C   0  0  0  0  0  0  0  0  0  0  0  0
   -7.5480    9.7846   -9.1253 C   0  0  0  0  0  0  0  0  0  0  0  0
   -6.2051    9.2149   -9.0003 C   0  0  0  0  0  0  0  0  0  0  0  0
   -5.2052    9.3530   -9.9303 C   0  0  0  0  0  0  0  0  0  0  0  0
   -3.8975    8.8348   -9.8265 C   0  0  0  0  0  0  0  0  0  0  0  0
   -2.8119    8.4576   -9.8262 N   0  0  0  0  0  0  0  0  0  0  0  0
   -5.3433   10.0581  -11.1445 C   0  0  0  0  0  0  0  0  0  0  0  0
   -5.3804   10.6146  -12.1480 N   0  0  0  0  0  0  0  0  0  0  0  0
    6.2613   -7.4439    7.2077 H   0  0  0  0  0  0  0  0  0  0  0  0
   10.5584  -10.3887    6.1550 H   0  0  0  0  0  0  0  0  0  0  0  0
   11.0498   -6.2352    3.2918 H   0  0  0  0  0  0  0  0  0  0  0  0
   13.9202   -8.1139    3.1872 H   0  0  0  0  0  0  0  0  0  0  0  0
   12.5738   -8.4975    0.9212 H   0  0  0  0  0  0  0  0  0  0  0  0
   14.8368   -9.8245    0.7782 H   0  0  0  0  0  0  0  0  0  0  0  0
   14.6102  -12.0098    2.2719 H   0  0  0  0  0  0  0  0  0  0  0  0
   12.2073  -12.0289    3.3342 H   0  0  0  0  0  0  0  0  0  0  0  0
   11.5649  -10.9434    1.0075 H   0  0  0  0  0  0  0  0  0  0  0  0
   10.8074   -9.9825    2.2981 H   0  0  0  0  0  0  0  0  0  0  0  0
   13.6984  -10.2561    4.6518 H   0  0  0  0  0  0  0  0  0  0  0  0
    4.2583   -5.7895    7.3676 H   0  0  0  0  0  0  0  0  0  0  0  0
    3.8153   -3.8298    8.3912 H   0  0  0  0  0  0  0  0  0  0  0  0
    2.3397   -3.6151   10.4757 H   0  0  0  0  0  0  0  0  0  0  0  0
   -0.9064   -3.7243   12.5639 H   0  0  0  0  0  0  0  0  0  0  0  0
    0.7401   -3.3073   12.0572 H   0  0  0  0  0  0  0  0  0  0  0  0
    0.6666   -5.6322   13.0022 H   0  0  0  0  0  0  0  0  0  0  0  0
   -0.5749   -6.0732   11.8234 H   0  0  0  0  0  0  0  0  0  0  0  0
    1.0616   -5.6943   11.2806 H   0  0  0  0  0  0  0  0  0  0  0  0
    6.6028   -3.2889    2.5689 H   0  0  0  0  0  0  0  0  0  0  0  0
    7.2158   -3.0135    0.0695 H   0  0  0  0  0  0  0  0  0  0  0  0
    2.7756   -2.9902   -1.9783 H   0  0  0  0  0  0  0  0  0  0  0  0
    3.3767   -3.0808   -3.6467 H   0  0  0  0  0  0  0  0  0  0  0  0
    4.0290   -5.4587   -3.3065 H   0  0  0  0  0  0  0  0  0  0  0  0
    3.4585   -5.3966   -1.6346 H   0  0  0  0  0  0  0  0  0  0  0  0
    2.3074   -5.2424   -2.9632 H   0  0  0  0  0  0  0  0  0  0  0  0
    2.1123   -2.0069    1.7109 H   0  0  0  0  0  0  0  0  0  0  0  0
    1.5944    0.8074    3.6945 H   0  0  0  0  0  0  0  0  0  0  0  0
    3.5795    0.2394    4.9857 H   0  0  0  0  0  0  0  0  0  0  0  0
    5.8797   -1.7892    6.9855 H   0  0  0  0  0  0  0  0  0  0  0  0
    5.5564   -0.2828    6.1052 H   0  0  0  0  0  0  0  0  0  0  0  0
    4.6691   -1.7829    5.6866 H   0  0  0  0  0  0  0  0  0  0  0  0
    1.1270   -0.6578    8.3713 H   0  0  0  0  0  0  0  0  0  0  0  0
   -0.8834   -0.1113    7.0564 H   0  0  0  0  0  0  0  0  0  0  0  0
   -0.9575    2.5394    6.1952 H   0  0  0  0  0  0  0  0  0  0  0  0
   -2.9693    3.6783    7.0470 H   0  0  0  0  0  0  0  0  0  0  0  0
   -6.9636    2.8536    4.6205 H   0  0  0  0  0  0  0  0  0  0  0  0
   -7.3096    1.6914    5.9437 H   0  0  0  0  0  0  0  0  0  0  0  0
   -7.9681    3.3396    6.0041 H   0  0  0  0  0  0  0  0  0  0  0  0
   -5.4290    1.0454    4.7410 H   0  0  0  0  0  0  0  0  0  0  0  0
   -3.4419   -0.0945    3.9224 H   0  0  0  0  0  0  0  0  0  0  0  0
   -2.0896    1.7421   -4.0220 H   0  0  0  0  0  0  0  0  0  0  0  0
   -4.1297    2.4805   -5.1702 H   0  0  0  0  0  0  0  0  0  0  0  0
   -9.1068    2.0223   -4.2811 H   0  0  0  0  0  0  0  0  0  0  0  0
   -8.3960    2.1813   -2.6595 H   0  0  0  0  0  0  0  0  0  0  0  0
   -8.1093    0.7012   -3.6291 H   0  0  0  0  0  0  0  0  0  0  0  0
   -6.4727    1.1798   -1.8386 H   0  0  0  0  0  0  0  0  0  0  0  0
   -4.4477    0.4655   -0.6947 H   0  0  0  0  0  0  0  0  0  0  0  0
   -1.7666   -0.8626   -3.6088 H   0  0  0  0  0  0  0  0  0  0  0  0
    0.2906   -1.3693   -4.8678 H   0  0  0  0  0  0  0  0  0  0  0  0
    4.0595    1.4361   -3.9053 H   0  0  0  0  0  0  0  0  0  0  0  0
    5.1615    0.1866   -4.5318 H   0  0  0  0  0  0  0  0  0  0  0  0
    4.5016    0.0130   -2.8948 H   0  0  0  0  0  0  0  0  0  0  0  0
    2.5382    1.0549   -2.1553 H   0  0  0  0  0  0  0  0  0  0  0  0
    0.5015    1.5796   -0.9333 H   0  0  0  0  0  0  0  0  0  0  0  0
   -4.8634    3.8744   -0.1384 H   0  0  0  0  0  0  0  0  0  0  0  0
   -7.0870    7.5347   -2.4579 H   0  0  0  0  0  0  0  0  0  0  0  0
   -9.3654    6.9791   -1.4178 H   0  0  0  0  0  0  0  0  0  0  0  0
  -11.3280    6.0470   -0.6608 H   0  0  0  0  0  0  0  0  0  0  0  0
  -12.2316    4.5507   -0.3648 H   0  0  0  0  0  0  0  0  0  0  0  0
  -11.5755    3.6789   -2.6000 H   0  0  0  0  0  0  0  0  0  0  0  0
  -10.6388    5.1434   -2.9191 H   0  0  0  0  0  0  0  0  0  0  0  0
  -12.3975    5.2341   -2.7777 H   0  0  0  0  0  0  0  0  0  0  0  0
   -0.8719    7.1453   -5.3958 H   0  0  0  0  0  0  0  0  0  0  0  0
    1.4075    6.3282   -6.2567 H   0  0  0  0  0  0  0  0  0  0  0  0
    3.3111    5.1926   -6.9504 H   0  0  0  0  0  0  0  0  0  0  0  0
    4.0597    3.6114   -7.2408 H   0  0  0  0  0  0  0  0  0  0  0  0
    1.2306    4.3881   -8.1341 H   0  0  0  0  0  0  0  0  0  0  0  0
    2.6389    4.2837   -9.1956 H   0  0  0  0  0  0  0  0  0  0  0  0
    2.0097    2.8275   -8.4142 H   0  0  0  0  0  0  0  0  0  0  0  0
   -2.8049    6.6031   -6.4133 H   0  0  0  0  0  0  0  0  0  0  0  0
   -4.1760    7.8237   -7.8875 H   0  0  0  0  0  0  0  0  0  0  0  0
  -10.1352    9.6083   -6.9058 H   0  0  0  0  0  0  0  0  0  0  0  0
   -9.9320   11.5335  -10.7364 H   0  0  0  0  0  0  0  0  0  0  0  0
   -7.6109   10.8020  -11.0285 H   0  0  0  0  0  0  0  0  0  0  0  0
  1  2  2  0  0  0  0
  2  3  1  0  0  0  0
  3  4  2  0  0  0  0
  3  5  1  0  0  0  0
  5  6  2  0  0  0  0
  6  7  1  0  0  0  0
  7  8  2  0  0  0  0
  8  9  1  0  0  0  0
  9 10  2  0  0  0  0
 10 11  1  0  0  0  0
 11 12  2  0  0  0  0
 12 13  1  0  0  0  0
 13 14  3  0  0  0  0
 12 15  1  0  0  0  0
 15 16  3  0  0  0  0
  8 17  1  0  0  0  0
 17 18  1  0  0  0  0
 18 19  1  0  0  0  0
 19 20  2  0  0  0  0
 20 21  1  0  0  0  0
 21 22  1  0  0  0  0
 21 23  1  0  0  0  0
  1 24  1  0  0  0  0
 24 25  2  0  0  0  0
 25 26  1  0  0  0  0
 26 27  2  0  0  0  0
 27 28  1  0  0  0  0
 28 29  2  0  0  0  0
 29 30  1  0  0  0  0
 30 31  2  0  0  0  0
 31 32  1  0  0  0  0
 32 33  1  0  0  0  0
 33 34  1  0  0  0  0
 31 35  1  0  0  0  0
 27 36  1  0  0  0  0
 36 37  2  0  0  0  0
 37 38  1  0  0  0  0
 38 39  1  0  0  0  0
 39 40  2  0  0  0  0
 40 41  1  0  0  0  0
 41 42  2  0  0  0  0
 42 43  1  0  0  0  0
 43 44  1  0  0  0  0
 44 45  1  0  0  0  0
 42 46  1  0  0  0  0
 38 47  2  0  0  0  0
 47 48  1  0  0  0  0
 37 49  1  0  0  0  0
 49 50  2  0  0  0  0
 50 51  1  0  0  0  0
 50 52  1  0  0  0  0
 52 53  2  0  0  0  0
 53 54  1  0  0  0  0
 54 55  1  0  0  0  0
 55 56  2  0  0  0  0
 56 57  1  0  0  0  0
 57 58  2  0  0  0  0
 58 59  1  0  0  0  0
 59 60  1  0  0  0  0
 58 61  1  0  0  0  0
 61 62  2  0  0  0  0
 54 63  1  0  0  0  0
 63 64  2  0  0  0  0
 64 65  1  0  0  0  0
 65 66  2  0  0  0  0
 66 67  1  0  0  0  0
 67 68  1  0  0  0  0
 66 69  1  0  0  0  0
 69 70  2  0  0  0  0
 53 71  1  0  0  0  0
 71 72  1  0  0  0  0
 72 73  1  0  0  0  0
 73 74  2  0  0  0  0
 74 75  1  0  0  0  0
 75 76  1  0  0  0  0
 76 77  2  0  0  0  0
 77 78  1  0  0  0  0
 78 79  2  0  0  0  0
 79 80  1  0  0  0  0
 80 81  1  0  0  0  0
 79 82  1  0  0  0  0
 82 83  2  0  0  0  0
 75 84  1  0  0  0  0
 84 85  2  0  0  0  0
 85 86  1  0  0  0  0
 86 87  2  0  0  0  0
 87 88  1  0  0  0  0
 88 89  1  0  0  0  0
 87 90  1  0  0  0  0
 90 91  2  0  0  0  0
 74 92  1  0  0  0  0
 92 93  1  0  0  0  0
 73 94  1  0  0  0  0
 94 95  2  0  0  0  0
 95 96  1  0  0  0  0
 96 97  2  0  0  0  0
 97 98  1  0  0  0  0
 98 99  2  0  0  0  0
 99100  1  0  0  0  0
100101  2  0  0  0  0
101102  1  0  0  0  0
102103  1  0  0  0  0
103104  1  0  0  0  0
101105  1  0  0  0  0
 97106  1  0  0  0  0
106107  2  0  0  0  0
107108  1  0  0  0  0
108109  1  0  0  0  0
109110  2  0  0  0  0
110111  1  0  0  0  0
111112  2  0  0  0  0
112113  1  0  0  0  0
113114  1  0  0  0  0
114115  1  0  0  0  0
112116  1  0  0  0  0
108117  2  0  0  0  0
117118  1  0  0  0  0
107119  1  0  0  0  0
119120  2  0  0  0  0
120121  1  0  0  0  0
120122  1  0  0  0  0
122123  2  0  0  0  0
123124  1  0  0  0  0
124125  2  0  0  0  0
124126  1  0  0  0  0
126127  2  0  0  0  0
127128  1  0  0  0  0
128129  1  0  0  0  0
129130  1  0  0  0  0
129131  1  0  0  0  0
129132  1  0  0  0  0
128133  2  0  0  0  0
133134  1  0  0  0  0
134135  2  0  0  0  0
135136  1  0  0  0  0
136137  2  0  0  0  0
137138  1  0  0  0  0
138139  3  0  0  0  0
137140  1  0  0  0  0
140141  3  0  0  0  0
 11  2  1  0  0  0  0
 23 17  1  0  0  0  0
 48 24  1  0  0  0  0
 93 52  1  0  0  0  0
118 94  1  0  0  0  0
136123  1  0  0  0  0
 10  5  1  0  0  0  0
 22 18  1  0  0  0  0
 47 26  1  0  0  0  0
 62 55  1  0  0  0  0
 70 63  1  0  0  0  0
 92 71  2  0  0  0  0
117 96  1  0  0  0  0
135126  1  0  0  0  0
 23  7  1  0  0  0  0
 35 28  1  0  0  0  0
 51 36  1  0  0  0  0
 83 76  1  0  0  0  0
 91 84  1  0  0  0  0
105 98  1  0  0  0  0
121106  1  0  0  0  0
 46 39  1  0  0  0  0
116109  1  0  0  0  0
  1142  1  0  0  0  0
  6143  1  0  0  0  0
  9144  1  0  0  0  0
 17145  1  0  0  0  0
 18146  1  0  0  0  0
 19147  1  0  0  0  0
 20148  1  0  0  0  0
 21149  1  0  0  0  0
 22150  1  0  0  0  0
 22151  1  0  0  0  0
 23152  1  0  0  0  0
 25153  1  0  0  0  0
 29154  1  0  0  0  0
 30155  1  0  0  0  0
 33156  1  0  0  0  0
 33157  1  0  0  0  0
 34158  1  0  0  0  0
 34159  1  0  0  0  0
 34160  1  0  0  0  0
 40161  1  0  0  0  0
 41162  1  0  0  0  0
 44163  1  0  0  0  0
 44164  1  0  0  0  0
 45165  1  0  0  0  0
 45166  1  0  0  0  0
 45167  1  0  0  0  0
 49168  1  0  0  0  0
 56169  1  0  0  0  0
 57170  1  0  0  0  0
 60171  1  0  0  0  0
 60172  1  0  0  0  0
 60173  1  0  0  0  0
 61174  1  0  0  0  0
 62175  1  0  0  0  0
 64176  1  0  0  0  0
 65177  1  0  0  0  0
 68178  1  0  0  0  0
 68179  1  0  0  0  0
 68180  1  0  0  0  0
 69181  1  0  0  0  0
 70182  1  0  0  0  0
 77183  1  0  0  0  0
 78184  1  0  0  0  0
 81185  1  0  0  0  0
 81186  1  0  0  0  0
 81187  1  0  0  0  0
 82188  1  0  0  0  0
 83189  1  0  0  0  0
 85190  1  0  0  0  0
 86191  1  0  0  0  0
 89192  1  0  0  0  0
 89193  1  0  0  0  0
 89194  1  0  0  0  0
 90195  1  0  0  0  0
 91196  1  0  0  0  0
 95197  1  0  0  0  0
 99198  1  0  0  0  0
100199  1  0  0  0  0
103200  1  0  0  0  0
103201  1  0  0  0  0
104202  1  0  0  0  0
104203  1  0  0  0  0
104204  1  0  0  0  0
110205  1  0  0  0  0
111206  1  0  0  0  0
114207  1  0  0  0  0
114208  1  0  0  0  0
115209  1  0  0  0  0
115210  1  0  0  0  0
115211  1  0  0  0  0
119212  1  0  0  0  0
122213  1  0  0  0  0
127214  1  0  0  0  0
133215  1  0  0  0  0
134216  1  0  0  0  0
M  END
