
  xtb     02092203573D
 energy: -291.912518331712 gnorm: 0.000328832672 xtb: 6.4.1 (unknown)
171189  0     0  0            999 V2000
    2.6002    0.7124    6.0766 C   0  0  0  0  0  0  0  0  0  0  0  0
    2.7497    2.0135    6.5050 C   0  0  0  0  0  0  0  0  0  0  0  0
    2.2379    3.2168    5.8489 C   0  0  0  0  0  0  0  0  0  0  0  0
    1.6915    3.3026    4.7593 O   0  0  0  0  0  0  0  0  0  0  0  0
    2.5328    4.3436    6.7488 C   0  0  0  0  0  0  0  0  0  0  0  0
    2.2255    5.6858    6.5414 C   0  0  0  0  0  0  0  0  0  0  0  0
    2.6373    6.5144    7.5579 C   0  0  0  0  0  0  0  0  0  0  0  0
    3.3052    6.0417    8.6948 C   0  0  0  0  0  0  0  0  0  0  0  0
    3.6146    4.7186    8.9093 C   0  0  0  0  0  0  0  0  0  0  0  0
    3.2033    3.8582    7.8890 C   0  0  0  0  0  0  0  0  0  0  0  0
    3.3825    2.4136    7.7401 C   0  0  0  0  0  0  0  0  0  0  0  0
    4.0654    1.6106    8.6223 C   0  0  0  0  0  0  0  0  0  0  0  0
    4.4185    0.2662    8.4073 C   0  0  0  0  0  0  0  0  0  0  0  0
    4.8009   -0.8140    8.3043 N   0  0  0  0  0  0  0  0  0  0  0  0
    4.5615    2.0308    9.8724 C   0  0  0  0  0  0  0  0  0  0  0  0
    4.9742    2.2763   10.9162 N   0  0  0  0  0  0  0  0  0  0  0  0
    3.4112    7.4176    9.3028 C   0  0  0  0  0  0  0  0  0  0  0  0
    2.4330    7.7768   10.4484 C   0  0  0  0  0  0  0  0  0  0  0  0
    1.2044    6.9249   10.2462 C   0  0  0  0  0  0  0  0  0  0  0  0
    0.5730    7.3739    9.1698 C   0  0  0  0  0  0  0  0  0  0  0  0
    1.3636    8.5372    8.6240 C   0  0  0  0  0  0  0  0  0  0  0  0
    1.9138    9.1282    9.9318 C   0  0  0  0  0  0  0  0  0  0  0  0
    2.6677    7.9449    8.0350 C   0  0  0  0  0  0  0  0  0  0  0  0
    1.9807    0.1975    4.9385 C   0  0  0  0  0  0  0  0  0  0  0  0
    1.9241   -1.1877    4.6326 C   0  0  0  0  0  0  0  0  0  0  0  0
    2.2458   -2.2073    5.4883 N   0  0  0  0  0  0  0  0  0  0  0  0
    2.7259   -3.4165    4.9530 C   0  0  0  0  0  0  0  0  0  0  0  0
    3.7111   -3.4015    3.9706 C   0  0  0  0  0  0  0  0  0  0  0  0
    4.1789   -4.5806    3.4249 C   0  0  0  0  0  0  0  0  0  0  0  0
    3.6672   -5.7966    3.8585 C   0  0  0  0  0  0  0  0  0  0  0  0
    4.1741   -7.3633    3.2336 S   0  0  0  0  0  0  0  0  0  0  0  0
    5.2580   -6.9478    1.8382 C   0  0  0  0  0  0  0  0  0  0  0  0
    2.6943   -5.8140    4.8585 C   0  0  0  0  0  0  0  0  0  0  0  0
    2.2269   -4.6394    5.4006 C   0  0  0  0  0  0  0  0  0  0  0  0
    1.9845   -2.1380    6.8685 C   0  0  0  0  0  0  0  0  0  0  0  0
    2.8470   -2.7536    7.7704 C   0  0  0  0  0  0  0  0  0  0  0  0
    2.6232   -2.6600    9.1304 C   0  0  0  0  0  0  0  0  0  0  0  0
    1.5453   -1.9291    9.6090 C   0  0  0  0  0  0  0  0  0  0  0  0
    1.2212   -1.6744   11.3234 S   0  0  0  0  0  0  0  0  0  0  0  0
    2.8065   -2.0781   12.1105 C   0  0  0  0  0  0  0  0  0  0  0  0
    0.6500   -1.3556    8.7055 C   0  0  0  0  0  0  0  0  0  0  0  0
    0.8586   -1.4671    7.3506 C   0  0  0  0  0  0  0  0  0  0  0  0
    1.4575   -1.3914    3.3205 C   0  0  0  0  0  0  0  0  0  0  0  0
    1.2090   -2.7937    2.3292 S   0  0  0  0  0  0  0  0  0  0  0  0
    0.5760   -1.7834    1.0317 C   0  0  0  0  0  0  0  0  0  0  0  0
    0.4792   -0.4418    1.3981 C   0  0  0  0  0  0  0  0  0  0  0  0
   -0.1402    0.5646    0.6849 N   0  0  0  0  0  0  0  0  0  0  0  0
    0.2939    1.8874    0.8970 C   0  0  0  0  0  0  0  0  0  0  0  0
    1.6536    2.1841    0.9005 C   0  0  0  0  0  0  0  0  0  0  0  0
    2.0904    3.4565    1.2093 C   0  0  0  0  0  0  0  0  0  0  0  0
    1.1701    4.4486    1.5174 C   0  0  0  0  0  0  0  0  0  0  0  0
    1.6571    6.0757    1.9962 S   0  0  0  0  0  0  0  0  0  0  0  0
    3.2326    5.7503    2.8433 C   0  0  0  0  0  0  0  0  0  0  0  0
   -0.1920    4.1725    1.4471 C   0  0  0  0  0  0  0  0  0  0  0  0
   -0.6286    2.9030    1.1416 C   0  0  0  0  0  0  0  0  0  0  0  0
   -1.2653    0.3413   -0.1172 C   0  0  0  0  0  0  0  0  0  0  0  0
   -2.1981   -0.6543    0.1818 C   0  0  0  0  0  0  0  0  0  0  0  0
   -3.2330   -0.9197   -0.6860 C   0  0  0  0  0  0  0  0  0  0  0  0
   -3.3812   -0.1860   -1.8627 C   0  0  0  0  0  0  0  0  0  0  0  0
   -4.7089   -0.6541   -2.9258 S   0  0  0  0  0  0  0  0  0  0  0  0
   -4.6606    0.5631   -4.2673 C   0  0  0  0  0  0  0  0  0  0  0  0
   -2.4912    0.8443   -2.1354 C   0  0  0  0  0  0  0  0  0  0  0  0
   -1.4455    1.1020   -1.2720 C   0  0  0  0  0  0  0  0  0  0  0  0
    1.0443   -0.2299    2.6831 C   0  0  0  0  0  0  0  0  0  0  0  0
    1.2954    1.1825    3.6435 S   0  0  0  0  0  0  0  0  0  0  0  0
    0.2167   -2.4023   -0.1956 C   0  0  0  0  0  0  0  0  0  0  0  0
   -0.1878   -3.7046   -0.3971 C   0  0  0  0  0  0  0  0  0  0  0  0
   -0.6251   -3.9420   -1.7052 C   0  0  0  0  0  0  0  0  0  0  0  0
   -1.1318   -5.4886   -2.2188 Cl  0  0  0  0  0  0  0  0  0  0  0  0
   -0.5413   -2.8396   -2.5356 C   0  0  0  0  0  0  0  0  0  0  0  0
    0.2246   -1.5255   -1.6933 S   0  0  0  0  0  0  0  0  0  0  0  0
   -1.1508   -2.5655   -3.8083 C   0  0  0  0  0  0  0  0  0  0  0  0
   -0.5938   -1.6691   -4.7086 C   0  0  0  0  0  0  0  0  0  0  0  0
    0.6119   -1.1313   -4.4472 F   0  0  0  0  0  0  0  0  0  0  0  0
   -1.2487   -1.2546   -5.8703 C   0  0  0  0  0  0  0  0  0  0  0  0
   -0.6786   -0.2702   -6.5774 F   0  0  0  0  0  0  0  0  0  0  0  0
   -2.5070   -1.7321   -6.2092 C   0  0  0  0  0  0  0  0  0  0  0  0
   -3.1250   -2.6255   -5.2833 C   0  0  0  0  0  0  0  0  0  0  0  0
   -4.3775   -3.0391   -5.5334 N   0  0  0  0  0  0  0  0  0  0  0  0
   -5.0094   -3.7605   -4.6413 C   0  0  0  0  0  0  0  0  0  0  0  0
   -6.4295   -4.1018   -4.9676 C   0  0  0  0  0  0  0  0  0  0  0  0
   -7.3296   -2.9179   -4.5996 C   0  0  0  0  0  0  0  0  0  0  0  0
   -4.3775   -4.0975   -3.4103 C   0  0  0  0  0  0  0  0  0  0  0  0
   -3.1400   -3.7404   -3.1776 N   0  0  0  0  0  0  0  0  0  0  0  0
   -2.4708   -3.0260   -4.0954 C   0  0  0  0  0  0  0  0  0  0  0  0
   -5.0478   -4.8877   -2.3296 C   0  0  0  0  0  0  0  0  0  0  0  0
   -4.9050   -6.3886   -2.5969 C   0  0  0  0  0  0  0  0  0  0  0  0
   -3.2954   -1.2516   -7.3059 C   0  0  0  0  0  0  0  0  0  0  0  0
   -2.8606   -0.8241   -8.5163 C   0  0  0  0  0  0  0  0  0  0  0  0
   -1.5301   -1.1242   -9.1170 C   0  0  0  0  0  0  0  0  0  0  0  0
   -0.6584   -1.8230   -8.6536 O   0  0  0  0  0  0  0  0  0  0  0  0
   -1.5571   -0.5106  -10.4582 C   0  0  0  0  0  0  0  0  0  0  0  0
   -0.5114   -0.4728  -11.3772 C   0  0  0  0  0  0  0  0  0  0  0  0
   -0.8133    0.1895  -12.5427 C   0  0  0  0  0  0  0  0  0  0  0  0
   -2.0740    0.7515  -12.7897 C   0  0  0  0  0  0  0  0  0  0  0  0
   -3.1194    0.7075  -11.9001 C   0  0  0  0  0  0  0  0  0  0  0  0
   -2.8264    0.0575  -10.6963 C   0  0  0  0  0  0  0  0  0  0  0  0
   -3.6569   -0.1301   -9.5134 C   0  0  0  0  0  0  0  0  0  0  0  0
   -4.9300    0.3478   -9.3357 C   0  0  0  0  0  0  0  0  0  0  0  0
   -5.6763    1.0240  -10.3239 C   0  0  0  0  0  0  0  0  0  0  0  0
   -6.3456    1.5706  -11.0798 N   0  0  0  0  0  0  0  0  0  0  0  0
   -5.6708    0.2623   -8.1389 C   0  0  0  0  0  0  0  0  0  0  0  0
   -6.3307    0.2692   -7.1976 N   0  0  0  0  0  0  0  0  0  0  0  0
   -1.6640    1.2751  -14.1429 C   0  0  0  0  0  0  0  0  0  0  0  0
   -1.3555    2.7886  -14.2591 C   0  0  0  0  0  0  0  0  0  0  0  0
   -0.9158    3.2431  -12.8892 C   0  0  0  0  0  0  0  0  0  0  0  0
    0.2782    2.7166  -12.6518 C   0  0  0  0  0  0  0  0  0  0  0  0
    0.6677    1.8970  -13.8573 C   0  0  0  0  0  0  0  0  0  0  0  0
    0.0048    2.7227  -14.9715 C   0  0  0  0  0  0  0  0  0  0  0  0
   -0.2583    0.6547  -13.8653 C   0  0  0  0  0  0  0  0  0  0  0  0
    3.0356   -0.0423    6.7189 H   0  0  0  0  0  0  0  0  0  0  0  0
    1.7074    6.0072    5.6512 H   0  0  0  0  0  0  0  0  0  0  0  0
    4.1310    4.3732    9.7893 H   0  0  0  0  0  0  0  0  0  0  0  0
    4.4201    7.7801    9.4903 H   0  0  0  0  0  0  0  0  0  0  0  0
    2.8740    7.7553   11.4413 H   0  0  0  0  0  0  0  0  0  0  0  0
    0.9599    6.0736   10.8541 H   0  0  0  0  0  0  0  0  0  0  0  0
   -0.3049    6.9727    8.6981 H   0  0  0  0  0  0  0  0  0  0  0  0
    0.8310    9.2089    7.9558 H   0  0  0  0  0  0  0  0  0  0  0  0
    1.1341    9.5494   10.5645 H   0  0  0  0  0  0  0  0  0  0  0  0
    2.7008    9.8653    9.7778 H   0  0  0  0  0  0  0  0  0  0  0  0
    3.1918    8.6514    7.3940 H   0  0  0  0  0  0  0  0  0  0  0  0
    4.1184   -2.4578    3.6388 H   0  0  0  0  0  0  0  0  0  0  0  0
    4.9456   -4.5351    2.6690 H   0  0  0  0  0  0  0  0  0  0  0  0
    5.5117   -7.8957    1.3738 H   0  0  0  0  0  0  0  0  0  0  0  0
    4.7224   -6.3214    1.1312 H   0  0  0  0  0  0  0  0  0  0  0  0
    6.1611   -6.4617    2.1960 H   0  0  0  0  0  0  0  0  0  0  0  0
    2.3050   -6.7629    5.1936 H   0  0  0  0  0  0  0  0  0  0  0  0
    1.4650   -4.6578    6.1651 H   0  0  0  0  0  0  0  0  0  0  0  0
    3.7080   -3.2917    7.4069 H   0  0  0  0  0  0  0  0  0  0  0  0
    3.3147   -3.1394    9.8027 H   0  0  0  0  0  0  0  0  0  0  0  0
    2.9676   -3.1523   12.1073 H   0  0  0  0  0  0  0  0  0  0  0  0
    3.6083   -1.5558   11.5971 H   0  0  0  0  0  0  0  0  0  0  0  0
    2.7262   -1.7222   13.1329 H   0  0  0  0  0  0  0  0  0  0  0  0
   -0.2080   -0.8214    9.0836 H   0  0  0  0  0  0  0  0  0  0  0  0
    0.1625   -1.0184    6.6579 H   0  0  0  0  0  0  0  0  0  0  0  0
    2.3681    1.4074    0.6696 H   0  0  0  0  0  0  0  0  0  0  0  0
    3.1485    3.6637    1.2132 H   0  0  0  0  0  0  0  0  0  0  0  0
    4.0353    5.6198    2.1231 H   0  0  0  0  0  0  0  0  0  0  0  0
    3.1084    4.8678    3.4631 H   0  0  0  0  0  0  0  0  0  0  0  0
    3.4342    6.6212    3.4593 H   0  0  0  0  0  0  0  0  0  0  0  0
   -0.9004    4.9563    1.6657 H   0  0  0  0  0  0  0  0  0  0  0  0
   -1.6849    2.6795    1.1219 H   0  0  0  0  0  0  0  0  0  0  0  0
   -2.0988   -1.2297    1.0897 H   0  0  0  0  0  0  0  0  0  0  0  0
   -3.9409   -1.7036   -0.4662 H   0  0  0  0  0  0  0  0  0  0  0  0
   -4.8127    1.5599   -3.8642 H   0  0  0  0  0  0  0  0  0  0  0  0
   -5.4782    0.3072   -4.9356 H   0  0  0  0  0  0  0  0  0  0  0  0
   -3.7174    0.4918   -4.8023 H   0  0  0  0  0  0  0  0  0  0  0  0
   -2.5863    1.4420   -3.0273 H   0  0  0  0  0  0  0  0  0  0  0  0
   -0.7385    1.8824   -1.5082 H   0  0  0  0  0  0  0  0  0  0  0  0
   -0.2201   -4.4423    0.3839 H   0  0  0  0  0  0  0  0  0  0  0  0
   -6.7508   -4.9958   -4.4356 H   0  0  0  0  0  0  0  0  0  0  0  0
   -6.5031   -4.2807   -6.0411 H   0  0  0  0  0  0  0  0  0  0  0  0
   -7.2184   -2.6602   -3.5485 H   0  0  0  0  0  0  0  0  0  0  0  0
   -8.3701   -3.1651   -4.7936 H   0  0  0  0  0  0  0  0  0  0  0  0
   -7.0605   -2.0489   -5.1939 H   0  0  0  0  0  0  0  0  0  0  0  0
   -4.5550   -4.6486   -1.3866 H   0  0  0  0  0  0  0  0  0  0  0  0
   -6.1011   -4.6163   -2.2581 H   0  0  0  0  0  0  0  0  0  0  0  0
   -5.3918   -6.9561   -1.8078 H   0  0  0  0  0  0  0  0  0  0  0  0
   -5.3529   -6.6632   -3.5495 H   0  0  0  0  0  0  0  0  0  0  0  0
   -3.8532   -6.6621   -2.6225 H   0  0  0  0  0  0  0  0  0  0  0  0
   -4.3575   -1.2657   -7.0995 H   0  0  0  0  0  0  0  0  0  0  0  0
    0.4421   -0.9223  -11.1482 H   0  0  0  0  0  0  0  0  0  0  0  0
   -4.0842    1.1402  -12.1063 H   0  0  0  0  0  0  0  0  0  0  0  0
   -2.2291    0.8995  -14.9934 H   0  0  0  0  0  0  0  0  0  0  0  0
   -2.1405    3.3742  -14.7299 H   0  0  0  0  0  0  0  0  0  0  0  0
   -1.5241    3.8352  -12.2309 H   0  0  0  0  0  0  0  0  0  0  0  0
    0.8664    2.7804  -11.7552 H   0  0  0  0  0  0  0  0  0  0  0  0
    1.7256    1.6716  -13.9629 H   0  0  0  0  0  0  0  0  0  0  0  0
   -0.0318    2.2080  -15.9306 H   0  0  0  0  0  0  0  0  0  0  0  0
    0.4618    3.7031  -15.0971 H   0  0  0  0  0  0  0  0  0  0  0  0
    0.0985   -0.1242  -14.5363 H   0  0  0  0  0  0  0  0  0  0  0  0
  1  2  2  0  0  0  0
  2  3  1  0  0  0  0
  3  4  2  0  0  0  0
  3  5  1  0  0  0  0
  5  6  2  0  0  0  0
  6  7  1  0  0  0  0
  7  8  2  0  0  0  0
  8  9  1  0  0  0  0
  9 10  2  0  0  0  0
 10 11  1  0  0  0  0
 11 12  2  0  0  0  0
 12 13  1  0  0  0  0
 13 14  3  0  0  0  0
 12 15  1  0  0  0  0
 15 16  3  0  0  0  0
  8 17  1  0  0  0  0
 17 18  1  0  0  0  0
 18 19  1  0  0  0  0
 19 20  2  0  0  0  0
 20 21  1  0  0  0  0
 21 22  1  0  0  0  0
 21 23  1  0  0  0  0
  1 24  1  0  0  0  0
 24 25  2  0  0  0  0
 25 26  1  0  0  0  0
 26 27  1  0  0  0  0
 27 28  2  0  0  0  0
 28 29  1  0  0  0  0
 29 30  2  0  0  0  0
 30 31  1  0  0  0  0
 31 32  1  0  0  0  0
 30 33  1  0  0  0  0
 33 34  2  0  0  0  0
 26 35  1  0  0  0  0
 35 36  2  0  0  0  0
 36 37  1  0  0  0  0
 37 38  2  0  0  0  0
 38 39  1  0  0  0  0
 39 40  1  0  0  0  0
 38 41  1  0  0  0  0
 41 42  2  0  0  0  0
 25 43  1  0  0  0  0
 43 44  1  0  0  0  0
 44 45  1  0  0  0  0
 45 46  2  0  0  0  0
 46 47  1  0  0  0  0
 47 48  1  0  0  0  0
 48 49  2  0  0  0  0
 49 50  1  0  0  0  0
 50 51  2  0  0  0  0
 51 52  1  0  0  0  0
 52 53  1  0  0  0  0
 51 54  1  0  0  0  0
 54 55  2  0  0  0  0
 47 56  1  0  0  0  0
 56 57  2  0  0  0  0
 57 58  1  0  0  0  0
 58 59  2  0  0  0  0
 59 60  1  0  0  0  0
 60 61  1  0  0  0  0
 59 62  1  0  0  0  0
 62 63  2  0  0  0  0
 46 64  1  0  0  0  0
 64 65  1  0  0  0  0
 45 66  1  0  0  0  0
 66 67  2  0  0  0  0
 67 68  1  0  0  0  0
 68 69  1  0  0  0  0
 68 70  2  0  0  0  0
 70 71  1  0  0  0  0
 70 72  1  0  0  0  0
 72 73  2  0  0  0  0
 73 74  1  0  0  0  0
 73 75  1  0  0  0  0
 75 76  1  0  0  0  0
 75 77  2  0  0  0  0
 77 78  1  0  0  0  0
 78 79  2  0  0  0  0
 79 80  1  0  0  0  0
 80 81  1  0  0  0  0
 81 82  1  0  0  0  0
 80 83  2  0  0  0  0
 83 84  1  0  0  0  0
 84 85  2  0  0  0  0
 83 86  1  0  0  0  0
 86 87  1  0  0  0  0
 77 88  1  0  0  0  0
 88 89  2  0  0  0  0
 89 90  1  0  0  0  0
 90 91  2  0  0  0  0
 90 92  1  0  0  0  0
 92 93  2  0  0  0  0
 93 94  1  0  0  0  0
 94 95  2  0  0  0  0
 95 96  1  0  0  0  0
 96 97  2  0  0  0  0
 97 98  1  0  0  0  0
 98 99  2  0  0  0  0
 99100  1  0  0  0  0
100101  3  0  0  0  0
 99102  1  0  0  0  0
102103  3  0  0  0  0
 95104  1  0  0  0  0
104105  1  0  0  0  0
105106  1  0  0  0  0
106107  2  0  0  0  0
107108  1  0  0  0  0
108109  1  0  0  0  0
108110  1  0  0  0  0
 11  2  1  0  0  0  0
 23 17  1  0  0  0  0
 65 24  1  0  0  0  0
 71 66  1  0  0  0  0
 85 72  1  0  0  0  0
 98 89  1  0  0  0  0
110104  1  0  0  0  0
 10  5  1  0  0  0  0
 22 18  1  0  0  0  0
 34 27  1  0  0  0  0
 42 35  1  0  0  0  0
 64 43  2  0  0  0  0
 85 78  1  0  0  0  0
 97 92  1  0  0  0  0
109105  1  0  0  0  0
 23  7  1  0  0  0  0
 55 48  1  0  0  0  0
 63 56  1  0  0  0  0
110 94  1  0  0  0  0
  1111  1  0  0  0  0
  6112  1  0  0  0  0
  9113  1  0  0  0  0
 17114  1  0  0  0  0
 18115  1  0  0  0  0
 19116  1  0  0  0  0
 20117  1  0  0  0  0
 21118  1  0  0  0  0
 22119  1  0  0  0  0
 22120  1  0  0  0  0
 23121  1  0  0  0  0
 28122  1  0  0  0  0
 29123  1  0  0  0  0
 32124  1  0  0  0  0
 32125  1  0  0  0  0
 32126  1  0  0  0  0
 33127  1  0  0  0  0
 34128  1  0  0  0  0
 36129  1  0  0  0  0
 37130  1  0  0  0  0
 40131  1  0  0  0  0
 40132  1  0  0  0  0
 40133  1  0  0  0  0
 41134  1  0  0  0  0
 42135  1  0  0  0  0
 49136  1  0  0  0  0
 50137  1  0  0  0  0
 53138  1  0  0  0  0
 53139  1  0  0  0  0
 53140  1  0  0  0  0
 54141  1  0  0  0  0
 55142  1  0  0  0  0
 57143  1  0  0  0  0
 58144  1  0  0  0  0
 61145  1  0  0  0  0
 61146  1  0  0  0  0
 61147  1  0  0  0  0
 62148  1  0  0  0  0
 63149  1  0  0  0  0
 67150  1  0  0  0  0
 81151  1  0  0  0  0
 81152  1  0  0  0  0
 82153  1  0  0  0  0
 82154  1  0  0  0  0
 82155  1  0  0  0  0
 86156  1  0  0  0  0
 86157  1  0  0  0  0
 87158  1  0  0  0  0
 87159  1  0  0  0  0
 87160  1  0  0  0  0
 88161  1  0  0  0  0
 93162  1  0  0  0  0
 96163  1  0  0  0  0
104164  1  0  0  0  0
105165  1  0  0  0  0
106166  1  0  0  0  0
107167  1  0  0  0  0
108168  1  0  0  0  0
109169  1  0  0  0  0
109170  1  0  0  0  0
110171  1  0  0  0  0
M  END
