187

C         -7.01810        1.39300        2.65570
C         -7.35040        2.70080        2.81660
C         -6.42720        3.75760        3.29920
O         -5.30870        3.61700        3.74670
C         -7.20460        5.01020        3.27260
C         -6.74100        6.28690        3.57970
C         -7.69560        7.26960        3.47770
C         -9.01990        7.00110        3.10540
C         -9.49230        5.74580        2.80660
C         -8.53520        4.73020        2.90110
C         -8.66420        3.29490        2.66270
C         -9.81920        2.64320        2.31530
C         -9.94140        1.25940        2.08210
N        -10.15020        0.14820        1.87430
C        -11.07410        3.26650        2.15230
N        -12.12690        3.70040        2.00320
C         -9.43020        8.44770        3.22410
C        -10.23050        8.86880        4.48120
C         -9.85340        7.90010        5.57440
C         -8.59990        8.15390        5.92580
C         -8.10680        9.29920        5.07640
C         -9.41100       10.09570        4.91230
C         -7.95460        8.74670        3.63740
C         -5.69300        0.87160        2.54950
C         -4.64380        1.53670        1.89380
O         -4.93600        2.71820        1.33280
C         -4.34950        3.11250        0.09690
C         -5.45960        3.71120       -0.75620
C         -3.35670        0.93420        1.76800
O         -2.30970        1.67740        1.26310
C         -1.52430        2.31980        2.27110
C         -2.12230        3.61840        2.79500
C         -3.14360       -0.40320        2.07610
C         -4.18870       -1.09000        2.74250
C         -5.44270       -0.44820        2.99360
N         -6.28620       -1.24020        3.65050
S         -5.55930       -2.65000        3.93180
N         -4.14430       -2.32360        3.23870
C         -1.97810       -1.15610        1.67330
C         -2.03180       -2.39220        1.04680
N         -3.18900       -3.02980        0.62590
C         -3.28130       -4.41890        0.77410
C         -2.68550       -5.05390        1.86440
C         -2.76140       -6.42160        1.99570
C         -3.44040       -7.18760        1.04970
S         -3.47430       -8.93000        1.33170
C         -4.49010       -9.57710       -0.02700
C         -4.04050       -6.55880       -0.03290
C         -3.95610       -5.18700       -0.17010
C         -4.27510       -2.28090        0.16010
C         -5.58540       -2.63590        0.47710
C         -6.64740       -1.83520        0.10470
C         -6.42060       -0.67780       -0.62760
S         -7.69830        0.44990       -1.09500
C         -9.19130       -0.58150       -1.07860
C         -5.12080       -0.35380       -1.00660
C         -4.06030       -1.13820       -0.61340
C         -0.72840       -2.88330        0.78330
S         -0.08800       -4.31190        0.04180
C          1.52970       -3.71950        0.27110
C          1.57740       -2.49500        0.89330
N          2.77640       -1.83290        1.21540
C          3.22730       -0.78630        0.43040
C          2.63250       -0.50820       -0.80220
C          3.11900        0.50580       -1.60000
C          4.19170        1.27240       -1.17570
S          4.85880        2.54040       -2.24270
C          4.29370        4.01250       -1.33190
C          4.75720        1.03970        0.07000
C          4.27110        0.03190        0.87250
C          3.60470       -2.50670        2.13440
C          3.04330       -3.01190        3.30580
C          3.81100       -3.74490        4.18420
C          5.15380       -3.98750        3.91100
S          6.05670       -4.95490        5.08030
C          7.42270       -5.62140        4.08370
C          5.72320       -3.46400        2.75740
C          4.95230       -2.73600        1.87310
C          0.27900       -2.01900        1.18260
S         -0.34380       -0.56450        1.86380
C          2.72760       -4.31620       -0.32410
C          3.63760       -5.07980        0.37010
F          3.33350       -5.55880        1.58530
C          4.92540       -5.31530       -0.13930
F          5.80710       -5.97260        0.63410
C          5.34290       -4.77390       -1.33560
C          4.37310       -4.10890       -2.13380
N          4.71220       -3.66520       -3.36140
C          3.80760       -3.03090       -4.06010
O          4.05960       -2.61020       -5.29560
C          5.37900       -2.78780       -5.80470
C          6.25540       -1.59040       -5.46390
C          2.48590       -2.79160       -3.54680
N          2.15860       -3.21920       -2.36510
C          3.07390       -3.89170       -1.63030
C          1.48120       -2.06550       -4.36830
C          6.72510       -4.79520       -1.78790
C          7.34060       -3.64350       -2.12780
C          6.79120       -2.29780       -1.78000
O          5.77540       -2.04990       -1.16450
C          7.77780       -1.32540       -2.25830
C          7.67550        0.06190       -2.16630
C          8.72520        0.73420       -2.73940
C          9.80250        0.07850       -3.35510
C          9.92590       -1.28860       -3.43120
C          8.86470       -1.99950       -2.85610
C          8.63130       -3.43630       -2.77420
C          9.44270       -4.41540       -3.27750
C         10.67020       -4.18000       -3.93340
N         11.67410       -4.06070       -4.47670
C          9.16120       -5.79790       -3.22460
N          8.99420       -6.93340       -3.23020
C         10.46280        1.37600       -3.75220
C         10.30340        1.80090       -5.22830
C         10.60670        3.28220       -5.21340
C          9.58950        3.89730       -4.62330
C          8.58210        2.84290       -4.22720
C          8.77700        1.84760       -5.37840
C          9.26580        2.10210       -3.05830
H         -7.79530        0.64200        2.60340
H         -5.71270        6.44830        3.86400
H        -10.51470        5.55690        2.52500
H         -9.80970        8.91220        2.31600
H        -11.29450        9.01100        4.31200
H        -10.49740        7.11640        5.92810
H         -7.98710        7.62440        6.63160
H         -7.23700        9.83400        5.44930
H         -9.76080       10.52830        5.84830
H         -9.35360       10.86970        4.14800
H         -7.37040        9.40700        2.99910
H         -3.57240        3.85870        0.29030
H         -3.89490        2.25530       -0.40450
H         -5.91530        4.54930       -0.23530
H         -5.05080        4.05870       -1.70080
H         -6.22710        2.96540       -0.95120
H         -0.56360        2.50750        1.78430
H         -1.36410        1.62630        3.10610
H         -3.12330        3.46260        3.19110
H         -1.48990        3.99730        3.59360
H         -2.16860        4.36660        2.00730
H         -2.18460       -4.46240        2.61470
H         -2.30330       -6.91520        2.83860
H         -4.00590       -9.38460       -0.98000
H         -5.48260       -9.13760        0.00940
H         -4.55520      -10.64740        0.14260
H         -4.56970       -7.12330       -0.78350
H         -4.41570       -4.70500       -1.02050
H         -5.76890       -3.53270        1.05090
H         -7.64470       -2.10970        0.40940
H         -9.93830       -0.02860       -1.64000
H         -8.97760       -1.52530       -1.57040
H         -9.53670       -0.72550       -0.05770
H         -4.95710        0.52010       -1.61840
H         -3.05480       -0.87000       -0.90190
H          1.80680       -1.11110       -1.14740
H          2.67490        0.69960       -2.56500
H          4.64830        4.87740       -1.88270
H          4.71350        4.00560       -0.33050
H          3.20830        4.01100       -1.29050
H          5.58220        1.64910        0.41150
H          4.70800       -0.13700        1.84470
H          1.99760       -2.84140        3.51320
H          3.37610       -4.14900        5.08490
H          8.17920       -4.85940        3.91740
H          7.84510       -6.43420        4.66610
H          7.03000       -5.99940        3.14490
H          6.76300       -3.63420        2.52660
H          5.38480       -2.36530        0.95620
H          5.25740       -2.88490       -6.88610
H          5.80330       -3.70770       -5.39180
H          7.26500       -1.75560       -5.83040
H          5.85450       -0.68740       -5.91780
H          6.28700       -1.44980       -4.38620
H          0.54970       -1.97930       -3.81730
H          1.31170       -2.60010       -5.30150
H          1.85950       -1.07710       -4.62270
H          7.21970       -5.75440       -1.85310
H          6.82070        0.52440       -1.70050
H         10.76660       -1.77690       -3.89530
H         11.46840        1.53740       -3.36920
H         10.86000        1.19510       -5.93820
H         11.52430        3.70950       -5.57300
H          9.48900        4.94150       -4.39200
H          7.56900        3.17420       -4.01750
H          8.28270        0.89050       -5.22370
H          8.47200        2.26430       -6.33670
H          9.46760        2.74630       -2.20530
