
  xtb     02072219243D
 energy: -359.006253344480 gnorm: 0.000217985897 xtb: 6.4.1 (unknown)
222245  0     0  0            999 V2000
   -4.3520  -10.6536    0.7145 C   0  0  0  0  0  0  0  0  0  0  0  0
   -4.0704  -11.7588    1.4584 C   0  0  0  0  0  0  0  0  0  0  0  0
   -4.2474  -13.1073    0.8509 C   0  0  0  0  0  0  0  0  0  0  0  0
   -4.8427  -13.3728   -0.1690 O   0  0  0  0  0  0  0  0  0  0  0  0
   -3.4947  -14.0289    1.7249 C   0  0  0  0  0  0  0  0  0  0  0  0
   -3.2388  -15.3802    1.5051 C   0  0  0  0  0  0  0  0  0  0  0  0
   -2.4785  -15.9728    2.4846 C   0  0  0  0  0  0  0  0  0  0  0  0
   -1.9973  -15.2730    3.5993 C   0  0  0  0  0  0  0  0  0  0  0  0
   -2.2449  -13.9407    3.8316 C   0  0  0  0  0  0  0  0  0  0  0  0
   -3.0249  -13.3225    2.8520 C   0  0  0  0  0  0  0  0  0  0  0  0
   -3.5049  -11.9451    2.7711 C   0  0  0  0  0  0  0  0  0  0  0  0
   -3.6025  -11.0698    3.8224 C   0  0  0  0  0  0  0  0  0  0  0  0
   -3.0803  -11.3094    5.1075 C   0  0  0  0  0  0  0  0  0  0  0  0
   -2.6565  -11.4356    6.1676 N   0  0  0  0  0  0  0  0  0  0  0  0
   -4.2984   -9.8476    3.7517 C   0  0  0  0  0  0  0  0  0  0  0  0
   -4.8717   -8.8523    3.7497 N   0  0  0  0  0  0  0  0  0  0  0  0
   -1.3064  -16.4890    4.1640 C   0  0  0  0  0  0  0  0  0  0  0  0
   -1.9853  -17.2158    5.3509 C   0  0  0  0  0  0  0  0  0  0  0  0
   -3.4628  -16.9325    5.2379 C   0  0  0  0  0  0  0  0  0  0  0  0
   -3.9227  -17.5960    4.1856 C   0  0  0  0  0  0  0  0  0  0  0  0
   -2.7643  -18.3394    3.5677 C   0  0  0  0  0  0  0  0  0  0  0  0
   -1.9455  -18.6607    4.8282 C   0  0  0  0  0  0  0  0  0  0  0  0
   -1.8468  -17.2699    2.9247 C   0  0  0  0  0  0  0  0  0  0  0  0
   -3.9270   -9.3089    0.8658 C   0  0  0  0  0  0  0  0  0  0  0  0
   -2.7916   -8.8674    1.5776 C   0  0  0  0  0  0  0  0  0  0  0  0
   -2.4025   -7.4743    1.6165 C   0  0  0  0  0  0  0  0  0  0  0  0
   -1.2922   -7.2890    2.3320 N   0  0  0  0  0  0  0  0  0  0  0  0
   -0.7772   -8.7002    2.8843 S   0  0  0  0  0  4  0  0  0  0  0  0
   -1.9225   -9.6302    2.2479 N   0  0  0  0  0  0  0  0  0  0  0  0
   -3.0964   -6.4498    0.9410 C   0  0  0  0  0  0  0  0  0  0  0  0
   -4.2373   -6.8859    0.2329 C   0  0  0  0  0  0  0  0  0  0  0  0
   -5.0791   -6.1220   -0.4689 N   0  0  0  0  0  0  0  0  0  0  0  0
   -6.2201   -7.0506   -1.1113 S   0  0  0  0  0  0  0  0  0  0  0  0
   -5.7199   -8.4641   -0.5481 N   0  0  0  0  0  0  0  0  0  0  0  0
   -4.6216   -8.2814    0.1863 C   0  0  0  0  0  0  0  0  0  0  0  0
   -2.6263   -5.1110    0.9459 C   0  0  0  0  0  0  0  0  0  0  0  0
   -3.1325   -4.0479    0.2321 C   0  0  0  0  0  0  0  0  0  0  0  0
   -2.3867   -2.8661    0.3804 C   0  0  0  0  0  0  0  0  0  0  0  0
   -2.6242   -1.6043   -0.2233 C   0  0  0  0  0  0  0  0  0  0  0  0
   -3.8861   -1.2753   -0.8334 C   0  0  0  0  0  0  0  0  0  0  0  0
   -5.1356   -1.7563   -0.5099 C   0  0  0  0  0  0  0  0  0  0  0  0
   -6.1743   -1.0896   -1.1749 C   0  0  0  0  0  0  0  0  0  0  0  0
   -5.7538   -0.1045   -2.0254 C   0  0  0  0  0  0  0  0  0  0  0  0
   -6.7055    1.2467   -2.9359 Si  0  0  0  0  0  4  0  0  0  0  0  0
   -6.4979    2.8092   -1.8455 C   0  0  0  0  0  0  0  0  0  0  0  0
   -7.0407    2.6367   -0.4299 C   0  0  0  0  0  0  0  0  0  0  0  0
   -5.8739    1.5193   -4.6392 C   0  0  0  0  0  0  0  0  0  0  0  0
   -5.8464    2.9796   -5.0799 C   0  0  0  0  0  0  0  0  0  0  0  0
   -8.5331    0.7178   -3.0942 C   0  0  0  0  0  0  0  0  0  0  0  0
   -9.3806    1.7493   -3.8306 C   0  0  0  0  0  0  0  0  0  0  0  0
   -4.0290    0.0019   -2.0048 S   0  0  0  0  0  0  0  0  0  0  0  0
   -1.6013   -0.6702   -0.0802 C   0  0  0  0  0  0  0  0  0  0  0  0
   -0.4898   -0.8456    0.7803 C   0  0  0  0  0  0  0  0  0  0  0  0
   -0.3472   -2.0446    1.5093 C   0  0  0  0  0  0  0  0  0  0  0  0
    0.6687   -2.2000    2.5267 C   0  0  0  0  0  0  0  0  0  0  0  0
    1.0529   -1.2859    3.4734 C   0  0  0  0  0  0  0  0  0  0  0  0
    2.0097   -1.7923    4.3679 C   0  0  0  0  0  0  0  0  0  0  0  0
    2.3764   -3.0848    4.1183 C   0  0  0  0  0  0  0  0  0  0  0  0
    3.5709   -4.2180    5.0398 Si  0  0  0  0  0  4  0  0  0  0  0  0
    5.2595   -4.2062    4.1364 C   0  0  0  0  0  0  0  0  0  0  0  0
    5.1672   -4.6886    2.6924 C   0  0  0  0  0  0  0  0  0  0  0  0
    2.7767   -5.9584    5.0054 C   0  0  0  0  0  0  0  0  0  0  0  0
    3.6300   -7.0371    5.6649 C   0  0  0  0  0  0  0  0  0  0  0  0
    3.7916   -3.5653    6.8219 C   0  0  0  0  0  0  0  0  0  0  0  0
    2.5066   -3.6070    7.6420 C   0  0  0  0  0  0  0  0  0  0  0  0
    1.5177   -3.6977    2.7464 S   0  0  0  0  0  0  0  0  0  0  0  0
   -1.2617   -3.0537    1.2257 C   0  0  0  0  0  0  0  0  0  0  0  0
   -1.2050   -4.6767    1.8601 S   0  0  0  0  0  0  0  0  0  0  0  0
    0.3448    0.3013    0.8141 C   0  0  0  0  0  0  0  0  0  0  0  0
   -0.1188    1.3289    0.0517 C   0  0  0  0  0  0  0  0  0  0  0  0
   -1.5554    0.8835   -0.8499 S   0  0  0  0  0  0  0  0  0  0  0  0
    0.3350    2.6778   -0.0956 C   0  0  0  0  0  0  0  0  0  0  0  0
   -0.4948    3.7912   -0.1253 C   0  0  0  0  0  0  0  0  0  0  0  0
   -1.8382    3.7819    0.2222 N   0  0  0  0  0  0  0  0  0  0  0  0
   -2.2684    2.9101    1.2354 C   0  0  0  0  0  0  0  0  0  0  0  0
   -1.4668    2.6970    2.3570 C   0  0  0  0  0  0  0  0  0  0  0  0
   -1.7762    1.6991    3.2528 C   0  0  0  0  0  0  0  0  0  0  0  0
   -2.8915    0.8887    3.0515 C   0  0  0  0  0  0  0  0  0  0  0  0
   -3.1026   -0.4606    4.1687 S   0  0  0  0  0  0  0  0  0  0  0  0
   -4.2821   -1.5357    3.3061 C   0  0  0  0  0  0  0  0  0  0  0  0
   -3.7515    1.1691    1.9976 C   0  0  0  0  0  0  0  0  0  0  0  0
   -3.4435    2.1724    1.1005 C   0  0  0  0  0  0  0  0  0  0  0  0
   -2.7604    4.4946   -0.5507 C   0  0  0  0  0  0  0  0  0  0  0  0
   -3.8968    5.0475    0.0418 C   0  0  0  0  0  0  0  0  0  0  0  0
   -4.8160    5.7259   -0.7246 C   0  0  0  0  0  0  0  0  0  0  0  0
   -4.6232    5.8748   -2.0978 C   0  0  0  0  0  0  0  0  0  0  0  0
   -5.8974    6.7161   -2.9838 S   0  0  0  0  0  0  0  0  0  0  0  0
   -5.1806    6.9849   -4.6298 C   0  0  0  0  0  0  0  0  0  0  0  0
   -3.4868    5.3400   -2.6881 C   0  0  0  0  0  0  0  0  0  0  0  0
   -2.5661    4.6543   -1.9197 C   0  0  0  0  0  0  0  0  0  0  0  0
    0.2351    4.9513   -0.4723 C   0  0  0  0  0  0  0  0  0  0  0  0
   -0.1923    6.6053   -0.6907 S   0  0  0  0  0  0  0  0  0  0  0  0
    1.4800    7.0044   -1.1170 C   0  0  0  0  0  0  0  0  0  0  0  0
    2.3388    5.8950   -0.9736 C   0  0  0  0  0  0  0  0  0  0  0  0
    3.7037    5.9134   -1.0101 N   0  0  0  0  0  0  0  0  0  0  0  0
    4.4090    4.7294   -1.3074 C   0  0  0  0  0  0  0  0  0  0  0  0
    4.0336    3.9318   -2.3827 C   0  0  0  0  0  0  0  0  0  0  0  0
    4.7148    2.7619   -2.6565 C   0  0  0  0  0  0  0  0  0  0  0  0
    5.7821    2.3760   -1.8558 C   0  0  0  0  0  0  0  0  0  0  0  0
    6.7124    0.8980   -2.0966 S   0  0  0  0  0  0  0  0  0  0  0  0
    5.7362   -0.0340   -3.3112 C   0  0  0  0  0  0  0  0  0  0  0  0
    6.1793    3.1932   -0.7977 C   0  0  0  0  0  0  0  0  0  0  0  0
    5.5013    4.3596   -0.5246 C   0  0  0  0  0  0  0  0  0  0  0  0
    4.4496    7.0705   -0.7519 C   0  0  0  0  0  0  0  0  0  0  0  0
    4.0900    7.9529    0.2692 C   0  0  0  0  0  0  0  0  0  0  0  0
    4.7951    9.1177    0.4579 C   0  0  0  0  0  0  0  0  0  0  0  0
    5.8743    9.4373   -0.3698 C   0  0  0  0  0  0  0  0  0  0  0  0
    6.6378   10.9992   -0.1000 S   0  0  0  0  0  0  0  0  0  0  0  0
    7.6834   11.2226   -1.5669 C   0  0  0  0  0  0  0  0  0  0  0  0
    6.2786    8.5294   -1.3394 C   0  0  0  0  0  0  0  0  0  0  0  0
    5.5729    7.3561   -1.5251 C   0  0  0  0  0  0  0  0  0  0  0  0
    1.5944    4.7334   -0.6552 C   0  0  0  0  0  0  0  0  0  0  0  0
    2.0161    3.0740   -0.3712 S   0  0  0  0  0  0  0  0  0  0  0  0
    1.7315    8.3247   -1.5060 C   0  0  0  0  0  0  0  0  0  0  0  0
    2.7750    8.7475   -2.2995 C   0  0  0  0  0  0  0  0  0  0  0  0
    3.4621    7.8899   -3.2767 C   0  0  0  0  0  0  0  0  0  0  0  0
    3.2514    6.7119   -3.5057 O   0  0  0  0  0  0  0  0  0  0  0  0
    4.3689    8.7827   -4.0288 C   0  0  0  0  0  0  0  0  0  0  0  0
    5.2322    8.4268   -5.0600 C   0  0  0  0  0  0  0  0  0  0  0  0
    5.9643    9.4748   -5.5664 C   0  0  0  0  0  0  0  0  0  0  0  0
    5.8349   10.7855   -5.0922 C   0  0  0  0  0  0  0  0  0  0  0  0
    4.9813   11.1513   -4.0768 C   0  0  0  0  0  0  0  0  0  0  0  0
    4.2391   10.0968   -3.5401 C   0  0  0  0  0  0  0  0  0  0  0  0
    3.2743   10.0886   -2.4414 C   0  0  0  0  0  0  0  0  0  0  0  0
    3.0198   11.1331   -1.5872 C   0  0  0  0  0  0  0  0  0  0  0  0
    2.1974   11.0312   -0.4477 C   0  0  0  0  0  0  0  0  0  0  0  0
    1.5641   11.0054    0.5104 N   0  0  0  0  0  0  0  0  0  0  0  0
    3.5968   12.4119   -1.7022 C   0  0  0  0  0  0  0  0  0  0  0  0
    4.0380   13.4712   -1.7536 N   0  0  0  0  0  0  0  0  0  0  0  0
    6.8528   11.3249   -6.0664 C   0  0  0  0  0  0  0  0  0  0  0  0
    6.3300   12.0856   -7.3099 C   0  0  0  0  0  0  0  0  0  0  0  0
    4.9463   11.5536   -7.5889 C   0  0  0  0  0  0  0  0  0  0  0  0
    5.0726   10.3116   -8.0367 C   0  0  0  0  0  0  0  0  0  0  0  0
    6.5443    9.9811   -8.0682 C   0  0  0  0  0  0  0  0  0  0  0  0
    7.1246   11.3629   -8.4095 C   0  0  0  0  0  0  0  0  0  0  0  0
    7.0003    9.8622   -6.5931 C   0  0  0  0  0  0  0  0  0  0  0  0
   -4.9509  -10.8367   -0.1728 H   0  0  0  0  0  0  0  0  0  0  0  0
   -3.6213  -15.8824    0.6303 H   0  0  0  0  0  0  0  0  0  0  0  0
   -1.8626  -13.4077    4.6867 H   0  0  0  0  0  0  0  0  0  0  0  0
   -0.2278  -16.4115    4.2866 H   0  0  0  0  0  0  0  0  0  0  0  0
   -1.5320  -17.0201    6.3190 H   0  0  0  0  0  0  0  0  0  0  0  0
   -3.9925  -16.2533    5.8798 H   0  0  0  0  0  0  0  0  0  0  0  0
   -4.9142  -17.5824    3.7725 H   0  0  0  0  0  0  0  0  0  0  0  0
   -3.0200  -19.1679    2.9122 H   0  0  0  0  0  0  0  0  0  0  0  0
   -0.9389  -19.0168    4.6127 H   0  0  0  0  0  0  0  0  0  0  0  0
   -2.4500  -19.3625    5.4906 H   0  0  0  0  0  0  0  0  0  0  0  0
   -1.1210  -17.7045    2.2397 H   0  0  0  0  0  0  0  0  0  0  0  0
   -3.9799   -4.1590   -0.4180 H   0  0  0  0  0  0  0  0  0  0  0  0
   -5.3058   -2.5236    0.2238 H   0  0  0  0  0  0  0  0  0  0  0  0
   -7.2140   -1.3202   -1.0260 H   0  0  0  0  0  0  0  0  0  0  0  0
   -6.9854    3.6687   -2.3059 H   0  0  0  0  0  0  0  0  0  0  0  0
   -5.4353    3.0562   -1.7885 H   0  0  0  0  0  0  0  0  0  0  0  0
   -8.1170    2.4866   -0.4472 H   0  0  0  0  0  0  0  0  0  0  0  0
   -6.8283    3.5181    0.1723 H   0  0  0  0  0  0  0  0  0  0  0  0
   -6.5880    1.7737    0.0539 H   0  0  0  0  0  0  0  0  0  0  0  0
   -6.3852    0.9287   -5.4004 H   0  0  0  0  0  0  0  0  0  0  0  0
   -4.8483    1.1496   -4.5997 H   0  0  0  0  0  0  0  0  0  0  0  0
   -5.2842    3.5753   -4.3654 H   0  0  0  0  0  0  0  0  0  0  0  0
   -5.3751    3.0768   -6.0572 H   0  0  0  0  0  0  0  0  0  0  0  0
   -6.8529    3.3855   -5.1452 H   0  0  0  0  0  0  0  0  0  0  0  0
   -8.9576    0.5550   -2.1032 H   0  0  0  0  0  0  0  0  0  0  0  0
   -8.6001   -0.2364   -3.6187 H   0  0  0  0  0  0  0  0  0  0  0  0
   -9.3528    2.7066   -3.3163 H   0  0  0  0  0  0  0  0  0  0  0  0
   -9.0113    1.8957   -4.8424 H   0  0  0  0  0  0  0  0  0  0  0  0
  -10.4185    1.4266   -3.8924 H   0  0  0  0  0  0  0  0  0  0  0  0
    0.6163   -0.3062    3.5525 H   0  0  0  0  0  0  0  0  0  0  0  0
    2.4156   -1.2213    5.1838 H   0  0  0  0  0  0  0  0  0  0  0  0
    5.9704   -4.8327    4.6761 H   0  0  0  0  0  0  0  0  0  0  0  0
    5.6725   -3.1963    4.1451 H   0  0  0  0  0  0  0  0  0  0  0  0
    6.1404   -4.6460    2.2064 H   0  0  0  0  0  0  0  0  0  0  0  0
    4.4754   -4.0694    2.1266 H   0  0  0  0  0  0  0  0  0  0  0  0
    4.8111   -5.7146    2.6519 H   0  0  0  0  0  0  0  0  0  0  0  0
    2.5786   -6.2406    3.9699 H   0  0  0  0  0  0  0  0  0  0  0  0
    1.8033   -5.9248    5.4976 H   0  0  0  0  0  0  0  0  0  0  0  0
    3.8190   -6.7931    6.7075 H   0  0  0  0  0  0  0  0  0  0  0  0
    4.5885   -7.1314    5.1606 H   0  0  0  0  0  0  0  0  0  0  0  0
    3.1297   -8.0035    5.6280 H   0  0  0  0  0  0  0  0  0  0  0  0
    4.1629   -2.5404    6.7940 H   0  0  0  0  0  0  0  0  0  0  0  0
    4.5569   -4.1511    7.3314 H   0  0  0  0  0  0  0  0  0  0  0  0
    1.7227   -3.0319    7.1555 H   0  0  0  0  0  0  0  0  0  0  0  0
    2.6676   -3.1942    8.6364 H   0  0  0  0  0  0  0  0  0  0  0  0
    2.1561   -4.6296    7.7531 H   0  0  0  0  0  0  0  0  0  0  0  0
    1.2383    0.3708    1.4069 H   0  0  0  0  0  0  0  0  0  0  0  0
   -0.5806    3.2966    2.5025 H   0  0  0  0  0  0  0  0  0  0  0  0
   -1.1456    1.5191    4.1099 H   0  0  0  0  0  0  0  0  0  0  0  0
   -4.2769   -2.4753    3.8500 H   0  0  0  0  0  0  0  0  0  0  0  0
   -5.2781   -1.1027    3.3298 H   0  0  0  0  0  0  0  0  0  0  0  0
   -3.9435   -1.6937    2.2867 H   0  0  0  0  0  0  0  0  0  0  0  0
   -4.6490    0.5914    1.8436 H   0  0  0  0  0  0  0  0  0  0  0  0
   -4.0922    2.3499    0.2568 H   0  0  0  0  0  0  0  0  0  0  0  0
   -4.0483    4.9397    1.1052 H   0  0  0  0  0  0  0  0  0  0  0  0
   -5.6966    6.1540   -0.2710 H   0  0  0  0  0  0  0  0  0  0  0  0
   -5.8874    7.6188   -5.1562 H   0  0  0  0  0  0  0  0  0  0  0  0
   -5.0756    6.0395   -5.1543 H   0  0  0  0  0  0  0  0  0  0  0  0
   -4.2267    7.4949   -4.5343 H   0  0  0  0  0  0  0  0  0  0  0  0
   -3.3102    5.4352   -3.7474 H   0  0  0  0  0  0  0  0  0  0  0  0
   -1.6981    4.2183   -2.3916 H   0  0  0  0  0  0  0  0  0  0  0  0
    3.2234    4.2541   -3.0176 H   0  0  0  0  0  0  0  0  0  0  0  0
    4.4078    2.1666   -3.5008 H   0  0  0  0  0  0  0  0  0  0  0  0
    4.7158   -0.1396   -2.9554 H   0  0  0  0  0  0  0  0  0  0  0  0
    6.2079   -1.0094   -3.3787 H   0  0  0  0  0  0  0  0  0  0  0  0
    5.7703    0.4572   -4.2794 H   0  0  0  0  0  0  0  0  0  0  0  0
    7.0186    2.8932   -0.1895 H   0  0  0  0  0  0  0  0  0  0  0  0
    5.8042    4.9859    0.3014 H   0  0  0  0  0  0  0  0  0  0  0  0
    3.2481    7.7277    0.9059 H   0  0  0  0  0  0  0  0  0  0  0  0
    4.5094    9.8062    1.2382 H   0  0  0  0  0  0  0  0  0  0  0  0
    8.0247   12.2521   -1.5234 H   0  0  0  0  0  0  0  0  0  0  0  0
    8.5353   10.5495   -1.5308 H   0  0  0  0  0  0  0  0  0  0  0  0
    7.0903   11.0663   -2.4639 H   0  0  0  0  0  0  0  0  0  0  0  0
    7.1305    8.7295   -1.9687 H   0  0  0  0  0  0  0  0  0  0  0  0
    5.8826    6.6591   -2.2892 H   0  0  0  0  0  0  0  0  0  0  0  0
    1.0020    9.0554   -1.1778 H   0  0  0  0  0  0  0  0  0  0  0  0
    5.2985    7.4052   -5.4010 H   0  0  0  0  0  0  0  0  0  0  0  0
    4.8827   12.1662   -3.7281 H   0  0  0  0  0  0  0  0  0  0  0  0
    7.7294   11.8006   -5.6294 H   0  0  0  0  0  0  0  0  0  0  0  0
    6.4257   13.1664   -7.2504 H   0  0  0  0  0  0  0  0  0  0  0  0
    4.0431   12.0977   -7.3837 H   0  0  0  0  0  0  0  0  0  0  0  0
    4.2958    9.6105   -8.2799 H   0  0  0  0  0  0  0  0  0  0  0  0
    6.8358    9.1459   -8.6999 H   0  0  0  0  0  0  0  0  0  0  0  0
    8.2040   11.4252   -8.2772 H   0  0  0  0  0  0  0  0  0  0  0  0
    6.8571   11.6964   -9.4110 H   0  0  0  0  0  0  0  0  0  0  0  0
    7.9730    9.3827   -6.4971 H   0  0  0  0  0  0  0  0  0  0  0  0
  1  2  2  0  0  0  0
  2  3  1  0  0  0  0
  3  4  2  0  0  0  0
  3  5  1  0  0  0  0
  5  6  2  0  0  0  0
  6  7  1  0  0  0  0
  7  8  2  0  0  0  0
  8  9  1  0  0  0  0
  9 10  2  0  0  0  0
 10 11  1  0  0  0  0
 11 12  2  0  0  0  0
 12 13  1  0  0  0  0
 13 14  3  0  0  0  0
 12 15  1  0  0  0  0
 15 16  3  0  0  0  0
  8 17  1  0  0  0  0
 17 18  1  0  0  0  0
 18 19  1  0  0  0  0
 19 20  2  0  0  0  0
 20 21  1  0  0  0  0
 21 22  1  0  0  0  0
 21 23  1  0  0  0  0
  1 24  1  0  0  0  0
 24 25  2  0  0  0  0
 25 26  1  0  0  0  0
 26 27  1  0  0  0  0
 27 28  2  0  0  0  0
 28 29  2  0  0  0  0
 26 30  2  0  0  0  0
 30 31  1  0  0  0  0
 31 32  2  0  0  0  0
 32 33  1  0  0  0  0
 33 34  1  0  0  0  0
 34 35  2  0  0  0  0
 30 36  1  0  0  0  0
 36 37  2  0  0  0  0
 37 38  1  0  0  0  0
 38 39  2  0  0  0  0
 39 40  1  0  0  0  0
 40 41  2  0  0  0  0
 41 42  1  0  0  0  0
 42 43  2  0  0  0  0
 43 44  1  0  0  0  0
 44 45  1  0  0  0  0
 45 46  1  0  0  0  0
 44 47  1  0  0  0  0
 47 48  1  0  0  0  0
 44 49  1  0  0  0  0
 49 50  1  0  0  0  0
 43 51  1  0  0  0  0
 39 52  1  0  0  0  0
 52 53  2  0  0  0  0
 53 54  1  0  0  0  0
 54 55  1  0  0  0  0
 55 56  2  0  0  0  0
 56 57  1  0  0  0  0
 57 58  2  0  0  0  0
 58 59  1  0  0  0  0
 59 60  1  0  0  0  0
 60 61  1  0  0  0  0
 59 62  1  0  0  0  0
 62 63  1  0  0  0  0
 59 64  1  0  0  0  0
 64 65  1  0  0  0  0
 58 66  1  0  0  0  0
 54 67  2  0  0  0  0
 67 68  1  0  0  0  0
 53 69  1  0  0  0  0
 69 70  2  0  0  0  0
 70 71  1  0  0  0  0
 70 72  1  0  0  0  0
 72 73  2  0  0  0  0
 73 74  1  0  0  0  0
 74 75  1  0  0  0  0
 75 76  2  0  0  0  0
 76 77  1  0  0  0  0
 77 78  2  0  0  0  0
 78 79  1  0  0  0  0
 79 80  1  0  0  0  0
 78 81  1  0  0  0  0
 81 82  2  0  0  0  0
 74 83  1  0  0  0  0
 83 84  2  0  0  0  0
 84 85  1  0  0  0  0
 85 86  2  0  0  0  0
 86 87  1  0  0  0  0
 87 88  1  0  0  0  0
 86 89  1  0  0  0  0
 89 90  2  0  0  0  0
 73 91  1  0  0  0  0
 91 92  1  0  0  0  0
 92 93  1  0  0  0  0
 93 94  2  0  0  0  0
 94 95  1  0  0  0  0
 95 96  1  0  0  0  0
 96 97  2  0  0  0  0
 97 98  1  0  0  0  0
 98 99  2  0  0  0  0
 99100  1  0  0  0  0
100101  1  0  0  0  0
 99102  1  0  0  0  0
102103  2  0  0  0  0
 95104  1  0  0  0  0
104105  2  0  0  0  0
105106  1  0  0  0  0
106107  2  0  0  0  0
107108  1  0  0  0  0
108109  1  0  0  0  0
107110  1  0  0  0  0
110111  2  0  0  0  0
 94112  1  0  0  0  0
112113  1  0  0  0  0
 93114  1  0  0  0  0
114115  2  0  0  0  0
115116  1  0  0  0  0
116117  2  0  0  0  0
116118  1  0  0  0  0
118119  2  0  0  0  0
119120  1  0  0  0  0
120121  2  0  0  0  0
121122  1  0  0  0  0
122123  2  0  0  0  0
123124  1  0  0  0  0
124125  2  0  0  0  0
125126  1  0  0  0  0
126127  3  0  0  0  0
125128  1  0  0  0  0
128129  3  0  0  0  0
121130  1  0  0  0  0
130131  1  0  0  0  0
131132  1  0  0  0  0
132133  2  0  0  0  0
133134  1  0  0  0  0
134135  1  0  0  0  0
134136  1  0  0  0  0
 11  2  1  0  0  0  0
 23 17  1  0  0  0  0
 35 24  1  0  0  0  0
 68 36  1  0  0  0  0
113 72  1  0  0  0  0
124115  1  0  0  0  0
136130  1  0  0  0  0
 10  5  1  0  0  0  0
 22 18  1  0  0  0  0
 29 25  1  0  0  0  0
 35 31  1  0  0  0  0
 67 38  1  0  0  0  0
 82 75  1  0  0  0  0
 90 83  1  0  0  0  0
112 91  2  0  0  0  0
123118  1  0  0  0  0
135131  1  0  0  0  0
 23  7  1  0  0  0  0
 51 40  1  0  0  0  0
 71 52  1  0  0  0  0
103 96  1  0  0  0  0
111104  1  0  0  0  0
136120  1  0  0  0  0
 66 55  1  0  0  0  0
  1137  1  0  0  0  0
  6138  1  0  0  0  0
  9139  1  0  0  0  0
 17140  1  0  0  0  0
 18141  1  0  0  0  0
 19142  1  0  0  0  0
 20143  1  0  0  0  0
 21144  1  0  0  0  0
 22145  1  0  0  0  0
 22146  1  0  0  0  0
 23147  1  0  0  0  0
 37148  1  0  0  0  0
 41149  1  0  0  0  0
 42150  1  0  0  0  0
 45151  1  0  0  0  0
 45152  1  0  0  0  0
 46153  1  0  0  0  0
 46154  1  0  0  0  0
 46155  1  0  0  0  0
 47156  1  0  0  0  0
 47157  1  0  0  0  0
 48158  1  0  0  0  0
 48159  1  0  0  0  0
 48160  1  0  0  0  0
 49161  1  0  0  0  0
 49162  1  0  0  0  0
 50163  1  0  0  0  0
 50164  1  0  0  0  0
 50165  1  0  0  0  0
 56166  1  0  0  0  0
 57167  1  0  0  0  0
 60168  1  0  0  0  0
 60169  1  0  0  0  0
 61170  1  0  0  0  0
 61171  1  0  0  0  0
 61172  1  0  0  0  0
 62173  1  0  0  0  0
 62174  1  0  0  0  0
 63175  1  0  0  0  0
 63176  1  0  0  0  0
 63177  1  0  0  0  0
 64178  1  0  0  0  0
 64179  1  0  0  0  0
 65180  1  0  0  0  0
 65181  1  0  0  0  0
 65182  1  0  0  0  0
 69183  1  0  0  0  0
 76184  1  0  0  0  0
 77185  1  0  0  0  0
 80186  1  0  0  0  0
 80187  1  0  0  0  0
 80188  1  0  0  0  0
 81189  1  0  0  0  0
 82190  1  0  0  0  0
 84191  1  0  0  0  0
 85192  1  0  0  0  0
 88193  1  0  0  0  0
 88194  1  0  0  0  0
 88195  1  0  0  0  0
 89196  1  0  0  0  0
 90197  1  0  0  0  0
 97198  1  0  0  0  0
 98199  1  0  0  0  0
101200  1  0  0  0  0
101201  1  0  0  0  0
101202  1  0  0  0  0
102203  1  0  0  0  0
103204  1  0  0  0  0
105205  1  0  0  0  0
106206  1  0  0  0  0
109207  1  0  0  0  0
109208  1  0  0  0  0
109209  1  0  0  0  0
110210  1  0  0  0  0
111211  1  0  0  0  0
114212  1  0  0  0  0
119213  1  0  0  0  0
122214  1  0  0  0  0
130215  1  0  0  0  0
131216  1  0  0  0  0
132217  1  0  0  0  0
133218  1  0  0  0  0
134219  1  0  0  0  0
135220  1  0  0  0  0
135221  1  0  0  0  0
136222  1  0  0  0  0
M  END
