
  xtb     02092212503D
 energy: -371.160030559092 gnorm: 0.000422640549 xtb: 6.4.1 (unknown)
220240  0     0  0            999 V2000
   -1.5753   -2.3432    7.2592 C   0  0  0  0  0  0  0  0  0  0  0  0
   -2.4551   -3.3588    7.5803 C   0  0  0  0  0  0  0  0  0  0  0  0
   -3.7598   -3.5592    6.9324 C   0  0  0  0  0  0  0  0  0  0  0  0
   -4.2455   -2.9067    6.0249 O   0  0  0  0  0  0  0  0  0  0  0  0
   -4.4207   -4.6431    7.6902 C   0  0  0  0  0  0  0  0  0  0  0  0
   -5.6708   -5.2010    7.4423 C   0  0  0  0  0  0  0  0  0  0  0  0
   -6.0056   -6.2262    8.2957 C   0  0  0  0  0  0  0  0  0  0  0  0
   -5.1636   -6.6598    9.3262 C   0  0  0  0  0  0  0  0  0  0  0  0
   -3.9293   -6.1121    9.5869 C   0  0  0  0  0  0  0  0  0  0  0  0
   -3.5705   -5.0720    8.7275 C   0  0  0  0  0  0  0  0  0  0  0  0
   -2.3375   -4.2910    8.6629 C   0  0  0  0  0  0  0  0  0  0  0  0
   -1.1943   -4.5279    9.3901 C   0  0  0  0  0  0  0  0  0  0  0  0
    0.0363   -3.8893    9.1456 C   0  0  0  0  0  0  0  0  0  0  0  0
    1.0866   -3.4571    8.9669 N   0  0  0  0  0  0  0  0  0  0  0  0
   -1.0712   -5.4971   10.4012 C   0  0  0  0  0  0  0  0  0  0  0  0
   -0.8816   -6.2733   11.2278 N   0  0  0  0  0  0  0  0  0  0  0  0
   -6.1363   -7.7171    9.7868 C   0  0  0  0  0  0  0  0  0  0  0  0
   -6.9569   -7.3966   11.0538 C   0  0  0  0  0  0  0  0  0  0  0  0
   -8.1237   -8.3549   10.9818 C   0  0  0  0  0  0  0  0  0  0  0  0
   -8.9217   -7.9462   10.0037 C   0  0  0  0  0  0  0  0  0  0  0  0
   -8.3076   -6.7046    9.3984 C   0  0  0  0  0  0  0  0  0  0  0  0
   -7.6596   -6.0946   10.6479 C   0  0  0  0  0  0  0  0  0  0  0  0
   -7.0757   -7.2351    8.6350 C   0  0  0  0  0  0  0  0  0  0  0  0
   -1.4857   -1.7130    6.0205 C   0  0  0  0  0  0  0  0  0  0  0  0
   -1.8884   -2.1287    4.7324 C   0  0  0  0  0  0  0  0  0  0  0  0
   -2.2522   -3.3808    4.3432 N   0  0  0  0  0  0  0  0  0  0  0  0
   -1.9517   -4.5508    5.0483 C   0  0  0  0  0  0  0  0  0  0  0  0
   -0.7373   -4.7297    5.7066 C   0  0  0  0  0  0  0  0  0  0  0  0
   -0.4918   -5.8738    6.4389 C   0  0  0  0  0  0  0  0  0  0  0  0
   -1.4636   -6.8639    6.5328 C   0  0  0  0  0  0  0  0  0  0  0  0
   -1.3100   -8.3175    7.5106 S   0  0  0  0  0  0  0  0  0  0  0  0
    0.3380   -8.1881    8.2579 C   0  0  0  0  0  0  0  0  0  0  0  0
   -2.6563   -6.7163    5.8242 C   0  0  0  0  0  0  0  0  0  0  0  0
   -2.8955   -5.5804    5.0861 C   0  0  0  0  0  0  0  0  0  0  0  0
   -2.8738   -3.5331    3.0788 C   0  0  0  0  0  0  0  0  0  0  0  0
   -4.0767   -2.8895    2.7978 C   0  0  0  0  0  0  0  0  0  0  0  0
   -4.6048   -2.9561    1.5268 C   0  0  0  0  0  0  0  0  0  0  0  0
   -3.9378   -3.6569    0.5230 C   0  0  0  0  0  0  0  0  0  0  0  0
   -4.6413   -3.5772   -1.0916 S   0  0  0  0  0  0  0  0  0  0  0  0
   -3.4963   -4.5391   -2.1210 C   0  0  0  0  0  0  0  0  0  0  0  0
   -2.7783   -4.3578    0.8263 C   0  0  0  0  0  0  0  0  0  0  0  0
   -2.2536   -4.3016    2.1022 C   0  0  0  0  0  0  0  0  0  0  0  0
   -1.7269   -1.0725    3.8038 C   0  0  0  0  0  0  0  0  0  0  0  0
   -2.0461   -0.9274    2.1132 S   0  0  0  0  0  0  0  0  0  0  0  0
   -1.3218    0.6763    2.0768 C   0  0  0  0  0  0  0  0  0  0  0  0
   -0.8172    1.0553    3.3315 C   0  0  0  0  0  0  0  0  0  0  0  0
   -0.0969    2.1898    3.6819 N   0  0  0  0  0  0  0  0  0  0  0  0
   -0.2815    2.6667    4.9976 C   0  0  0  0  0  0  0  0  0  0  0  0
   -1.5688    2.8615    5.4989 C   0  0  0  0  0  0  0  0  0  0  0  0
   -1.7524    3.3173    6.7845 C   0  0  0  0  0  0  0  0  0  0  0  0
   -0.6570    3.5888    7.6024 C   0  0  0  0  0  0  0  0  0  0  0  0
   -1.0174    4.1727    9.2253 S   0  0  0  0  0  0  0  0  0  0  0  0
    0.6050    4.2504   10.0354 C   0  0  0  0  0  0  0  0  0  0  0  0
    0.6266    3.3939    7.1080 C   0  0  0  0  0  0  0  0  0  0  0  0
    0.8093    2.9336    5.8195 C   0  0  0  0  0  0  0  0  0  0  0  0
    0.9078    2.7539    2.8959 C   0  0  0  0  0  0  0  0  0  0  0  0
    1.2833    4.0887    3.0885 C   0  0  0  0  0  0  0  0  0  0  0  0
    2.2288    4.6721    2.2813 C   0  0  0  0  0  0  0  0  0  0  0  0
    2.8375    3.9473    1.2563 C   0  0  0  0  0  0  0  0  0  0  0  0
    3.9983    4.8153    0.2482 S   0  0  0  0  0  0  0  0  0  0  0  0
    4.1763    3.7425   -1.2031 C   0  0  0  0  0  0  0  0  0  0  0  0
    2.5070    2.6138    1.0889 C   0  0  0  0  0  0  0  0  0  0  0  0
    1.5475    2.0282    1.8959 C   0  0  0  0  0  0  0  0  0  0  0  0
   -1.1023    0.0597    4.3010 C   0  0  0  0  0  0  0  0  0  0  0  0
   -0.7245   -0.1111    5.9823 S   0  0  0  0  0  0  0  0  0  0  0  0
   -1.2077    1.2522    0.7747 C   0  0  0  0  0  0  0  0  0  0  0  0
   -0.8127    2.5654    0.4645 C   0  0  0  0  0  0  0  0  0  0  0  0
   -1.0272    3.5939    1.3423 O   0  0  0  0  0  0  0  0  0  0  0  0
   -2.3354    3.6744    1.8996 C   0  0  0  0  0  0  0  0  0  0  0  0
   -2.4354    4.9848    2.6604 C   0  0  0  0  0  0  0  0  0  0  0  0
   -0.1710    2.8489   -0.7718 C   0  0  0  0  0  0  0  0  0  0  0  0
    0.5497    3.9756   -1.0127 O   0  0  0  0  0  0  0  0  0  0  0  0
    0.1374    5.2627   -0.5769 C   0  0  0  0  0  0  0  0  0  0  0  0
   -1.2093    5.6569   -1.1650 C   0  0  0  0  0  0  0  0  0  0  0  0
   -0.0962    1.8882   -1.7927 C   0  0  0  0  0  0  0  0  0  0  0  0
   -0.9531    0.7691   -1.6496 C   0  0  0  0  0  0  0  0  0  0  0  0
   -1.4610    0.4280   -0.3568 C   0  0  0  0  0  0  0  0  0  0  0  0
   -2.2213   -0.6575   -0.3883 N   0  0  0  0  0  0  0  0  0  0  0  0
   -2.3521   -1.1623   -1.9156 S   0  0  0  0  0  0  0  0  0  0  0  0
   -1.4064   -0.0472   -2.5944 N   0  0  0  0  0  0  0  0  0  0  0  0
    0.7357    2.0564   -2.9420 C   0  0  0  0  0  0  0  0  0  0  0  0
    1.2152    1.0802   -3.8135 C   0  0  0  0  0  0  0  0  0  0  0  0
    1.1196   -0.2967   -3.6912 N   0  0  0  0  0  0  0  0  0  0  0  0
    1.0327   -1.0147   -4.9037 C   0  0  0  0  0  0  0  0  0  0  0  0
    1.9396   -2.0283   -5.1936 C   0  0  0  0  0  0  0  0  0  0  0  0
    1.9237   -2.6425   -6.4288 C   0  0  0  0  0  0  0  0  0  0  0  0
    1.0053   -2.2441   -7.3909 C   0  0  0  0  0  0  0  0  0  0  0  0
    0.9760   -2.9411   -9.0121 S   0  0  0  0  0  0  0  0  0  0  0  0
    2.7227   -3.3828   -9.2615 C   0  0  0  0  0  0  0  0  0  0  0  0
    0.0603   -1.2711   -7.0840 C   0  0  0  0  0  0  0  0  0  0  0  0
    0.0731   -0.6601   -5.8489 C   0  0  0  0  0  0  0  0  0  0  0  0
    1.1913   -0.9794   -2.4839 C   0  0  0  0  0  0  0  0  0  0  0  0
    1.8259   -0.4393   -1.3671 C   0  0  0  0  0  0  0  0  0  0  0  0
    1.8209   -1.1020   -0.1541 C   0  0  0  0  0  0  0  0  0  0  0  0
    1.1703   -2.3198   -0.0253 C   0  0  0  0  0  0  0  0  0  0  0  0
    1.0325   -3.2264    1.4851 S   0  0  0  0  0  0  0  0  0  0  0  0
    1.6197   -2.0701    2.7531 C   0  0  0  0  0  0  0  0  0  0  0  0
    0.5871   -2.8961   -1.1520 C   0  0  0  0  0  0  0  0  0  0  0  0
    0.6052   -2.2449   -2.3631 C   0  0  0  0  0  0  0  0  0  0  0  0
    1.9130    1.6688   -4.8964 C   0  0  0  0  0  0  0  0  0  0  0  0
    2.6575    1.0301   -6.3132 S   0  0  0  0  0  0  0  0  0  0  0  0
    3.1703    2.6506   -6.8062 C   0  0  0  0  0  0  0  0  0  0  0  0
    2.7940    3.6246   -5.8447 C   0  0  0  0  0  0  0  0  0  0  0  0
    3.0555    4.9700   -5.8929 N   0  0  0  0  0  0  0  0  0  0  0  0
    4.2930    5.5059   -6.2836 C   0  0  0  0  0  0  0  0  0  0  0  0
    5.4878    4.8410   -6.0200 C   0  0  0  0  0  0  0  0  0  0  0  0
    6.6948    5.4166   -6.3566 C   0  0  0  0  0  0  0  0  0  0  0  0
    6.7279    6.6653   -6.9682 C   0  0  0  0  0  0  0  0  0  0  0  0
    8.2197    7.4792   -7.4219 S   0  0  0  0  0  0  0  0  0  0  0  0
    9.3780    6.0962   -7.6302 C   0  0  0  0  0  0  0  0  0  0  0  0
    5.5338    7.3356   -7.2237 C   0  0  0  0  0  0  0  0  0  0  0  0
    4.3284    6.7634   -6.8870 C   0  0  0  0  0  0  0  0  0  0  0  0
    2.1450    5.8426   -5.2604 C   0  0  0  0  0  0  0  0  0  0  0  0
    0.7866    5.7797   -5.5693 C   0  0  0  0  0  0  0  0  0  0  0  0
   -0.1032    6.6238   -4.9443 C   0  0  0  0  0  0  0  0  0  0  0  0
    0.3424    7.5466   -3.9985 C   0  0  0  0  0  0  0  0  0  0  0  0
   -0.8900    8.5707   -3.2618 S   0  0  0  0  0  0  0  0  0  0  0  0
    0.0340    9.5876   -2.0756 C   0  0  0  0  0  0  0  0  0  0  0  0
    1.6955    7.6147   -3.6942 C   0  0  0  0  0  0  0  0  0  0  0  0
    2.5878    6.7696   -4.3234 C   0  0  0  0  0  0  0  0  0  0  0  0
    2.0293    3.0488   -4.8158 C   0  0  0  0  0  0  0  0  0  0  0  0
    1.2772    3.6685   -3.3795 S   0  0  0  0  0  0  0  0  0  0  0  0
    3.7544    2.9235   -8.0441 C   0  0  0  0  0  0  0  0  0  0  0  0
    3.7990    2.1347   -9.1763 C   0  0  0  0  0  0  0  0  0  0  0  0
    3.2142    0.7999   -9.3603 C   0  0  0  0  0  0  0  0  0  0  0  0
    2.9853   -0.0476   -8.5152 O   0  0  0  0  0  0  0  0  0  0  0  0
    3.0200    0.6438  -10.8158 C   0  0  0  0  0  0  0  0  0  0  0  0
    2.3638   -0.3543  -11.5086 C   0  0  0  0  0  0  0  0  0  0  0  0
    2.3088   -0.2707  -12.8919 C   0  0  0  0  0  0  0  0  0  0  0  0
    2.9121    0.7963  -13.5459 C   0  0  0  0  0  0  0  0  0  0  0  0
    2.8311    0.8801  -15.2656 Cl  0  0  0  0  0  0  0  0  0  0  0  0
    3.5779    1.8082  -12.8588 C   0  0  0  0  0  0  0  0  0  0  0  0
    3.6232    1.7261  -11.4792 C   0  0  0  0  0  0  0  0  0  0  0  0
    4.2324    2.5972  -10.4734 C   0  0  0  0  0  0  0  0  0  0  0  0
    5.1520    3.5840  -10.7307 C   0  0  0  0  0  0  0  0  0  0  0  0
    5.4998    4.0234  -12.0230 C   0  0  0  0  0  0  0  0  0  0  0  0
    5.8075    4.4353  -13.0498 N   0  0  0  0  0  0  0  0  0  0  0  0
    5.9727    4.1614   -9.7469 C   0  0  0  0  0  0  0  0  0  0  0  0
    6.7525    4.5863   -9.0173 N   0  0  0  0  0  0  0  0  0  0  0  0
   -0.9135   -1.9669    8.0303 H   0  0  0  0  0  0  0  0  0  0  0  0
   -6.2886   -4.8433    6.6332 H   0  0  0  0  0  0  0  0  0  0  0  0
   -3.2902   -6.4539   10.3841 H   0  0  0  0  0  0  0  0  0  0  0  0
   -5.7680   -8.7410    9.7645 H   0  0  0  0  0  0  0  0  0  0  0  0
   -6.3847   -7.3906   11.9775 H   0  0  0  0  0  0  0  0  0  0  0  0
   -8.2167   -9.2341   11.5922 H   0  0  0  0  0  0  0  0  0  0  0  0
   -9.8144   -8.4159    9.6338 H   0  0  0  0  0  0  0  0  0  0  0  0
   -8.9669   -6.0678    8.8142 H   0  0  0  0  0  0  0  0  0  0  0  0
   -6.9800   -5.2710   10.4372 H   0  0  0  0  0  0  0  0  0  0  0  0
   -8.3985   -5.7788   11.3828 H   0  0  0  0  0  0  0  0  0  0  0  0
   -7.3341   -7.9392    7.8459 H   0  0  0  0  0  0  0  0  0  0  0  0
    0.0239   -3.9659    5.6558 H   0  0  0  0  0  0  0  0  0  0  0  0
    0.4560   -5.9715    6.9432 H   0  0  0  0  0  0  0  0  0  0  0  0
    0.4570   -9.0903    8.8498 H   0  0  0  0  0  0  0  0  0  0  0  0
    1.0963   -8.1524    7.4814 H   0  0  0  0  0  0  0  0  0  0  0  0
    0.3895   -7.3197    8.9079 H   0  0  0  0  0  0  0  0  0  0  0  0
   -3.3985   -7.4974    5.8815 H   0  0  0  0  0  0  0  0  0  0  0  0
   -3.8269   -5.4628    4.5537 H   0  0  0  0  0  0  0  0  0  0  0  0
   -4.5724   -2.3422    3.5846 H   0  0  0  0  0  0  0  0  0  0  0  0
   -5.5273   -2.4497    1.2893 H   0  0  0  0  0  0  0  0  0  0  0  0
   -3.4950   -5.5784   -1.8057 H   0  0  0  0  0  0  0  0  0  0  0  0
   -2.5013   -4.1059   -2.0721 H   0  0  0  0  0  0  0  0  0  0  0  0
   -3.8804   -4.4638   -3.1336 H   0  0  0  0  0  0  0  0  0  0  0  0
   -2.2618   -4.9372    0.0793 H   0  0  0  0  0  0  0  0  0  0  0  0
   -1.3369   -4.8234    2.3320 H   0  0  0  0  0  0  0  0  0  0  0  0
   -2.4264    2.6440    4.8803 H   0  0  0  0  0  0  0  0  0  0  0  0
   -2.7478    3.4671    7.1729 H   0  0  0  0  0  0  0  0  0  0  0  0
    0.4044    4.5484   11.0598 H   0  0  0  0  0  0  0  0  0  0  0  0
    1.2304    4.9955    9.5523 H   0  0  0  0  0  0  0  0  0  0  0  0
    1.0711    3.2698   10.0208 H   0  0  0  0  0  0  0  0  0  0  0  0
    1.4943    3.5859    7.7176 H   0  0  0  0  0  0  0  0  0  0  0  0
    1.8097    2.7712    5.4468 H   0  0  0  0  0  0  0  0  0  0  0  0
    0.8051    4.6751    3.8579 H   0  0  0  0  0  0  0  0  0  0  0  0
    2.4994    5.7077    2.4214 H   0  0  0  0  0  0  0  0  0  0  0  0
    3.1881    3.4918   -1.5759 H   0  0  0  0  0  0  0  0  0  0  0  0
    4.7137    4.3284   -1.9426 H   0  0  0  0  0  0  0  0  0  0  0  0
    4.7505    2.8551   -0.9508 H   0  0  0  0  0  0  0  0  0  0  0  0
    2.9790    2.0150    0.3269 H   0  0  0  0  0  0  0  0  0  0  0  0
    1.2994    0.9893    1.7481 H   0  0  0  0  0  0  0  0  0  0  0  0
   -3.0786    3.6381    1.0904 H   0  0  0  0  0  0  0  0  0  0  0  0
   -2.5277    2.8284    2.5680 H   0  0  0  0  0  0  0  0  0  0  0  0
   -1.7097    5.0020    3.4685 H   0  0  0  0  0  0  0  0  0  0  0  0
   -3.4327    5.0887    3.0780 H   0  0  0  0  0  0  0  0  0  0  0  0
   -2.2383    5.8208    1.9949 H   0  0  0  0  0  0  0  0  0  0  0  0
    0.1273    5.3097    0.5151 H   0  0  0  0  0  0  0  0  0  0  0  0
    0.9269    5.9156   -0.9605 H   0  0  0  0  0  0  0  0  0  0  0  0
   -1.1744    5.5883   -2.2500 H   0  0  0  0  0  0  0  0  0  0  0  0
   -1.4521    6.6779   -0.8860 H   0  0  0  0  0  0  0  0  0  0  0  0
   -1.9937    4.9988   -0.7994 H   0  0  0  0  0  0  0  0  0  0  0  0
    2.6716   -2.3177   -4.4537 H   0  0  0  0  0  0  0  0  0  0  0  0
    2.6444   -3.4161   -6.6392 H   0  0  0  0  0  0  0  0  0  0  0  0
    3.3329   -2.5452   -8.9363 H   0  0  0  0  0  0  0  0  0  0  0  0
    2.9681   -4.2909   -8.7186 H   0  0  0  0  0  0  0  0  0  0  0  0
    2.8468   -3.5532  -10.3267 H   0  0  0  0  0  0  0  0  0  0  0  0
   -0.6672   -0.9875   -7.8289 H   0  0  0  0  0  0  0  0  0  0  0  0
   -0.6438    0.1097   -5.6056 H   0  0  0  0  0  0  0  0  0  0  0  0
    2.3299    0.5116   -1.4501 H   0  0  0  0  0  0  0  0  0  0  0  0
    2.3405   -0.6614    0.6814 H   0  0  0  0  0  0  0  0  0  0  0  0
    1.4433   -2.5617    3.7049 H   0  0  0  0  0  0  0  0  0  0  0  0
    1.0459   -1.1498    2.7049 H   0  0  0  0  0  0  0  0  0  0  0  0
    2.6824   -1.8806    2.6322 H   0  0  0  0  0  0  0  0  0  0  0  0
    0.1104   -3.8599   -1.0561 H   0  0  0  0  0  0  0  0  0  0  0  0
    0.1315   -2.6913   -3.2246 H   0  0  0  0  0  0  0  0  0  0  0  0
    5.4654    3.8728   -5.5414 H   0  0  0  0  0  0  0  0  0  0  0  0
    7.6068    4.8882   -6.1339 H   0  0  0  0  0  0  0  0  0  0  0  0
    9.7338    5.7495   -6.6640 H   0  0  0  0  0  0  0  0  0  0  0  0
   10.2093    6.4872   -8.2083 H   0  0  0  0  0  0  0  0  0  0  0  0
    8.8725    5.3086   -8.1794 H   0  0  0  0  0  0  0  0  0  0  0  0
    5.5650    8.3036   -7.6992 H   0  0  0  0  0  0  0  0  0  0  0  0
    3.4026    7.2800   -7.0935 H   0  0  0  0  0  0  0  0  0  0  0  0
    0.4387    5.0653   -6.3005 H   0  0  0  0  0  0  0  0  0  0  0  0
   -1.1550    6.5831   -5.1833 H   0  0  0  0  0  0  0  0  0  0  0  0
    0.5147    8.9531   -1.3366 H   0  0  0  0  0  0  0  0  0  0  0  0
    0.7575   10.2056   -2.5988 H   0  0  0  0  0  0  0  0  0  0  0  0
   -0.7067   10.2190   -1.5946 H   0  0  0  0  0  0  0  0  0  0  0  0
    2.0706    8.3147   -2.9658 H   0  0  0  0  0  0  0  0  0  0  0  0
    3.6383    6.8224   -4.0796 H   0  0  0  0  0  0  0  0  0  0  0  0
    4.1151    3.9408   -8.1628 H   0  0  0  0  0  0  0  0  0  0  0  0
    1.8909   -1.1673  -10.9800 H   0  0  0  0  0  0  0  0  0  0  0  0
    1.7982   -1.0273  -13.4661 H   0  0  0  0  0  0  0  0  0  0  0  0
    4.0268    2.6239  -13.4016 H   0  0  0  0  0  0  0  0  0  0  0  0
  1  2  2  0  0  0  0
  2  3  1  0  0  0  0
  3  4  2  0  0  0  0
  3  5  1  0  0  0  0
  5  6  2  0  0  0  0
  6  7  1  0  0  0  0
  7  8  2  0  0  0  0
  8  9  1  0  0  0  0
  9 10  2  0  0  0  0
 10 11  1  0  0  0  0
 11 12  2  0  0  0  0
 12 13  1  0  0  0  0
 13 14  3  0  0  0  0
 12 15  1  0  0  0  0
 15 16  3  0  0  0  0
  8 17  1  0  0  0  0
 17 18  1  0  0  0  0
 18 19  1  0  0  0  0
 19 20  2  0  0  0  0
 20 21  1  0  0  0  0
 21 22  1  0  0  0  0
 21 23  1  0  0  0  0
  1 24  1  0  0  0  0
 24 25  2  0  0  0  0
 25 26  1  0  0  0  0
 26 27  1  0  0  0  0
 27 28  2  0  0  0  0
 28 29  1  0  0  0  0
 29 30  2  0  0  0  0
 30 31  1  0  0  0  0
 31 32  1  0  0  0  0
 30 33  1  0  0  0  0
 33 34  2  0  0  0  0
 26 35  1  0  0  0  0
 35 36  2  0  0  0  0
 36 37  1  0  0  0  0
 37 38  2  0  0  0  0
 38 39  1  0  0  0  0
 39 40  1  0  0  0  0
 38 41  1  0  0  0  0
 41 42  2  0  0  0  0
 25 43  1  0  0  0  0
 43 44  1  0  0  0  0
 44 45  1  0  0  0  0
 45 46  2  0  0  0  0
 46 47  1  0  0  0  0
 47 48  1  0  0  0  0
 48 49  2  0  0  0  0
 49 50  1  0  0  0  0
 50 51  2  0  0  0  0
 51 52  1  0  0  0  0
 52 53  1  0  0  0  0
 51 54  1  0  0  0  0
 54 55  2  0  0  0  0
 47 56  1  0  0  0  0
 56 57  2  0  0  0  0
 57 58  1  0  0  0  0
 58 59  2  0  0  0  0
 59 60  1  0  0  0  0
 60 61  1  0  0  0  0
 59 62  1  0  0  0  0
 62 63  2  0  0  0  0
 46 64  1  0  0  0  0
 64 65  1  0  0  0  0
 45 66  1  0  0  0  0
 66 67  2  0  0  0  0
 67 68  1  0  0  0  0
 68 69  1  0  0  0  0
 69 70  1  0  0  0  0
 67 71  1  0  0  0  0
 71 72  1  0  0  0  0
 72 73  1  0  0  0  0
 73 74  1  0  0  0  0
 71 75  2  0  0  0  0
 75 76  1  0  0  0  0
 76 77  1  0  0  0  0
 77 78  2  0  0  0  0
 78 79  1  0  0  0  0
 79 80  1  0  0  0  0
 75 81  1  0  0  0  0
 81 82  2  0  0  0  0
 82 83  1  0  0  0  0
 83 84  1  0  0  0  0
 84 85  2  0  0  0  0
 85 86  1  0  0  0  0
 86 87  2  0  0  0  0
 87 88  1  0  0  0  0
 88 89  1  0  0  0  0
 87 90  1  0  0  0  0
 90 91  2  0  0  0  0
 83 92  1  0  0  0  0
 92 93  2  0  0  0  0
 93 94  1  0  0  0  0
 94 95  2  0  0  0  0
 95 96  1  0  0  0  0
 96 97  1  0  0  0  0
 95 98  1  0  0  0  0
 98 99  2  0  0  0  0
 82100  1  0  0  0  0
100101  1  0  0  0  0
101102  1  0  0  0  0
102103  2  0  0  0  0
103104  1  0  0  0  0
104105  1  0  0  0  0
105106  2  0  0  0  0
106107  1  0  0  0  0
107108  2  0  0  0  0
108109  1  0  0  0  0
109110  1  0  0  0  0
108111  1  0  0  0  0
111112  2  0  0  0  0
104113  1  0  0  0  0
113114  2  0  0  0  0
114115  1  0  0  0  0
115116  2  0  0  0  0
116117  1  0  0  0  0
117118  1  0  0  0  0
116119  1  0  0  0  0
119120  2  0  0  0  0
103121  1  0  0  0  0
121122  1  0  0  0  0
102123  1  0  0  0  0
123124  2  0  0  0  0
124125  1  0  0  0  0
125126  2  0  0  0  0
125127  1  0  0  0  0
127128  2  0  0  0  0
128129  1  0  0  0  0
129130  2  0  0  0  0
130131  1  0  0  0  0
130132  1  0  0  0  0
132133  2  0  0  0  0
133134  1  0  0  0  0
134135  2  0  0  0  0
135136  1  0  0  0  0
136137  3  0  0  0  0
135138  1  0  0  0  0
138139  3  0  0  0  0
 11  2  1  0  0  0  0
 23 17  1  0  0  0  0
 65 24  1  0  0  0  0
 77 66  1  0  0  0  0
122 81  1  0  0  0  0
134124  1  0  0  0  0
 10  5  1  0  0  0  0
 22 18  1  0  0  0  0
 34 27  1  0  0  0  0
 42 35  1  0  0  0  0
 64 43  2  0  0  0  0
 80 76  2  0  0  0  0
 91 84  1  0  0  0  0
 99 92  1  0  0  0  0
121100  2  0  0  0  0
133127  1  0  0  0  0
 23  7  1  0  0  0  0
 55 48  1  0  0  0  0
 63 56  1  0  0  0  0
112105  1  0  0  0  0
120113  1  0  0  0  0
  1140  1  0  0  0  0
  6141  1  0  0  0  0
  9142  1  0  0  0  0
 17143  1  0  0  0  0
 18144  1  0  0  0  0
 19145  1  0  0  0  0
 20146  1  0  0  0  0
 21147  1  0  0  0  0
 22148  1  0  0  0  0
 22149  1  0  0  0  0
 23150  1  0  0  0  0
 28151  1  0  0  0  0
 29152  1  0  0  0  0
 32153  1  0  0  0  0
 32154  1  0  0  0  0
 32155  1  0  0  0  0
 33156  1  0  0  0  0
 34157  1  0  0  0  0
 36158  1  0  0  0  0
 37159  1  0  0  0  0
 40160  1  0  0  0  0
 40161  1  0  0  0  0
 40162  1  0  0  0  0
 41163  1  0  0  0  0
 42164  1  0  0  0  0
 49165  1  0  0  0  0
 50166  1  0  0  0  0
 53167  1  0  0  0  0
 53168  1  0  0  0  0
 53169  1  0  0  0  0
 54170  1  0  0  0  0
 55171  1  0  0  0  0
 57172  1  0  0  0  0
 58173  1  0  0  0  0
 61174  1  0  0  0  0
 61175  1  0  0  0  0
 61176  1  0  0  0  0
 62177  1  0  0  0  0
 63178  1  0  0  0  0
 69179  1  0  0  0  0
 69180  1  0  0  0  0
 70181  1  0  0  0  0
 70182  1  0  0  0  0
 70183  1  0  0  0  0
 73184  1  0  0  0  0
 73185  1  0  0  0  0
 74186  1  0  0  0  0
 74187  1  0  0  0  0
 74188  1  0  0  0  0
 85189  1  0  0  0  0
 86190  1  0  0  0  0
 89191  1  0  0  0  0
 89192  1  0  0  0  0
 89193  1  0  0  0  0
 90194  1  0  0  0  0
 91195  1  0  0  0  0
 93196  1  0  0  0  0
 94197  1  0  0  0  0
 97198  1  0  0  0  0
 97199  1  0  0  0  0
 97200  1  0  0  0  0
 98201  1  0  0  0  0
 99202  1  0  0  0  0
106203  1  0  0  0  0
107204  1  0  0  0  0
110205  1  0  0  0  0
110206  1  0  0  0  0
110207  1  0  0  0  0
111208  1  0  0  0  0
112209  1  0  0  0  0
114210  1  0  0  0  0
115211  1  0  0  0  0
118212  1  0  0  0  0
118213  1  0  0  0  0
118214  1  0  0  0  0
119215  1  0  0  0  0
120216  1  0  0  0  0
123217  1  0  0  0  0
128218  1  0  0  0  0
129219  1  0  0  0  0
132220  1  0  0  0  0
M  END
