213

C          2.42500        5.60130       -5.59980
C          1.78700        6.72480       -5.13060
C          1.18980        6.90920       -3.79970
O          1.45030        6.31250       -2.77150
C          0.19500        7.98840       -3.94830
C         -0.70500        8.43980       -2.98610
C         -1.53130        9.44670       -3.42600
C         -1.46430        9.97190       -4.72310
C         -0.56880        9.54740       -5.67680
C          0.27640        8.51950       -5.25110
C          1.35510        7.83070       -5.95500
C          1.94130        8.24590       -7.12480
C          3.17760        7.76600       -7.59080
N          4.23140        7.50190       -7.96610
C          1.46260        9.30100       -7.92590
N          1.11130       10.13610       -8.63200
C         -2.59940       10.93510       -4.47820
C         -3.97100       10.54850       -5.07130
C         -4.95410       11.38720       -4.28690
C         -5.01590       10.89200       -3.05740
C         -4.07580        9.71020       -2.99030
C         -4.21650        9.17980       -4.42300
C         -2.67220       10.35120       -3.03080
C          2.77010        4.42790       -4.91660
C          3.05020        3.18760       -5.53790
N          2.97780        2.90740       -6.88730
C          2.42940        1.66620       -7.25420
C          3.03210        0.86580       -8.21910
C          2.50950       -0.37450       -8.53060
C          1.37750       -0.83800       -7.87410
S          0.64410       -2.41970       -8.15130
C          1.79390       -3.25010       -9.28250
C          0.75360       -0.02720       -6.92770
C          1.26830        1.21200       -6.62530
C          3.59380        3.70380       -7.86200
C          3.01600        3.82460       -9.12630
C          3.63240        4.58040      -10.09760
C          4.83410        5.23230       -9.82860
S          5.54820        6.17000      -11.13530
C          6.62820        7.33210      -10.25190
C          5.41720        5.10300       -8.57290
C          4.80020        4.34750       -7.59820
C          3.28520        2.18810       -4.58240
S          3.63410        0.48760       -4.67870
C          3.63170        0.37740       -2.92990
C          3.46120        1.61540       -2.31810
N          3.47500        1.80400       -0.93080
C          4.68360        1.63650       -0.24810
C          4.71530        1.22540        1.08780
C          5.91700        1.04600        1.73220
C          7.12230        1.25720        1.06430
S          8.59590        0.99120        2.00110
C          9.93250        1.40220        0.84380
C          7.09880        1.65010       -0.26550
C          5.89140        1.83880       -0.91080
C          2.28520        2.15190       -0.27880
C          1.07140        1.65140       -0.74420
C         -0.09950        1.88090       -0.05040
C         -0.07540        2.61450        1.12650
S         -1.51690        2.88900        2.11460
C         -2.57940        1.48070        1.67900
C          1.12030        3.18160        1.55670
C          2.28650        2.96100        0.85730
C          3.24120        2.63480       -3.26570
S          2.83140        4.30220       -3.15350
C          3.51730       -0.88300       -2.29470
C          3.36350       -2.12940       -2.86340
C          2.88920       -3.11080       -1.97670
C          2.62620       -4.49350       -2.37750
C          1.95660       -4.74360       -3.57480
C          1.70480       -6.05300       -3.95430
C          2.11560       -7.10880       -3.13600
C          2.79330       -6.86110       -1.95300
O          3.26980       -7.80480       -1.10220
C          2.92940       -9.16400       -1.29260
C          1.48890       -9.46480       -0.89180
C          3.05290       -5.54070       -1.57970
O          1.08430       -6.43750       -5.10240
C          0.58950       -5.46010       -5.99680
C         -0.73410       -4.85240       -5.54420
C          2.65540       -2.60130       -0.70620
S          3.15840       -0.93620       -0.59760
C          1.89320       -3.07510        0.39730
C          1.52280       -2.26360        1.43770
C          0.61900       -2.84560        2.34250
C          0.04700       -2.23520        3.47910
C          0.45240       -0.91950        3.91290
C          1.70840       -0.36950        3.85950
C          1.82410        0.95540        4.31120
C          0.65350        1.52520        4.73510
S          0.54200        3.17320        5.30120
C         -1.20240        3.28490        5.82470
C         -1.45610        2.62320        7.16430
Se        -0.78130        0.31950        4.61130
C         -0.93510       -2.97280        4.13120
C         -1.30440       -4.28890        3.74520
C         -0.67950       -4.92510        2.63700
C         -0.99490       -6.27490        2.23610
C         -1.05820       -6.77050        0.96020
C         -1.32960       -8.14360        0.83960
C         -1.47020       -8.81640        2.02270
S         -1.86760      -10.51560        2.11230
C         -1.79610      -10.83990        3.90860
C         -0.37430      -10.97580        4.41500
Se        -1.27570       -7.65870        3.48990
C          0.25350       -4.15830        1.94870
S          1.12810       -4.64450        0.50840
C         -2.34250       -4.77070        4.55380
C         -2.75750       -3.89370        5.54150
S         -1.84870       -2.39880        5.49150
C         -3.77710       -4.22480        6.45330
C         -4.32770       -3.49640        7.47160
C         -4.00920       -2.10170        7.82310
O         -3.17010       -1.37570        7.32320
C         -4.92730       -1.73380        8.91380
C         -5.00870       -0.49870        9.55390
C         -5.96580       -0.44200       10.53780
C         -6.78580       -1.53260       10.85760
C         -6.71680       -2.75490       10.23270
C         -5.74390       -2.83740        9.23110
C         -5.37270       -3.95660        8.36740
C         -5.90680       -5.21860        8.43490
C         -6.92050       -5.61010        9.33440
N         -7.74040       -6.00630       10.03420
C         -5.52580       -6.32480        7.64690
N         -5.27920       -7.28280        7.06160
C         -7.51080       -0.77250       11.94020
C         -7.10510       -1.09180       13.39470
C         -7.60170        0.10150       14.17870
C         -6.82510        1.13410       13.87680
C         -5.79040        0.65620       12.88360
C         -5.60190       -0.78570       13.37260
C         -6.59590        0.44310       11.58420
H          2.61050        5.56940       -6.66920
H         -0.72120        8.01100       -1.99640
H         -0.52330        9.96130       -6.67060
H         -2.36330       11.98990       -4.60420
H         -4.03160       10.60850       -6.15460
H         -5.44450       12.25930       -4.67780
H         -5.56820       11.26780       -2.21610
H         -4.23160        9.00590       -2.17750
H         -5.21740        8.80210       -4.62570
H         -3.48080        8.42340       -4.69040
H         -2.48340       11.01700       -2.19080
H          3.92420        1.21170       -8.71900
H          3.00490       -0.97260       -9.27800
H          2.78360       -3.29240       -8.83740
H          1.40250       -4.25440       -9.41020
H          1.81190       -2.73830      -10.23990
H         -0.13780       -0.38410       -6.43500
H          0.78040        1.83610       -5.89110
H          2.07840        3.32970       -9.33260
H          3.18430        4.68550      -11.07360
H          6.08340        7.72770       -9.40090
H          7.54660        6.83800       -9.94740
H          6.85440        8.12460      -10.95830
H          6.35470        5.58260       -8.34750
H          5.25400        4.24830       -6.62300
H          3.79180        1.03990        1.61370
H          5.93910        0.72860        2.76350
H         10.85350        1.26790        1.40260
H          9.91390        0.72310       -0.00380
H          9.84230        2.43660        0.52510
H          8.01080        1.82020       -0.81460
H          5.88950        2.15410       -1.94390
H          1.04720        1.05500       -1.64480
H         -1.02150        1.46910       -0.42990
H         -1.98810        0.56840        1.68820
H         -3.34350        1.43300        2.44950
H         -3.04480        1.63850        0.71020
H          1.12770        3.78750        2.44940
H          3.20880        3.40540        1.19780
H          3.56020       -2.31680       -3.90450
H          1.63370       -3.90680       -4.17240
H          1.89330       -8.10550       -3.47930
H          3.61910       -9.70700       -0.64050
H          3.12030       -9.47070       -2.32840
H          0.79290       -8.92410       -1.52800
H          1.29460      -10.53020       -0.97880
H          1.32070       -9.15660        0.13710
H          3.60970       -5.36110       -0.67450
H          0.44280       -6.00230       -6.93530
H          1.33640       -4.67570       -6.16570
H         -1.06610       -4.12630       -6.28100
H         -0.62480       -4.35680       -4.58290
H         -1.48530       -5.63180       -5.44530
H          1.84160       -1.23970        1.50680
H          2.57090       -0.93860        3.55450
H          2.76020        1.48670        4.33180
H         -1.80110        2.83860        5.02530
H         -1.40600        4.35470        5.86660
H         -1.26690        1.55060        7.11210
H         -0.81500        3.05430        7.92990
H         -2.49530        2.77070        7.45100
H         -0.95210       -6.14060        0.09370
H         -1.42930       -8.63860       -0.11040
H         -2.35290      -11.76680        4.04260
H         -2.33090      -10.02570        4.40730
H         -0.38360      -11.18980        5.48160
H          0.13800      -11.78410        3.89810
H          0.18330      -10.05290        4.25460
H         -2.82580       -5.72530        4.42320
H         -4.16980       -5.22260        6.29780
H         -4.35900        0.31460        9.27050
H         -7.36030       -3.57970       10.48860
H         -8.58660       -0.67120       11.81060
H         -7.41230       -2.07240       13.74760
H         -8.47170        0.08560       14.80850
H         -6.91680        2.15320       14.20400
H         -4.89950        1.26840       12.77220
H         -5.03050       -1.41420       12.69210
H         -5.15880       -0.82850       14.36610
H         -7.06170        1.35600       11.21740
