
  xtb     02082200403D
 energy: -302.323586717160 gnorm: 0.000701189553 xtb: 6.4.1 (unknown)
187207  0     0  0            999 V2000
    7.4266   -3.0681   -1.7707 C   0  0  0  0  0  0  0  0  0  0  0  0
    8.2365   -3.0284   -2.8838 C   0  0  0  0  0  0  0  0  0  0  0  0
    7.8089   -2.5062   -4.1904 C   0  0  0  0  0  0  0  0  0  0  0  0
    6.7387   -1.9967   -4.4709 O   0  0  0  0  0  0  0  0  0  0  0  0
    8.8913   -2.8539   -5.1357 C   0  0  0  0  0  0  0  0  0  0  0  0
    8.9326   -2.5859   -6.5002 C   0  0  0  0  0  0  0  0  0  0  0  0
   10.0674   -3.0433   -7.1280 C   0  0  0  0  0  0  0  0  0  0  0  0
   11.0819   -3.7294   -6.4502 C   0  0  0  0  0  0  0  0  0  0  0  0
   11.0520   -4.0025   -5.1019 C   0  0  0  0  0  0  0  0  0  0  0  0
    9.9115   -3.5354   -4.4449 C   0  0  0  0  0  0  0  0  0  0  0  0
    9.5395   -3.6164   -3.0333 C   0  0  0  0  0  0  0  0  0  0  0  0
   10.3569   -4.0244   -2.0078 C   0  0  0  0  0  0  0  0  0  0  0  0
   10.0025   -3.9479   -0.6465 C   0  0  0  0  0  0  0  0  0  0  0  0
    9.7845   -3.8858    0.4797 N   0  0  0  0  0  0  0  0  0  0  0  0
   11.6702   -4.4995   -2.1818 C   0  0  0  0  0  0  0  0  0  0  0  0
   12.7464   -4.8917   -2.2705 N   0  0  0  0  0  0  0  0  0  0  0  0
   11.9026   -3.9181   -7.7020 C   0  0  0  0  0  0  0  0  0  0  0  0
   11.8796   -5.3123   -8.3758 C   0  0  0  0  0  0  0  0  0  0  0  0
   10.5627   -5.9477   -8.0047 C   0  0  0  0  0  0  0  0  0  0  0  0
    9.6031   -5.2954   -8.6471 C   0  0  0  0  0  0  0  0  0  0  0  0
   10.2541   -4.2071   -9.4644 C   0  0  0  0  0  0  0  0  0  0  0  0
   11.5801   -4.8958   -9.8247 C   0  0  0  0  0  0  0  0  0  0  0  0
   10.7724   -3.1503   -8.4580 C   0  0  0  0  0  0  0  0  0  0  0  0
    6.3315   -2.2340   -1.5224 C   0  0  0  0  0  0  0  0  0  0  0  0
    6.0321   -0.9299   -1.9658 C   0  0  0  0  0  0  0  0  0  0  0  0
    6.8722   -0.0837   -2.6325 N   0  0  0  0  0  0  0  0  0  0  0  0
    6.3316    0.9669   -3.4010 C   0  0  0  0  0  0  0  0  0  0  0  0
    6.8543    2.2494   -3.2820 C   0  0  0  0  0  0  0  0  0  0  0  0
    6.3253    3.2927   -4.0173 C   0  0  0  0  0  0  0  0  0  0  0  0
    5.2647    3.0620   -4.8836 C   0  0  0  0  0  0  0  0  0  0  0  0
    4.4969    4.3113   -5.8629 S   0  0  0  0  0  0  0  0  0  0  0  0
    5.3518    5.8392   -5.3821 C   0  0  0  0  0  0  0  0  0  0  0  0
    4.7560    1.7707   -5.0203 C   0  0  0  0  0  0  0  0  0  0  0  0
    5.2823    0.7310   -4.2882 C   0  0  0  0  0  0  0  0  0  0  0  0
    8.2658   -0.2079   -2.5728 C   0  0  0  0  0  0  0  0  0  0  0  0
    8.9132   -0.5156   -1.3743 C   0  0  0  0  0  0  0  0  0  0  0  0
   10.2744   -0.7075   -1.3516 C   0  0  0  0  0  0  0  0  0  0  0  0
   11.0251   -0.6047   -2.5247 C   0  0  0  0  0  0  0  0  0  0  0  0
   12.7430   -0.9680   -2.3974 S   0  0  0  0  0  0  0  0  0  0  0  0
   13.2527   -1.2122   -4.1226 C   0  0  0  0  0  0  0  0  0  0  0  0
   10.3958   -0.2286   -3.7039 C   0  0  0  0  0  0  0  0  0  0  0  0
    9.0285   -0.0293   -3.7250 C   0  0  0  0  0  0  0  0  0  0  0  0
    4.7530   -0.5340   -1.5092 C   0  0  0  0  0  0  0  0  0  0  0  0
    3.8201    0.9176   -1.6692 S   0  0  0  0  0  0  0  0  0  0  0  0
    2.5481    0.2307   -0.6705 C   0  0  0  0  0  0  0  0  0  0  0  0
    2.8721   -1.0284   -0.1824 C   0  0  0  0  0  0  0  0  0  0  0  0
    2.1244   -1.7440    0.7409 N   0  0  0  0  0  0  0  0  0  0  0  0
    1.4349   -1.0828    1.7641 C   0  0  0  0  0  0  0  0  0  0  0  0
    0.2006   -1.5641    2.2102 C   0  0  0  0  0  0  0  0  0  0  0  0
   -0.5539   -0.8260    3.0952 C   0  0  0  0  0  0  0  0  0  0  0  0
   -0.1042    0.4119    3.5501 C   0  0  0  0  0  0  0  0  0  0  0  0
   -1.2087    1.3356    4.5704 S   0  0  0  0  0  0  0  0  0  0  0  0
   -0.4574    2.9865    4.6188 C   0  0  0  0  0  0  0  0  0  0  0  0
    1.1606    0.8501    3.1818 C   0  0  0  0  0  0  0  0  0  0  0  0
    1.9240    0.1043    2.3057 C   0  0  0  0  0  0  0  0  0  0  0  0
    2.1084   -3.1442    0.6528 C   0  0  0  0  0  0  0  0  0  0  0  0
    2.1701   -3.9273    1.8007 C   0  0  0  0  0  0  0  0  0  0  0  0
    2.1592   -5.3054    1.7136 C   0  0  0  0  0  0  0  0  0  0  0  0
    2.0967   -5.9238    0.4719 C   0  0  0  0  0  0  0  0  0  0  0  0
    2.0774   -7.6721    0.2337 S   0  0  0  0  0  0  0  0  0  0  0  0
    2.2467   -8.3466    1.9098 C   0  0  0  0  0  0  0  0  0  0  0  0
    2.0358   -5.1419   -0.6801 C   0  0  0  0  0  0  0  0  0  0  0  0
    2.0364   -3.7684   -0.5926 C   0  0  0  0  0  0  0  0  0  0  0  0
    4.1211   -1.4570   -0.6872 C   0  0  0  0  0  0  0  0  0  0  0  0
    5.0836   -2.8643   -0.4355 S   0  0  0  0  0  0  0  0  0  0  0  0
    1.3618    0.9709   -0.3945 C   0  0  0  0  0  0  0  0  0  0  0  0
   -0.3537    0.2101   -0.4569 Se  0  0  0  0  0  2  0  0  0  0  0  0
   -1.0683    1.8127    0.2556 C   0  0  0  0  0  0  0  0  0  0  0  0
   -0.0417    2.7522    0.3713 C   0  0  0  0  0  0  0  0  0  0  0  0
    0.0267    4.1053    0.8157 C   0  0  0  0  0  0  0  0  0  0  0  0
    1.2774    4.6198    0.8060 C   0  0  0  0  0  0  0  0  0  0  0  0
    1.7021    5.9980    1.1749 C   0  0  0  0  0  0  0  0  0  0  0  0
    2.1386    6.7903   -0.0589 C   0  0  0  0  0  0  0  0  0  0  0  0
    2.4854    3.4767    0.2403 S   0  0  0  0  0  0  0  0  0  0  0  0
    1.2487    2.2818   -0.0082 C   0  0  0  0  0  0  0  0  0  0  0  0
   -2.4150    1.9646    0.6837 C   0  0  0  0  0  0  0  0  0  0  0  0
   -3.5699    1.2448    0.3517 C   0  0  0  0  0  0  0  0  0  0  0  0
   -3.5367    0.0177   -0.5032 C   0  0  0  0  0  0  0  0  0  0  0  0
   -3.2359   -1.2235    0.3409 C   0  0  0  0  0  0  0  0  0  0  0  0
   -4.7075    1.7612    0.9845 C   0  0  0  0  0  0  0  0  0  0  0  0
   -4.4047    2.8031    1.8639 C   0  0  0  0  0  0  0  0  0  0  0  0
   -2.7525    3.2370    1.8462 S   0  0  0  0  0  0  0  0  0  0  0  0
   -5.5531    3.1900    2.5738 C   0  0  0  0  0  0  0  0  0  0  0  0
   -6.6358    2.4129    2.1372 C   0  0  0  0  0  0  0  0  0  0  0  0
   -6.2086    1.5018    1.0031 C   0  0  0  0  0  0  0  0  0  0  0  0
   -6.5238    0.0204    1.2654 C   0  0  0  0  0  0  0  0  0  0  0  0
   -8.0002   -0.3202    1.4280 C   0  0  0  0  0  0  0  0  0  0  0  0
   -6.9028    2.0844   -0.2529 C   0  0  0  0  0  0  0  0  0  0  0  0
   -6.5703    1.4302   -1.5861 C   0  0  0  0  0  0  0  0  0  0  0  0
   -7.8143    2.7351    2.7776 C   0  0  0  0  0  0  0  0  0  0  0  0
   -7.6494    3.7238    3.7473 C   0  0  0  0  0  0  0  0  0  0  0  0
   -5.9765    4.2981    3.8003 S   0  0  0  0  0  0  0  0  0  0  0  0
   -8.5453    4.3292    4.6391 C   0  0  0  0  0  0  0  0  0  0  0  0
   -9.8463    4.0286    4.9617 C   0  0  0  0  0  0  0  0  0  0  0  0
  -10.6477    2.8496    4.5742 C   0  0  0  0  0  0  0  0  0  0  0  0
  -10.4049    1.9963    3.7411 O   0  0  0  0  0  0  0  0  0  0  0  0
  -11.8469    2.8755    5.4334 C   0  0  0  0  0  0  0  0  0  0  0  0
  -12.8577    1.9185    5.4772 C   0  0  0  0  0  0  0  0  0  0  0  0
  -13.8478    2.1927    6.3894 C   0  0  0  0  0  0  0  0  0  0  0  0
  -13.8295    3.3318    7.2049 C   0  0  0  0  0  0  0  0  0  0  0  0
  -12.8386    4.2841    7.1699 C   0  0  0  0  0  0  0  0  0  0  0  0
  -11.8265    4.0284    6.2407 C   0  0  0  0  0  0  0  0  0  0  0  0
  -10.6288    4.7975    5.9116 C   0  0  0  0  0  0  0  0  0  0  0  0
  -10.3544    6.0604    6.3732 C   0  0  0  0  0  0  0  0  0  0  0  0
   -9.2608    6.8641    5.9881 C   0  0  0  0  0  0  0  0  0  0  0  0
   -8.4203    7.5998    5.7179 N   0  0  0  0  0  0  0  0  0  0  0  0
  -11.1693    6.7722    7.2774 C   0  0  0  0  0  0  0  0  0  0  0  0
  -11.7770    7.4132    8.0117 N   0  0  0  0  0  0  0  0  0  0  0  0
  -15.1276    2.9667    7.8806 C   0  0  0  0  0  0  0  0  0  0  0  0
  -16.4049    3.7266    7.4459 C   0  0  0  0  0  0  0  0  0  0  0  0
  -16.1710    4.1799    6.0263 C   0  0  0  0  0  0  0  0  0  0  0  0
  -16.1899    3.1048    5.2499 C   0  0  0  0  0  0  0  0  0  0  0  0
  -16.4371    1.9050    6.1306 C   0  0  0  0  0  0  0  0  0  0  0  0
  -17.3447    2.5357    7.1987 C   0  0  0  0  0  0  0  0  0  0  0  0
  -15.1505    1.6999    6.9682 C   0  0  0  0  0  0  0  0  0  0  0  0
    7.6038   -3.8392   -1.0304 H   0  0  0  0  0  0  0  0  0  0  0  0
    8.1255   -2.0612   -6.9877 H   0  0  0  0  0  0  0  0  0  0  0  0
   11.8328   -4.5446   -4.5937 H   0  0  0  0  0  0  0  0  0  0  0  0
   12.8991   -3.4796   -7.6924 H   0  0  0  0  0  0  0  0  0  0  0  0
   12.7684   -5.9125   -8.2004 H   0  0  0  0  0  0  0  0  0  0  0  0
   10.4622   -6.7441   -7.2908 H   0  0  0  0  0  0  0  0  0  0  0  0
    8.5407   -5.4376   -8.5766 H   0  0  0  0  0  0  0  0  0  0  0  0
    9.6628   -3.8011  -10.2812 H   0  0  0  0  0  0  0  0  0  0  0  0
   12.3222   -4.2172  -10.2435 H   0  0  0  0  0  0  0  0  0  0  0  0
   11.4452   -5.7483  -10.4888 H   0  0  0  0  0  0  0  0  0  0  0  0
   11.0315   -2.2098   -8.9412 H   0  0  0  0  0  0  0  0  0  0  0  0
    7.6753    2.4309   -2.6037 H   0  0  0  0  0  0  0  0  0  0  0  0
    6.7466    4.2777   -3.8987 H   0  0  0  0  0  0  0  0  0  0  0  0
    6.4025    5.7806   -5.6508 H   0  0  0  0  0  0  0  0  0  0  0  0
    4.8718    6.6315   -5.9480 H   0  0  0  0  0  0  0  0  0  0  0  0
    5.2233    6.0159   -4.3183 H   0  0  0  0  0  0  0  0  0  0  0  0
    3.9460    1.5974   -5.7118 H   0  0  0  0  0  0  0  0  0  0  0  0
    4.9140   -0.2751   -4.4107 H   0  0  0  0  0  0  0  0  0  0  0  0
    8.3428   -0.6174   -0.4638 H   0  0  0  0  0  0  0  0  0  0  0  0
   10.7734   -0.9588   -0.4285 H   0  0  0  0  0  0  0  0  0  0  0  0
   12.5640   -1.8955   -4.6119 H   0  0  0  0  0  0  0  0  0  0  0  0
   14.2412   -1.6576   -4.0710 H   0  0  0  0  0  0  0  0  0  0  0  0
   13.3033   -0.2596   -4.6423 H   0  0  0  0  0  0  0  0  0  0  0  0
   10.9555   -0.1034   -4.6167 H   0  0  0  0  0  0  0  0  0  0  0  0
    8.5401    0.2493   -4.6467 H   0  0  0  0  0  0  0  0  0  0  0  0
   -0.1727   -2.5042    1.8314 H   0  0  0  0  0  0  0  0  0  0  0  0
   -1.5181   -1.1849    3.4218 H   0  0  0  0  0  0  0  0  0  0  0  0
   -1.2019    3.6332    5.0725 H   0  0  0  0  0  0  0  0  0  0  0  0
    0.4408    2.9740    5.2296 H   0  0  0  0  0  0  0  0  0  0  0  0
   -0.2459    3.3205    3.6068 H   0  0  0  0  0  0  0  0  0  0  0  0
    1.5628    1.7750    3.5627 H   0  0  0  0  0  0  0  0  0  0  0  0
    2.9039    0.4596    2.0222 H   0  0  0  0  0  0  0  0  0  0  0  0
    2.2312   -3.4515    2.7682 H   0  0  0  0  0  0  0  0  0  0  0  0
    2.2094   -5.8821    2.6227 H   0  0  0  0  0  0  0  0  0  0  0  0
    2.2669   -9.4251    1.7886 H   0  0  0  0  0  0  0  0  0  0  0  0
    1.3922   -8.0605    2.5156 H   0  0  0  0  0  0  0  0  0  0  0  0
    3.1782   -8.0078    2.3524 H   0  0  0  0  0  0  0  0  0  0  0  0
    1.9817   -5.6275   -1.6422 H   0  0  0  0  0  0  0  0  0  0  0  0
    1.9748   -3.1683   -1.4888 H   0  0  0  0  0  0  0  0  0  0  0  0
   -0.8272    4.6855    1.1138 H   0  0  0  0  0  0  0  0  0  0  0  0
    0.8689    6.5051    1.6656 H   0  0  0  0  0  0  0  0  0  0  0  0
    2.5369    5.9463    1.8789 H   0  0  0  0  0  0  0  0  0  0  0  0
    2.4523    7.7905    0.2284 H   0  0  0  0  0  0  0  0  0  0  0  0
    2.9704    6.2914   -0.5511 H   0  0  0  0  0  0  0  0  0  0  0  0
    1.3164    6.8719   -0.7659 H   0  0  0  0  0  0  0  0  0  0  0  0
   -2.7681    0.1256   -1.2795 H   0  0  0  0  0  0  0  0  0  0  0  0
   -4.4929   -0.1167   -1.0036 H   0  0  0  0  0  0  0  0  0  0  0  0
   -2.3036   -1.0985    0.8908 H   0  0  0  0  0  0  0  0  0  0  0  0
   -3.1468   -2.0975   -0.2998 H   0  0  0  0  0  0  0  0  0  0  0  0
   -4.0297   -1.3961    1.0624 H   0  0  0  0  0  0  0  0  0  0  0  0
   -5.9926   -0.2707    2.1755 H   0  0  0  0  0  0  0  0  0  0  0  0
   -6.1209   -0.5686    0.4418 H   0  0  0  0  0  0  0  0  0  0  0  0
   -8.4308    0.1742    2.2925 H   0  0  0  0  0  0  0  0  0  0  0  0
   -8.5706   -0.0443    0.5454 H   0  0  0  0  0  0  0  0  0  0  0  0
   -8.1026   -1.3941    1.5708 H   0  0  0  0  0  0  0  0  0  0  0  0
   -7.9789    2.0288   -0.0835 H   0  0  0  0  0  0  0  0  0  0  0  0
   -6.6381    3.1436   -0.3109 H   0  0  0  0  0  0  0  0  0  0  0  0
   -7.1822    1.8814   -2.3646 H   0  0  0  0  0  0  0  0  0  0  0  0
   -6.7832    0.3643   -1.5718 H   0  0  0  0  0  0  0  0  0  0  0  0
   -5.5276    1.5882   -1.8480 H   0  0  0  0  0  0  0  0  0  0  0  0
   -8.7768    2.2988    2.5911 H   0  0  0  0  0  0  0  0  0  0  0  0
   -8.1058    5.1564    5.1847 H   0  0  0  0  0  0  0  0  0  0  0  0
  -12.8278    1.0517    4.8355 H   0  0  0  0  0  0  0  0  0  0  0  0
  -12.8364    5.1505    7.8096 H   0  0  0  0  0  0  0  0  0  0  0  0
  -15.0793    2.8180    8.9576 H   0  0  0  0  0  0  0  0  0  0  0  0
  -16.7359    4.4899    8.1450 H   0  0  0  0  0  0  0  0  0  0  0  0
  -15.9638    5.1970    5.7494 H   0  0  0  0  0  0  0  0  0  0  0  0
  -16.0014    3.0440    4.1940 H   0  0  0  0  0  0  0  0  0  0  0  0
  -16.7986    1.0094    5.6318 H   0  0  0  0  0  0  0  0  0  0  0  0
  -18.3133    2.8382    6.8034 H   0  0  0  0  0  0  0  0  0  0  0  0
  -17.4858    1.9050    8.0755 H   0  0  0  0  0  0  0  0  0  0  0  0
  -15.1207    0.7242    7.4499 H   0  0  0  0  0  0  0  0  0  0  0  0
  1  2  2  0  0  0  0
  2  3  1  0  0  0  0
  3  4  2  0  0  0  0
  3  5  1  0  0  0  0
  5  6  2  0  0  0  0
  6  7  1  0  0  0  0
  7  8  2  0  0  0  0
  8  9  1  0  0  0  0
  9 10  2  0  0  0  0
 10 11  1  0  0  0  0
 11 12  2  0  0  0  0
 12 13  1  0  0  0  0
 13 14  3  0  0  0  0
 12 15  1  0  0  0  0
 15 16  3  0  0  0  0
  8 17  1  0  0  0  0
 17 18  1  0  0  0  0
 18 19  1  0  0  0  0
 19 20  2  0  0  0  0
 20 21  1  0  0  0  0
 21 22  1  0  0  0  0
 21 23  1  0  0  0  0
  1 24  1  0  0  0  0
 24 25  2  0  0  0  0
 25 26  1  0  0  0  0
 26 27  1  0  0  0  0
 27 28  2  0  0  0  0
 28 29  1  0  0  0  0
 29 30  2  0  0  0  0
 30 31  1  0  0  0  0
 31 32  1  0  0  0  0
 30 33  1  0  0  0  0
 33 34  2  0  0  0  0
 26 35  1  0  0  0  0
 35 36  2  0  0  0  0
 36 37  1  0  0  0  0
 37 38  2  0  0  0  0
 38 39  1  0  0  0  0
 39 40  1  0  0  0  0
 38 41  1  0  0  0  0
 41 42  2  0  0  0  0
 25 43  1  0  0  0  0
 43 44  1  0  0  0  0
 44 45  1  0  0  0  0
 45 46  2  0  0  0  0
 46 47  1  0  0  0  0
 47 48  1  0  0  0  0
 48 49  2  0  0  0  0
 49 50  1  0  0  0  0
 50 51  2  0  0  0  0
 51 52  1  0  0  0  0
 52 53  1  0  0  0  0
 51 54  1  0  0  0  0
 54 55  2  0  0  0  0
 47 56  1  0  0  0  0
 56 57  2  0  0  0  0
 57 58  1  0  0  0  0
 58 59  2  0  0  0  0
 59 60  1  0  0  0  0
 60 61  1  0  0  0  0
 59 62  1  0  0  0  0
 62 63  2  0  0  0  0
 46 64  1  0  0  0  0
 64 65  1  0  0  0  0
 45 66  1  0  0  0  0
 66 67  1  0  0  0  0
 67 68  1  0  0  0  0
 68 69  2  0  0  0  0
 69 70  1  0  0  0  0
 70 71  2  0  0  0  0
 71 72  1  0  0  0  0
 72 73  1  0  0  0  0
 71 74  1  0  0  0  0
 74 75  1  0  0  0  0
 68 76  1  0  0  0  0
 76 77  2  0  0  0  0
 77 78  1  0  0  0  0
 78 79  1  0  0  0  0
 77 80  1  0  0  0  0
 80 81  2  0  0  0  0
 81 82  1  0  0  0  0
 81 83  1  0  0  0  0
 83 84  2  0  0  0  0
 84 85  1  0  0  0  0
 85 86  1  0  0  0  0
 86 87  1  0  0  0  0
 85 88  1  0  0  0  0
 88 89  1  0  0  0  0
 84 90  1  0  0  0  0
 90 91  2  0  0  0  0
 91 92  1  0  0  0  0
 91 93  1  0  0  0  0
 93 94  2  0  0  0  0
 94 95  1  0  0  0  0
 95 96  2  0  0  0  0
 95 97  1  0  0  0  0
 97 98  2  0  0  0  0
 98 99  1  0  0  0  0
 99100  2  0  0  0  0
100101  1  0  0  0  0
101102  2  0  0  0  0
102103  1  0  0  0  0
103104  2  0  0  0  0
104105  1  0  0  0  0
105106  3  0  0  0  0
104107  1  0  0  0  0
107108  3  0  0  0  0
100109  1  0  0  0  0
109110  1  0  0  0  0
110111  1  0  0  0  0
111112  2  0  0  0  0
112113  1  0  0  0  0
113114  1  0  0  0  0
113115  1  0  0  0  0
 11  2  1  0  0  0  0
 23 17  1  0  0  0  0
 65 24  1  0  0  0  0
 75 66  2  0  0  0  0
 82 76  1  0  0  0  0
 92 83  1  0  0  0  0
103 94  1  0  0  0  0
115109  1  0  0  0  0
 10  5  1  0  0  0  0
 22 18  1  0  0  0  0
 34 27  1  0  0  0  0
 42 35  1  0  0  0  0
 64 43  2  0  0  0  0
 75 69  1  0  0  0  0
 85 80  1  0  0  0  0
102 97  1  0  0  0  0
114110  1  0  0  0  0
 23  7  1  0  0  0  0
 55 48  1  0  0  0  0
 63 56  1  0  0  0  0
115 99  1  0  0  0  0
  1116  1  0  0  0  0
  6117  1  0  0  0  0
  9118  1  0  0  0  0
 17119  1  0  0  0  0
 18120  1  0  0  0  0
 19121  1  0  0  0  0
 20122  1  0  0  0  0
 21123  1  0  0  0  0
 22124  1  0  0  0  0
 22125  1  0  0  0  0
 23126  1  0  0  0  0
 28127  1  0  0  0  0
 29128  1  0  0  0  0
 32129  1  0  0  0  0
 32130  1  0  0  0  0
 32131  1  0  0  0  0
 33132  1  0  0  0  0
 34133  1  0  0  0  0
 36134  1  0  0  0  0
 37135  1  0  0  0  0
 40136  1  0  0  0  0
 40137  1  0  0  0  0
 40138  1  0  0  0  0
 41139  1  0  0  0  0
 42140  1  0  0  0  0
 49141  1  0  0  0  0
 50142  1  0  0  0  0
 53143  1  0  0  0  0
 53144  1  0  0  0  0
 53145  1  0  0  0  0
 54146  1  0  0  0  0
 55147  1  0  0  0  0
 57148  1  0  0  0  0
 58149  1  0  0  0  0
 61150  1  0  0  0  0
 61151  1  0  0  0  0
 61152  1  0  0  0  0
 62153  1  0  0  0  0
 63154  1  0  0  0  0
 70155  1  0  0  0  0
 72156  1  0  0  0  0
 72157  1  0  0  0  0
 73158  1  0  0  0  0
 73159  1  0  0  0  0
 73160  1  0  0  0  0
 78161  1  0  0  0  0
 78162  1  0  0  0  0
 79163  1  0  0  0  0
 79164  1  0  0  0  0
 79165  1  0  0  0  0
 86166  1  0  0  0  0
 86167  1  0  0  0  0
 87168  1  0  0  0  0
 87169  1  0  0  0  0
 87170  1  0  0  0  0
 88171  1  0  0  0  0
 88172  1  0  0  0  0
 89173  1  0  0  0  0
 89174  1  0  0  0  0
 89175  1  0  0  0  0
 90176  1  0  0  0  0
 93177  1  0  0  0  0
 98178  1  0  0  0  0
101179  1  0  0  0  0
109180  1  0  0  0  0
110181  1  0  0  0  0
111182  1  0  0  0  0
112183  1  0  0  0  0
113184  1  0  0  0  0
114185  1  0  0  0  0
114186  1  0  0  0  0
115187  1  0  0  0  0
M  END
