180

C         -4.71140       -0.14120       -5.01120
C         -5.93340       -0.39890       -4.44810
C         -6.26980       -0.25160       -3.02660
O         -5.50570       -0.04020       -2.10170
C         -7.73510       -0.38790       -2.93780
C         -8.52290       -0.25330       -1.79790
C         -9.86870       -0.41400       -2.02630
C        -10.39390       -0.68350       -3.29690
C         -9.62730       -0.81950       -4.43030
C         -8.25480       -0.66590       -4.21900
C         -7.14270       -0.74540       -5.16400
C         -7.23040       -1.15760       -6.47030
C         -8.43380       -1.49960       -7.11980
N         -9.37530       -1.78860       -7.71050
C         -6.13180       -1.35070       -7.33190
N         -5.28490       -1.56100       -8.08020
C        -11.81390       -0.71860       -2.79050
C        -12.47890       -2.10450       -2.60290
C        -11.36120       -3.08600       -2.35170
C        -10.86350       -2.83340       -1.14850
C        -11.63600       -1.67660       -0.56420
C        -13.02180       -1.94060       -1.17430
C        -11.22850       -0.42080       -1.37410
C         -3.48230        0.15440       -4.40380
C         -2.33910        0.44160       -5.14190
C         -1.17870        0.61430       -4.39280
C          0.10370        1.00470       -4.98830
C          0.89040        2.00500       -4.39030
O          0.37080        2.56970       -3.26460
C          0.99080        3.68360       -2.65750
C          0.74500        4.98420       -3.41550
C          2.09790        2.37930       -4.96840
C          2.51240        1.78040       -6.14210
C          1.72670        0.83870       -6.77520
C          0.51350        0.45270       -6.21520
O         -0.32120       -0.44930       -6.79800
C         -0.31390       -0.58390       -8.21310
C          0.51770       -1.75290       -8.72690
C         -1.43660        0.44790       -3.02840
S         -3.11200        0.14360       -2.70190
C         -0.54600        0.50010       -1.91490
C          0.74060       -0.00160       -1.75560
N          1.42940       -0.80780       -2.63970
C          2.83030       -0.88360       -2.47940
C          3.60560        0.27200       -2.53940
C          4.95680        0.21580       -2.27710
C          5.55650       -0.99590       -1.94480
S          7.27350       -0.95440       -1.54120
C          7.52690       -2.52320       -0.66150
C          4.79790       -2.15950       -1.94370
C          3.44490       -2.10180       -2.20930
C          0.80370       -1.71570       -3.49800
C         -0.46350       -2.23140       -3.23450
C         -1.09400       -3.03960       -4.15730
C         -0.44920       -3.38640       -5.33500
S         -1.27370       -4.32310       -6.59390
C         -2.89440       -3.49530       -6.59440
C          0.86330       -2.98240       -5.54180
C          1.47660       -2.13650       -4.64490
C          1.26690        0.36010       -0.48950
S          2.76630        0.04610        0.31940
C          2.22420        0.95290        1.71700
C          0.89420        1.36540        1.60350
N          0.13070        1.89230        2.62730
C          0.32580        1.45320        3.94620
C          0.19970        2.34210        5.01480
C          0.51700        1.93990        6.29260
C          0.97690        0.64660        6.53570
S          1.44910        0.27020        8.18940
C          2.13250       -1.40540        8.07870
C          1.04310       -0.25950        5.48460
C          0.71130        0.14090        4.20730
C         -0.87980        2.80870        2.31400
C         -0.66200        3.76930        1.32900
C         -1.65810        4.65660        0.97420
C         -2.89170        4.60150        1.60840
S         -4.23710        5.67840        1.23280
C         -3.75360        6.42190       -0.35230
C         -3.10280        3.66270        2.61750
C         -2.11220        2.77390        2.96670
C          0.38260        1.05670        0.32110
S         -1.13840        1.30000       -0.46380
C          3.14510        1.17610        2.78140
C          3.06170        2.23870        3.68000
C          3.90780        2.35460        4.77320
C          4.88640        1.41300        5.07840
C          5.10760        0.40430        4.10280
N          6.10340       -0.47460        4.05560
S          5.95590       -1.36060        2.72280
N          4.62940       -0.66590        2.12720
C          4.25050        0.30240        2.95500
C          5.67850        1.51830        6.26200
C          6.20340        0.46360        6.94470
C          5.73420       -0.93620        6.82290
O          4.74710       -1.34070        6.23710
C          6.60290       -1.73220        7.70640
C          6.58750       -3.11520        7.87120
C          7.51930       -3.58390        8.76540
C          8.39090       -2.73620        9.46220
C          8.40570       -1.36920        9.32190
C          7.47510       -0.87230        8.40420
C          7.21840        0.50200        7.98030
C          7.86900        1.61460        8.44720
C          7.64030        2.93700        8.01260
N          7.51670        4.04080        7.71960
C          8.87060        1.60020        9.44020
N          9.68720        1.66930       10.24470
C          9.06410       -3.88250       10.17460
C         10.45870       -4.32350        9.66530
C         10.52190       -3.94350        8.20680
C          9.69960       -4.74540        7.54350
C          9.06540       -5.68230        8.54180
C         10.22330       -5.83730        9.54050
C          8.09570       -4.82720        9.39520
H         -4.65660       -0.15920       -6.09360
H         -8.07760       -0.03920       -0.83880
H        -10.04680       -1.01940       -5.40220
H        -12.49320        0.01200       -3.22550
H        -13.18800       -2.37380       -3.38110
H        -11.02020       -3.80270       -3.07570
H        -10.02300       -3.29690       -0.66590
H        -11.57830       -1.55640        0.51450
H        -13.48400       -2.84960       -0.79240
H        -13.71050       -1.10380       -1.06520
H        -11.52660        0.50380       -0.88330
H         -2.37380        0.53990       -6.21150
H          0.51980        3.73660       -1.67110
H          2.06470        3.51010       -2.51380
H          1.18030        4.94360       -4.41080
H         -0.32440        5.15230       -3.51660
H          1.18550        5.81500       -2.87090
H          2.71850        3.13890       -4.52100
H          3.45730        2.06710       -6.57850
H          2.06320        0.40600       -7.70260
H         -1.36270       -0.75260       -8.48290
H          0.01410        0.35590       -8.67360
H          0.11880       -2.68850       -8.34620
H          0.47030       -1.77000       -9.81270
H          1.55710       -1.66500       -8.42150
H          3.13130        1.21170       -2.77370
H          5.55970        1.11030       -2.30600
H          8.50020       -2.44260       -0.18760
H          6.75360       -2.63940        0.09230
H          7.52890       -3.35410       -1.36120
H          5.24590       -3.11450       -1.72250
H          2.85110       -3.00370       -2.18790
H         -0.95990       -2.00760       -2.30340
H         -2.08860       -3.40330       -3.94970
H         -3.33330       -3.65960       -7.57290
H         -3.53820       -3.91780       -5.82800
H         -2.73890       -2.43420       -6.42760
H          1.38880       -3.31280       -6.42300
H          2.47540       -1.77470       -4.83830
H         -0.12340        3.35650        4.83230
H          0.43900        2.63210        7.11670
H          2.53130       -1.62330        9.06510
H          1.34430       -2.11270        7.83680
H          2.93080       -1.43040        7.34120
H          1.36180       -1.27580        5.64470
H          0.77090       -0.57140        3.39800
H          0.30290        3.82370        0.84510
H         -1.45560        5.38970        0.21020
H         -3.48900        5.63690       -1.05430
H         -4.62990        6.95630       -0.70560
H         -2.93350        7.11970       -0.20890
H         -4.06160        3.63180        3.11150
H         -2.28870        2.03600        3.73440
H          2.32310        3.00630        3.51650
H          3.76560        3.18290        5.45200
H          5.86030        2.52460        6.61670
H          5.89640       -3.73180        7.31760
H          9.07890       -0.73200        9.87040
H          9.00310       -3.87280       11.26090
H         11.28960       -3.99450       10.28340
H         11.09590       -3.11860        7.82720
H          9.44880       -4.72330        6.49910
H          8.62860       -6.59160        8.13690
H         11.07770       -6.36270        9.11640
H          9.92890       -6.30940       10.47680
H          7.40350       -5.43710        9.97280
