
  xtb     02162209033D
 energy: -370.993174950379 gnorm: 0.000671322385 xtb: 6.4.1 (unknown)
218238  0     0  0            999 V2000
    2.3302   -6.4116    2.2149 C   0  0  0  0  0  0  0  0  0  0  0  0
    2.0040   -7.3308    3.1873 C   0  0  0  0  0  0  0  0  0  0  0  0
    0.6589   -7.6970    3.6313 C   0  0  0  0  0  0  0  0  0  0  0  0
   -0.4020   -7.1653    3.3394 O   0  0  0  0  0  0  0  0  0  0  0  0
    0.8209   -8.8640    4.5192 C   0  0  0  0  0  0  0  0  0  0  0  0
   -0.1856   -9.5904    5.1500 C   0  0  0  0  0  0  0  0  0  0  0  0
    0.2738  -10.6107    5.9475 C   0  0  0  0  0  0  0  0  0  0  0  0
    1.6358  -10.8954    6.1009 C   0  0  0  0  0  0  0  0  0  0  0  0
    2.6389  -10.1991    5.4683 C   0  0  0  0  0  0  0  0  0  0  0  0
    2.1932   -9.1543    4.6553 C   0  0  0  0  0  0  0  0  0  0  0  0
    2.9512   -8.1988    3.8464 C   0  0  0  0  0  0  0  0  0  0  0  0
    4.3223   -8.1488    3.7585 C   0  0  0  0  0  0  0  0  0  0  0  0
    5.1956   -9.0685    4.3728 C   0  0  0  0  0  0  0  0  0  0  0  0
    5.9677   -9.7875    4.8274 N   0  0  0  0  0  0  0  0  0  0  0  0
    5.0683   -7.1712    3.0724 C   0  0  0  0  0  0  0  0  0  0  0  0
    5.7584   -6.4020    2.5674 N   0  0  0  0  0  0  0  0  0  0  0  0
    1.3725  -12.0280    7.0618 C   0  0  0  0  0  0  0  0  0  0  0  0
    1.6079  -11.7617    8.5692 C   0  0  0  0  0  0  0  0  0  0  0  0
    1.4188  -10.2799    8.7789 C   0  0  0  0  0  0  0  0  0  0  0  0
    0.1282  -10.0116    8.6325 C   0  0  0  0  0  0  0  0  0  0  0  0
   -0.5787  -11.3075    8.3202 C   0  0  0  0  0  0  0  0  0  0  0  0
    0.2794  -12.2869    9.1367 C   0  0  0  0  0  0  0  0  0  0  0  0
   -0.1468  -11.7116    6.8886 C   0  0  0  0  0  0  0  0  0  0  0  0
    1.5349   -5.5190    1.5009 C   0  0  0  0  0  0  0  0  0  0  0  0
    2.0307   -4.6919    0.4593 C   0  0  0  0  0  0  0  0  0  0  0  0
    3.2553   -4.8201   -0.1420 N   0  0  0  0  0  0  0  0  0  0  0  0
    3.8833   -6.0645   -0.3309 C   0  0  0  0  0  0  0  0  0  0  0  0
    3.1410   -7.2100   -0.6074 C   0  0  0  0  0  0  0  0  0  0  0  0
    3.7660   -8.4299   -0.7695 C   0  0  0  0  0  0  0  0  0  0  0  0
    5.1498   -8.5214   -0.6759 C   0  0  0  0  0  0  0  0  0  0  0  0
    6.0565  -10.0232   -0.8548 S   0  0  0  0  0  0  0  0  0  0  0  0
    4.7733  -11.3075   -0.8994 C   0  0  0  0  0  0  0  0  0  0  0  0
    5.8972   -7.3694   -0.4405 C   0  0  0  0  0  0  0  0  0  0  0  0
    5.2740   -6.1543   -0.2649 C   0  0  0  0  0  0  0  0  0  0  0  0
    3.8272   -3.6885   -0.7518 C   0  0  0  0  0  0  0  0  0  0  0  0
    3.8500   -2.4663   -0.0811 C   0  0  0  0  0  0  0  0  0  0  0  0
    4.3520   -1.3455   -0.7032 C   0  0  0  0  0  0  0  0  0  0  0  0
    4.8497   -1.4240   -2.0010 C   0  0  0  0  0  0  0  0  0  0  0  0
    5.3862    0.0878   -2.7386 S   0  0  0  0  0  0  0  0  0  0  0  0
    6.3446   -0.4517   -4.1859 C   0  0  0  0  0  0  0  0  0  0  0  0
    4.8682   -2.6482   -2.6565 C   0  0  0  0  0  0  0  0  0  0  0  0
    4.3613   -3.7715   -2.0337 C   0  0  0  0  0  0  0  0  0  0  0  0
    1.0884   -3.7134    0.1006 C   0  0  0  0  0  0  0  0  0  0  0  0
    1.0516   -2.4405   -1.0853 S   0  0  0  0  0  0  0  0  0  0  0  0
   -0.5466   -1.9652   -0.5347 C   0  0  0  0  0  0  0  0  0  0  0  0
   -1.0883   -2.8775    0.3708 C   0  0  0  0  0  0  0  0  0  0  0  0
   -2.3973   -2.9428    0.7969 N   0  0  0  0  0  0  0  0  0  0  0  0
   -2.5884   -3.4258    2.1063 C   0  0  0  0  0  0  0  0  0  0  0  0
   -3.4050   -4.5211    2.3645 C   0  0  0  0  0  0  0  0  0  0  0  0
   -3.4616   -5.0525    3.6362 C   0  0  0  0  0  0  0  0  0  0  0  0
   -2.7027   -4.4963    4.6580 C   0  0  0  0  0  0  0  0  0  0  0  0
   -2.6640   -5.2016    6.2781 S   0  0  0  0  0  0  0  0  0  0  0  0
   -2.7072   -6.9733    5.8688 C   0  0  0  0  0  0  0  0  0  0  0  0
   -1.9373   -3.3612    4.4170 C   0  0  0  0  0  0  0  0  0  0  0  0
   -1.8791   -2.8314    3.1471 C   0  0  0  0  0  0  0  0  0  0  0  0
   -3.4846   -2.6918   -0.0386 C   0  0  0  0  0  0  0  0  0  0  0  0
   -3.3766   -2.7773   -1.4282 C   0  0  0  0  0  0  0  0  0  0  0  0
   -4.4670   -2.5201   -2.2278 C   0  0  0  0  0  0  0  0  0  0  0  0
   -5.6961   -2.1779   -1.6678 C   0  0  0  0  0  0  0  0  0  0  0  0
   -7.0171   -1.8714   -2.7992 S   0  0  0  0  0  0  0  0  0  0  0  0
   -8.4147   -1.4240   -1.7306 C   0  0  0  0  0  0  0  0  0  0  0  0
   -5.8127   -2.1017   -0.2866 C   0  0  0  0  0  0  0  0  0  0  0  0
   -4.7178   -2.3522    0.5156 C   0  0  0  0  0  0  0  0  0  0  0  0
   -0.1204   -3.8317    0.7714 C   0  0  0  0  0  0  0  0  0  0  0  0
   -0.1490   -5.1570    1.8811 S   0  0  0  0  0  0  0  0  0  0  0  0
   -1.0227   -0.6839   -0.9469 C   0  0  0  0  0  0  0  0  0  0  0  0
   -1.9356    0.1049   -0.2549 C   0  0  0  0  0  0  0  0  0  0  0  0
   -2.5113   -0.3274    0.8825 F   0  0  0  0  0  0  0  0  0  0  0  0
   -2.1964    1.4269   -0.6124 C   0  0  0  0  0  0  0  0  0  0  0  0
   -3.1002    2.1050    0.1215 F   0  0  0  0  0  0  0  0  0  0  0  0
   -1.5299    2.0766   -1.6393 C   0  0  0  0  0  0  0  0  0  0  0  0
   -0.6482    1.2856   -2.4225 C   0  0  0  0  0  0  0  0  0  0  0  0
    0.0257    1.8495   -3.4352 N   0  0  0  0  0  0  0  0  0  0  0  0
    0.9187    1.1484   -4.0906 C   0  0  0  0  0  0  0  0  0  0  0  0
    1.6737    1.8821   -5.1555 C   0  0  0  0  0  0  0  0  0  0  0  0
    2.8918    2.5655   -4.5266 C   0  0  0  0  0  0  0  0  0  0  0  0
    1.1819   -0.2009   -3.7339 C   0  0  0  0  0  0  0  0  0  0  0  0
    0.5174   -0.7570   -2.7491 N   0  0  0  0  0  0  0  0  0  0  0  0
   -0.3949   -0.0587   -2.0671 C   0  0  0  0  0  0  0  0  0  0  0  0
    2.1652   -1.0763   -4.4450 C   0  0  0  0  0  0  0  0  0  0  0  0
    1.4964   -1.7715   -5.6332 C   0  0  0  0  0  0  0  0  0  0  0  0
   -1.5771    3.5044   -1.8149 C   0  0  0  0  0  0  0  0  0  0  0  0
   -1.4940    4.4697   -0.8164 C   0  0  0  0  0  0  0  0  0  0  0  0
   -1.2501    4.2263    0.5212 N   0  0  0  0  0  0  0  0  0  0  0  0
   -0.5324    3.1056    0.9562 C   0  0  0  0  0  0  0  0  0  0  0  0
   -0.9144    2.4600    2.1312 C   0  0  0  0  0  0  0  0  0  0  0  0
   -0.2863    1.3003    2.5368 C   0  0  0  0  0  0  0  0  0  0  0  0
    0.7407    0.7630    1.7729 C   0  0  0  0  0  0  0  0  0  0  0  0
    1.5250   -0.7726    2.1697 S   0  0  0  0  0  0  0  0  0  0  0  0
    1.4194   -0.8258    3.9849 C   0  0  0  0  0  0  0  0  0  0  0  0
    1.1593    1.4253    0.6221 C   0  0  0  0  0  0  0  0  0  0  0  0
    0.5412    2.5916    0.2252 C   0  0  0  0  0  0  0  0  0  0  0  0
   -1.6849    5.1707    1.4695 C   0  0  0  0  0  0  0  0  0  0  0  0
   -0.8291    5.5833    2.4893 C   0  0  0  0  0  0  0  0  0  0  0  0
   -1.2222    6.5738    3.3612 C   0  0  0  0  0  0  0  0  0  0  0  0
   -2.4718    7.1726    3.2274 C   0  0  0  0  0  0  0  0  0  0  0  0
   -2.8753    8.4881    4.3330 S   0  0  0  0  0  0  0  0  0  0  0  0
   -3.9898    9.5000    3.3142 C   0  0  0  0  0  0  0  0  0  0  0  0
   -3.3505    6.7194    2.2538 C   0  0  0  0  0  0  0  0  0  0  0  0
   -2.9588    5.7235    1.3813 C   0  0  0  0  0  0  0  0  0  0  0  0
   -1.5944    5.7698   -1.3737 C   0  0  0  0  0  0  0  0  0  0  0  0
   -1.7366    7.3522   -0.6979 S   0  0  0  0  0  0  0  0  0  0  0  0
   -1.8403    8.0524   -2.3149 C   0  0  0  0  0  0  0  0  0  0  0  0
   -1.8401    7.0524   -3.3214 C   0  0  0  0  0  0  0  0  0  0  0  0
   -2.0007    7.2783   -4.6628 N   0  0  0  0  0  0  0  0  0  0  0  0
   -1.3471    6.4246   -5.5702 C   0  0  0  0  0  0  0  0  0  0  0  0
   -0.0036    6.1133   -5.3830 C   0  0  0  0  0  0  0  0  0  0  0  0
    0.6573    5.2914   -6.2735 C   0  0  0  0  0  0  0  0  0  0  0  0
   -0.0209    4.7674   -7.3666 C   0  0  0  0  0  0  0  0  0  0  0  0
    0.7242    3.6923   -8.5529 S   0  0  0  0  0  0  0  0  0  0  0  0
    2.4982    4.0532   -8.3868 C   0  0  0  0  0  0  0  0  0  0  0  0
   -1.3681    5.0711   -7.5516 C   0  0  0  0  0  0  0  0  0  0  0  0
   -2.0260    5.8940   -6.6655 C   0  0  0  0  0  0  0  0  0  0  0  0
   -2.8916    8.2436   -5.1617 C   0  0  0  0  0  0  0  0  0  0  0  0
   -4.0890    8.5120   -4.5034 C   0  0  0  0  0  0  0  0  0  0  0  0
   -4.9605    9.4651   -4.9903 C   0  0  0  0  0  0  0  0  0  0  0  0
   -4.6554   10.1564   -6.1567 C   0  0  0  0  0  0  0  0  0  0  0  0
   -5.6821   11.3989   -6.8707 S   0  0  0  0  0  0  0  0  0  0  0  0
   -7.1373   11.4482   -5.7853 C   0  0  0  0  0  0  0  0  0  0  0  0
   -3.4688    9.8713   -6.8300 C   0  0  0  0  0  0  0  0  0  0  0  0
   -2.5933    8.9288   -6.3397 C   0  0  0  0  0  0  0  0  0  0  0  0
   -1.6796    5.7739   -2.7630 C   0  0  0  0  0  0  0  0  0  0  0  0
   -1.6079    4.1738   -3.4276 S   0  0  0  0  0  0  0  0  0  0  0  0
   -1.8008    9.4156   -2.5888 C   0  0  0  0  0  0  0  0  0  0  0  0
   -1.8514   10.5009   -1.7394 C   0  0  0  0  0  0  0  0  0  0  0  0
   -2.1561   10.4674   -0.3028 C   0  0  0  0  0  0  0  0  0  0  0  0
   -2.3588    9.4973    0.4085 O   0  0  0  0  0  0  0  0  0  0  0  0
   -2.2177   11.8727    0.0915 C   0  0  0  0  0  0  0  0  0  0  0  0
   -2.5164   12.7322    1.5397 S   0  0  0  0  0  0  0  0  0  0  0  0
   -2.3090   14.2246    0.6704 C   0  0  0  0  0  0  0  0  0  0  0  0
   -2.4819   15.8571    1.5736 Br  0  0  0  0  0  0  0  0  0  0  0  0
   -2.0253   14.0691   -0.6592 C   0  0  0  0  0  0  0  0  0  0  0  0
   -1.9750   12.7041   -0.9905 C   0  0  0  0  0  0  0  0  0  0  0  0
   -1.7277   11.8766   -2.1629 C   0  0  0  0  0  0  0  0  0  0  0  0
   -1.4171   12.3732   -3.4053 C   0  0  0  0  0  0  0  0  0  0  0  0
   -1.0914   11.6090   -4.5401 C   0  0  0  0  0  0  0  0  0  0  0  0
   -0.7945   11.0503   -5.4998 N   0  0  0  0  0  0  0  0  0  0  0  0
   -1.3673   13.7602   -3.6515 C   0  0  0  0  0  0  0  0  0  0  0  0
   -1.3255   14.8867   -3.8680 N   0  0  0  0  0  0  0  0  0  0  0  0
    3.3782   -6.3692    1.9484 H   0  0  0  0  0  0  0  0  0  0  0  0
   -1.2264   -9.3485    5.0035 H   0  0  0  0  0  0  0  0  0  0  0  0
    3.6823  -10.4367    5.5902 H   0  0  0  0  0  0  0  0  0  0  0  0
    1.7279  -13.0093    6.7538 H   0  0  0  0  0  0  0  0  0  0  0  0
    2.5256  -12.1887    8.9646 H   0  0  0  0  0  0  0  0  0  0  0  0
    2.2255   -9.5914    8.9500 H   0  0  0  0  0  0  0  0  0  0  0  0
   -0.3574   -9.0535    8.6592 H   0  0  0  0  0  0  0  0  0  0  0  0
   -1.6524  -11.3220    8.4893 H   0  0  0  0  0  0  0  0  0  0  0  0
    0.0891  -13.3327    8.8990 H   0  0  0  0  0  0  0  0  0  0  0  0
    0.1893  -12.1314   10.2108 H   0  0  0  0  0  0  0  0  0  0  0  0
   -0.7835  -12.4867    6.4660 H   0  0  0  0  0  0  0  0  0  0  0  0
    2.0659   -7.1462   -0.6880 H   0  0  0  0  0  0  0  0  0  0  0  0
    3.1626   -9.2984   -0.9790 H   0  0  0  0  0  0  0  0  0  0  0  0
    5.3080  -12.2522   -0.9055 H   0  0  0  0  0  0  0  0  0  0  0  0
    4.1536  -11.2402   -0.0100 H   0  0  0  0  0  0  0  0  0  0  0  0
    4.1794  -11.2166   -1.8044 H   0  0  0  0  0  0  0  0  0  0  0  0
    6.9709   -7.4440   -0.3732 H   0  0  0  0  0  0  0  0  0  0  0  0
    5.8572   -5.2718   -0.0562 H   0  0  0  0  0  0  0  0  0  0  0  0
    3.4647   -2.3986    0.9238 H   0  0  0  0  0  0  0  0  0  0  0  0
    4.3623   -0.3976   -0.1882 H   0  0  0  0  0  0  0  0  0  0  0  0
    5.6888   -0.8739   -4.9422 H   0  0  0  0  0  0  0  0  0  0  0  0
    7.0984   -1.1683   -3.8751 H   0  0  0  0  0  0  0  0  0  0  0  0
    6.8221    0.4434   -4.5723 H   0  0  0  0  0  0  0  0  0  0  0  0
    5.2568   -2.7389   -3.6580 H   0  0  0  0  0  0  0  0  0  0  0  0
    4.3603   -4.7176   -2.5544 H   0  0  0  0  0  0  0  0  0  0  0  0
   -3.9711   -4.9684    1.5610 H   0  0  0  0  0  0  0  0  0  0  0  0
   -4.0831   -5.9135    3.8230 H   0  0  0  0  0  0  0  0  0  0  0  0
   -2.2670   -7.4926    6.7146 H   0  0  0  0  0  0  0  0  0  0  0  0
   -3.7312   -7.3072    5.7251 H   0  0  0  0  0  0  0  0  0  0  0  0
   -2.1103   -7.1234    4.9735 H   0  0  0  0  0  0  0  0  0  0  0  0
   -1.3777   -2.9228    5.2293 H   0  0  0  0  0  0  0  0  0  0  0  0
   -1.2710   -1.9676    2.9280 H   0  0  0  0  0  0  0  0  0  0  0  0
   -2.4387   -3.0557   -1.8838 H   0  0  0  0  0  0  0  0  0  0  0  0
   -4.3802   -2.5872   -3.3016 H   0  0  0  0  0  0  0  0  0  0  0  0
   -8.1715   -0.5360   -1.1546 H   0  0  0  0  0  0  0  0  0  0  0  0
   -9.2401   -1.2130   -2.4034 H   0  0  0  0  0  0  0  0  0  0  0  0
   -8.6711   -2.2581   -1.0838 H   0  0  0  0  0  0  0  0  0  0  0  0
   -6.7471   -1.8383    0.1815 H   0  0  0  0  0  0  0  0  0  0  0  0
   -4.8127   -2.2681    1.5873 H   0  0  0  0  0  0  0  0  0  0  0  0
    1.9874    1.2032   -5.9477 H   0  0  0  0  0  0  0  0  0  0  0  0
    1.0083    2.6375   -5.5752 H   0  0  0  0  0  0  0  0  0  0  0  0
    3.4903    3.0636   -5.2865 H   0  0  0  0  0  0  0  0  0  0  0  0
    2.5646    3.3061   -3.8012 H   0  0  0  0  0  0  0  0  0  0  0  0
    3.5240    1.8432   -4.0141 H   0  0  0  0  0  0  0  0  0  0  0  0
    3.0176   -0.4889   -4.7852 H   0  0  0  0  0  0  0  0  0  0  0  0
    2.5096   -1.8305   -3.7359 H   0  0  0  0  0  0  0  0  0  0  0  0
    2.2084   -2.4200   -6.1378 H   0  0  0  0  0  0  0  0  0  0  0  0
    1.1181   -1.0456   -6.3500 H   0  0  0  0  0  0  0  0  0  0  0  0
    0.6633   -2.3764   -5.2850 H   0  0  0  0  0  0  0  0  0  0  0  0
   -1.7369    2.8542    2.7084 H   0  0  0  0  0  0  0  0  0  0  0  0
   -0.6267    0.8076    3.4337 H   0  0  0  0  0  0  0  0  0  0  0  0
    2.1067   -1.6054    4.2988 H   0  0  0  0  0  0  0  0  0  0  0  0
    1.7300    0.1329    4.3885 H   0  0  0  0  0  0  0  0  0  0  0  0
    0.4136   -1.0783    4.3064 H   0  0  0  0  0  0  0  0  0  0  0  0
    1.9715    1.0140    0.0414 H   0  0  0  0  0  0  0  0  0  0  0  0
    0.8839    3.1046   -0.6609 H   0  0  0  0  0  0  0  0  0  0  0  0
    0.1526    5.1406    2.5735 H   0  0  0  0  0  0  0  0  0  0  0  0
   -0.5553    6.9150    4.1380 H   0  0  0  0  0  0  0  0  0  0  0  0
   -3.9892   10.4907    3.7582 H   0  0  0  0  0  0  0  0  0  0  0  0
   -3.5910    9.5341    2.3045 H   0  0  0  0  0  0  0  0  0  0  0  0
   -4.9964    9.0915    3.3306 H   0  0  0  0  0  0  0  0  0  0  0  0
   -4.3391    7.1396    2.1643 H   0  0  0  0  0  0  0  0  0  0  0  0
   -3.6418    5.3655    0.6253 H   0  0  0  0  0  0  0  0  0  0  0  0
    0.5269    6.5276   -4.5386 H   0  0  0  0  0  0  0  0  0  0  0  0
    1.6997    5.0730   -6.1081 H   0  0  0  0  0  0  0  0  0  0  0  0
    2.9717    3.6088   -9.2566 H   0  0  0  0  0  0  0  0  0  0  0  0
    2.8949    3.6013   -7.4830 H   0  0  0  0  0  0  0  0  0  0  0  0
    2.6499    5.1280   -8.3902 H   0  0  0  0  0  0  0  0  0  0  0  0
   -1.8895    4.6531   -8.3986 H   0  0  0  0  0  0  0  0  0  0  0  0
   -3.0683    6.1313   -6.8145 H   0  0  0  0  0  0  0  0  0  0  0  0
   -4.3373    7.9720   -3.6016 H   0  0  0  0  0  0  0  0  0  0  0  0
   -5.8777    9.6505   -4.4550 H   0  0  0  0  0  0  0  0  0  0  0  0
   -6.8478   11.7536   -4.7839 H   0  0  0  0  0  0  0  0  0  0  0  0
   -7.7974   12.1927   -6.2192 H   0  0  0  0  0  0  0  0  0  0  0  0
   -7.6291   10.4799   -5.7782 H   0  0  0  0  0  0  0  0  0  0  0  0
   -3.2346   10.4108   -7.7338 H   0  0  0  0  0  0  0  0  0  0  0  0
   -1.6694    8.7281   -6.8577 H   0  0  0  0  0  0  0  0  0  0  0  0
   -1.7062    9.6528   -3.6411 H   0  0  0  0  0  0  0  0  0  0  0  0
   -1.8691   14.8905   -1.3338 H   0  0  0  0  0  0  0  0  0  0  0  0
  1  2  2  0  0  0  0
  2  3  1  0  0  0  0
  3  4  2  0  0  0  0
  3  5  1  0  0  0  0
  5  6  2  0  0  0  0
  6  7  1  0  0  0  0
  7  8  2  0  0  0  0
  8  9  1  0  0  0  0
  9 10  2  0  0  0  0
 10 11  1  0  0  0  0
 11 12  2  0  0  0  0
 12 13  1  0  0  0  0
 13 14  3  0  0  0  0
 12 15  1  0  0  0  0
 15 16  3  0  0  0  0
  8 17  1  0  0  0  0
 17 18  1  0  0  0  0
 18 19  1  0  0  0  0
 19 20  2  0  0  0  0
 20 21  1  0  0  0  0
 21 22  1  0  0  0  0
 21 23  1  0  0  0  0
  1 24  1  0  0  0  0
 24 25  2  0  0  0  0
 25 26  1  0  0  0  0
 26 27  1  0  0  0  0
 27 28  2  0  0  0  0
 28 29  1  0  0  0  0
 29 30  2  0  0  0  0
 30 31  1  0  0  0  0
 31 32  1  0  0  0  0
 30 33  1  0  0  0  0
 33 34  2  0  0  0  0
 26 35  1  0  0  0  0
 35 36  2  0  0  0  0
 36 37  1  0  0  0  0
 37 38  2  0  0  0  0
 38 39  1  0  0  0  0
 39 40  1  0  0  0  0
 38 41  1  0  0  0  0
 41 42  2  0  0  0  0
 25 43  1  0  0  0  0
 43 44  1  0  0  0  0
 44 45  1  0  0  0  0
 45 46  2  0  0  0  0
 46 47  1  0  0  0  0
 47 48  1  0  0  0  0
 48 49  2  0  0  0  0
 49 50  1  0  0  0  0
 50 51  2  0  0  0  0
 51 52  1  0  0  0  0
 52 53  1  0  0  0  0
 51 54  1  0  0  0  0
 54 55  2  0  0  0  0
 47 56  1  0  0  0  0
 56 57  2  0  0  0  0
 57 58  1  0  0  0  0
 58 59  2  0  0  0  0
 59 60  1  0  0  0  0
 60 61  1  0  0  0  0
 59 62  1  0  0  0  0
 62 63  2  0  0  0  0
 46 64  1  0  0  0  0
 64 65  1  0  0  0  0
 45 66  1  0  0  0  0
 66 67  2  0  0  0  0
 67 68  1  0  0  0  0
 67 69  1  0  0  0  0
 69 70  1  0  0  0  0
 69 71  2  0  0  0  0
 71 72  1  0  0  0  0
 72 73  2  0  0  0  0
 73 74  1  0  0  0  0
 74 75  1  0  0  0  0
 75 76  1  0  0  0  0
 74 77  2  0  0  0  0
 77 78  1  0  0  0  0
 78 79  2  0  0  0  0
 77 80  1  0  0  0  0
 80 81  1  0  0  0  0
 71 82  1  0  0  0  0
 82 83  2  0  0  0  0
 83 84  1  0  0  0  0
 84 85  1  0  0  0  0
 85 86  2  0  0  0  0
 86 87  1  0  0  0  0
 87 88  2  0  0  0  0
 88 89  1  0  0  0  0
 89 90  1  0  0  0  0
 88 91  1  0  0  0  0
 91 92  2  0  0  0  0
 84 93  1  0  0  0  0
 93 94  2  0  0  0  0
 94 95  1  0  0  0  0
 95 96  2  0  0  0  0
 96 97  1  0  0  0  0
 97 98  1  0  0  0  0
 96 99  1  0  0  0  0
 99100  2  0  0  0  0
 83101  1  0  0  0  0
101102  1  0  0  0  0
102103  1  0  0  0  0
103104  2  0  0  0  0
104105  1  0  0  0  0
105106  1  0  0  0  0
106107  2  0  0  0  0
107108  1  0  0  0  0
108109  2  0  0  0  0
109110  1  0  0  0  0
110111  1  0  0  0  0
109112  1  0  0  0  0
112113  2  0  0  0  0
105114  1  0  0  0  0
114115  2  0  0  0  0
115116  1  0  0  0  0
116117  2  0  0  0  0
117118  1  0  0  0  0
118119  1  0  0  0  0
117120  1  0  0  0  0
120121  2  0  0  0  0
104122  1  0  0  0  0
122123  1  0  0  0  0
103124  1  0  0  0  0
124125  2  0  0  0  0
125126  1  0  0  0  0
126127  2  0  0  0  0
126128  1  0  0  0  0
128129  1  0  0  0  0
129130  1  0  0  0  0
130131  1  0  0  0  0
130132  2  0  0  0  0
132133  1  0  0  0  0
133134  1  0  0  0  0
134135  2  0  0  0  0
135136  1  0  0  0  0
136137  3  0  0  0  0
135138  1  0  0  0  0
138139  3  0  0  0  0
 11  2  1  0  0  0  0
 23 17  1  0  0  0  0
 65 24  1  0  0  0  0
 79 66  1  0  0  0  0
123 82  1  0  0  0  0
134125  1  0  0  0  0
 10  5  1  0  0  0  0
 22 18  1  0  0  0  0
 34 27  1  0  0  0  0
 42 35  1  0  0  0  0
 64 43  2  0  0  0  0
 79 72  1  0  0  0  0
 92 85  1  0  0  0  0
100 93  1  0  0  0  0
122101  2  0  0  0  0
133128  2  0  0  0  0
 23  7  1  0  0  0  0
 55 48  1  0  0  0  0
 63 56  1  0  0  0  0
113106  1  0  0  0  0
121114  1  0  0  0  0
  1140  1  0  0  0  0
  6141  1  0  0  0  0
  9142  1  0  0  0  0
 17143  1  0  0  0  0
 18144  1  0  0  0  0
 19145  1  0  0  0  0
 20146  1  0  0  0  0
 21147  1  0  0  0  0
 22148  1  0  0  0  0
 22149  1  0  0  0  0
 23150  1  0  0  0  0
 28151  1  0  0  0  0
 29152  1  0  0  0  0
 32153  1  0  0  0  0
 32154  1  0  0  0  0
 32155  1  0  0  0  0
 33156  1  0  0  0  0
 34157  1  0  0  0  0
 36158  1  0  0  0  0
 37159  1  0  0  0  0
 40160  1  0  0  0  0
 40161  1  0  0  0  0
 40162  1  0  0  0  0
 41163  1  0  0  0  0
 42164  1  0  0  0  0
 49165  1  0  0  0  0
 50166  1  0  0  0  0
 53167  1  0  0  0  0
 53168  1  0  0  0  0
 53169  1  0  0  0  0
 54170  1  0  0  0  0
 55171  1  0  0  0  0
 57172  1  0  0  0  0
 58173  1  0  0  0  0
 61174  1  0  0  0  0
 61175  1  0  0  0  0
 61176  1  0  0  0  0
 62177  1  0  0  0  0
 63178  1  0  0  0  0
 75179  1  0  0  0  0
 75180  1  0  0  0  0
 76181  1  0  0  0  0
 76182  1  0  0  0  0
 76183  1  0  0  0  0
 80184  1  0  0  0  0
 80185  1  0  0  0  0
 81186  1  0  0  0  0
 81187  1  0  0  0  0
 81188  1  0  0  0  0
 86189  1  0  0  0  0
 87190  1  0  0  0  0
 90191  1  0  0  0  0
 90192  1  0  0  0  0
 90193  1  0  0  0  0
 91194  1  0  0  0  0
 92195  1  0  0  0  0
 94196  1  0  0  0  0
 95197  1  0  0  0  0
 98198  1  0  0  0  0
 98199  1  0  0  0  0
 98200  1  0  0  0  0
 99201  1  0  0  0  0
100202  1  0  0  0  0
107203  1  0  0  0  0
108204  1  0  0  0  0
111205  1  0  0  0  0
111206  1  0  0  0  0
111207  1  0  0  0  0
112208  1  0  0  0  0
113209  1  0  0  0  0
115210  1  0  0  0  0
116211  1  0  0  0  0
119212  1  0  0  0  0
119213  1  0  0  0  0
119214  1  0  0  0  0
120215  1  0  0  0  0
121216  1  0  0  0  0
124217  1  0  0  0  0
132218  1  0  0  0  0
M  END
