
  xtb     02132209483D
 energy: -268.723505431317 gnorm: 0.000543691694 xtb: 6.4.1 (unknown)
150166  0     0  0            999 V2000
   -2.9318   -2.7612   -5.5094 C   0  0  0  0  0  0  0  0  0  0  0  0
   -3.1084   -1.8804   -6.5438 C   0  0  0  0  0  0  0  0  0  0  0  0
   -3.1490   -0.4135   -6.3749 C   0  0  0  0  0  0  0  0  0  0  0  0
   -3.1320    0.2148   -5.3311 O   0  0  0  0  0  0  0  0  0  0  0  0
   -3.4046    0.1435   -7.7144 C   0  0  0  0  0  0  0  0  0  0  0  0
   -3.4679    1.4900   -8.0647 C   0  0  0  0  0  0  0  0  0  0  0  0
   -3.7344    1.7089   -9.3949 C   0  0  0  0  0  0  0  0  0  0  0  0
   -3.9342    0.6659  -10.3082 C   0  0  0  0  0  0  0  0  0  0  0  0
   -3.8781   -0.6669   -9.9743 C   0  0  0  0  0  0  0  0  0  0  0  0
   -3.6021   -0.9125   -8.6270 C   0  0  0  0  0  0  0  0  0  0  0  0
   -3.4434   -2.1807   -7.9151 C   0  0  0  0  0  0  0  0  0  0  0  0
   -3.5248   -3.4303   -8.4773 C   0  0  0  0  0  0  0  0  0  0  0  0
   -3.2865   -4.6402   -7.7933 C   0  0  0  0  0  0  0  0  0  0  0  0
   -3.0933   -5.6689   -7.3199 N   0  0  0  0  0  0  0  0  0  0  0  0
   -3.8523   -3.6812   -9.8245 C   0  0  0  0  0  0  0  0  0  0  0  0
   -4.1230   -3.9598  -10.9056 N   0  0  0  0  0  0  0  0  0  0  0  0
   -4.1675    1.6117  -11.4597 C   0  0  0  0  0  0  0  0  0  0  0  0
   -5.6271    1.8400  -11.9242 C   0  0  0  0  0  0  0  0  0  0  0  0
   -6.5046    1.5788  -10.7255 C   0  0  0  0  0  0  0  0  0  0  0  0
   -6.3134    2.5666   -9.8614 C   0  0  0  0  0  0  0  0  0  0  0  0
   -5.3030    3.5136  -10.4599 C   0  0  0  0  0  0  0  0  0  0  0  0
   -5.6541    3.3767  -11.9500 C   0  0  0  0  0  0  0  0  0  0  0  0
   -3.9423    2.7743  -10.4423 C   0  0  0  0  0  0  0  0  0  0  0  0
   -2.3246   -2.4222   -4.2792 C   0  0  0  0  0  0  0  0  0  0  0  0
   -1.3052   -1.4493   -4.1456 C   0  0  0  0  0  0  0  0  0  0  0  0
   -0.7467   -1.0631   -2.8668 C   0  0  0  0  0  0  0  0  0  0  0  0
    0.2614   -0.2011   -3.0104 N   0  0  0  0  0  0  0  0  0  0  0  0
    0.4836    0.0908   -4.5753 S   0  0  0  0  0  4  0  0  0  0  0  0
   -0.6736   -0.8558   -5.1549 N   0  0  0  0  0  0  0  0  0  0  0  0
   -1.1901   -1.6224   -1.6458 C   0  0  0  0  0  0  0  0  0  0  0  0
   -2.0778   -2.7159   -1.8073 C   0  0  0  0  0  0  0  0  0  0  0  0
   -2.5419   -3.4733   -0.8149 N   0  0  0  0  0  0  0  0  0  0  0  0
   -3.5462   -4.5803   -1.4201 S   0  0  0  0  0  0  0  0  0  0  0  0
   -3.4682   -4.1357   -2.9611 N   0  0  0  0  0  0  0  0  0  0  0  0
   -2.6257   -3.1108   -3.0836 C   0  0  0  0  0  0  0  0  0  0  0  0
   -0.7741   -1.2353   -0.3518 C   0  0  0  0  0  0  0  0  0  0  0  0
   -0.1386   -0.0690    0.1138 C   0  0  0  0  0  0  0  0  0  0  0  0
    0.0653    1.1174   -0.5451 N   0  0  0  0  0  0  0  0  0  0  0  0
   -0.7843    1.6481   -1.5092 C   0  0  0  0  0  0  0  0  0  0  0  0
   -0.2891    2.5730   -2.4364 C   0  0  0  0  0  0  0  0  0  0  0  0
   -1.1108    3.1024   -3.4009 C   0  0  0  0  0  0  0  0  0  0  0  0
   -2.4562    2.7350   -3.4715 C   0  0  0  0  0  0  0  0  0  0  0  0
   -3.4057    3.4827   -4.7404 S   0  0  0  0  0  0  0  0  0  0  0  0
   -4.9984    2.6217   -4.6707 C   0  0  0  0  0  0  0  0  0  0  0  0
   -2.9617    1.8395   -2.5360 C   0  0  0  0  0  0  0  0  0  0  0  0
   -2.1375    1.3109   -1.5647 C   0  0  0  0  0  0  0  0  0  0  0  0
    1.2083    1.8532   -0.1601 C   0  0  0  0  0  0  0  0  0  0  0  0
    2.4574    1.2329   -0.1576 C   0  0  0  0  0  0  0  0  0  0  0  0
    3.5696    1.9243    0.2632 C   0  0  0  0  0  0  0  0  0  0  0  0
    3.4588    3.2474    0.6931 C   0  0  0  0  0  0  0  0  0  0  0  0
    4.9438    4.0214    1.2230 S   0  0  0  0  0  0  0  0  0  0  0  0
    4.3915    5.6054    1.9159 C   0  0  0  0  0  0  0  0  0  0  0  0
    2.2171    3.8726    0.6698 C   0  0  0  0  0  0  0  0  0  0  0  0
    1.1014    3.1792    0.2446 C   0  0  0  0  0  0  0  0  0  0  0  0
    0.2429   -0.2246    1.4704 C   0  0  0  0  0  0  0  0  0  0  0  0
    1.0924    0.7784    2.5986 S   0  0  0  0  0  0  0  0  0  0  0  0
    0.8906   -0.4296    3.8605 C   0  0  0  0  0  0  0  0  0  0  0  0
    0.2448   -1.5791    3.3982 C   0  0  0  0  0  0  0  0  0  0  0  0
    0.0861   -2.7577    4.0959 N   0  0  0  0  0  0  0  0  0  0  0  0
    1.0472   -3.1878    5.0222 C   0  0  0  0  0  0  0  0  0  0  0  0
    2.3994   -2.9173    4.8291 C   0  0  0  0  0  0  0  0  0  0  0  0
    3.3203   -3.1931    5.8187 C   0  0  0  0  0  0  0  0  0  0  0  0
    2.9036   -3.7561    7.0183 C   0  0  0  0  0  0  0  0  0  0  0  0
    3.9752   -4.0164    8.3944 S   0  0  0  0  0  0  0  0  0  0  0  0
    5.3399   -2.8641    8.0690 C   0  0  0  0  0  0  0  0  0  0  0  0
    1.5700   -4.1305    7.1695 C   0  0  0  0  0  0  0  0  0  0  0  0
    0.6500   -3.8502    6.1841 C   0  0  0  0  0  0  0  0  0  0  0  0
   -0.9908   -3.5918    3.7528 C   0  0  0  0  0  0  0  0  0  0  0  0
   -2.2527   -3.0431    3.5412 C   0  0  0  0  0  0  0  0  0  0  0  0
   -3.3015   -3.8321    3.1123 C   0  0  0  0  0  0  0  0  0  0  0  0
   -3.1009   -5.1870    2.8896 C   0  0  0  0  0  0  0  0  0  0  0  0
   -4.3465   -6.2728    2.2749 S   0  0  0  0  0  0  0  0  0  0  0  0
   -5.6242   -5.1393    1.6581 C   0  0  0  0  0  0  0  0  0  0  0  0
   -1.8548   -5.7506    3.1615 C   0  0  0  0  0  0  0  0  0  0  0  0
   -0.8093   -4.9646    3.5893 C   0  0  0  0  0  0  0  0  0  0  0  0
   -0.1397   -1.4251    2.0447 C   0  0  0  0  0  0  0  0  0  0  0  0
   -1.0153   -2.4191    0.9309 S   0  0  0  0  0  0  0  0  0  0  0  0
    1.4588   -0.1742    5.1341 C   0  0  0  0  0  0  0  0  0  0  0  0
    1.0426   -0.6491    6.3725 C   0  0  0  0  0  0  0  0  0  0  0  0
    1.9019   -0.3284    7.4076 C   0  0  0  0  0  0  0  0  0  0  0  0
    1.6576   -0.7476    8.8215 C   0  0  0  0  0  0  0  0  0  0  0  0
    1.0712    0.4005    9.6474 C   0  0  0  0  0  0  0  0  0  0  0  0
    3.0004    0.4483    6.9815 C   0  0  0  0  0  0  0  0  0  0  0  0
    2.8949    0.7818    5.2646 S   0  0  0  0  0  0  0  0  0  0  0  0
    4.0514    0.8178    7.8198 C   0  0  0  0  0  0  0  0  0  0  0  0
    5.1768    1.5764    7.5737 C   0  0  0  0  0  0  0  0  0  0  0  0
    5.4589    2.3153    6.3440 C   0  0  0  0  0  0  0  0  0  0  0  0
    4.8023    2.3374    5.3195 O   0  0  0  0  0  0  0  0  0  0  0  0
    6.7084    3.0661    6.6014 C   0  0  0  0  0  0  0  0  0  0  0  0
    7.1593    2.7849    7.9041 C   0  0  0  0  0  0  0  0  0  0  0  0
    8.3090    3.3904    8.3837 C   0  0  0  0  0  0  0  0  0  0  0  0
    8.9926    4.2692    7.5550 C   0  0  0  0  0  0  0  0  0  0  0  0
    8.5483    4.5366    6.2700 C   0  0  0  0  0  0  0  0  0  0  0  0
    9.5231    5.7424    5.1884 Br  0  0  0  0  0  0  0  0  0  0  0  0
    7.3911    3.9325    5.7649 C   0  0  0  0  0  0  0  0  0  0  0  0
    6.8480    4.2443    4.1722 Cl  0  0  0  0  0  0  0  0  0  0  0  0
    6.2388    1.8270    8.5187 C   0  0  0  0  0  0  0  0  0  0  0  0
    6.4165    1.2475    9.7518 C   0  0  0  0  0  0  0  0  0  0  0  0
    7.4881    1.5410   10.6193 C   0  0  0  0  0  0  0  0  0  0  0  0
    8.3308    1.7340   11.3751 N   0  0  0  0  0  0  0  0  0  0  0  0
    5.5860    0.2589   10.3166 C   0  0  0  0  0  0  0  0  0  0  0  0
    4.9721   -0.5645   10.8327 N   0  0  0  0  0  0  0  0  0  0  0  0
   -3.2895   -3.7795   -5.5910 H   0  0  0  0  0  0  0  0  0  0  0  0
   -3.3014    2.2657   -7.3330 H   0  0  0  0  0  0  0  0  0  0  0  0
   -4.0350   -1.4572  -10.6893 H   0  0  0  0  0  0  0  0  0  0  0  0
   -3.4761    1.5243  -12.2956 H   0  0  0  0  0  0  0  0  0  0  0  0
   -5.8967    1.3184  -12.8385 H   0  0  0  0  0  0  0  0  0  0  0  0
   -7.1110    0.6999  -10.6077 H   0  0  0  0  0  0  0  0  0  0  0  0
   -6.7297    2.6777   -8.8770 H   0  0  0  0  0  0  0  0  0  0  0  0
   -5.2777    4.5165  -10.0413 H   0  0  0  0  0  0  0  0  0  0  0  0
   -4.9079    3.8123  -12.6131 H   0  0  0  0  0  0  0  0  0  0  0  0
   -6.6380    3.7770  -12.1901 H   0  0  0  0  0  0  0  0  0  0  0  0
   -3.1033    3.4460  -10.6138 H   0  0  0  0  0  0  0  0  0  0  0  0
    0.7562    2.8388   -2.4160 H   0  0  0  0  0  0  0  0  0  0  0  0
   -0.7202    3.8015   -4.1246 H   0  0  0  0  0  0  0  0  0  0  0  0
   -5.5732    2.9877   -5.5160 H   0  0  0  0  0  0  0  0  0  0  0  0
   -4.8146    1.5560   -4.7731 H   0  0  0  0  0  0  0  0  0  0  0  0
   -5.5131    2.8584   -3.7439 H   0  0  0  0  0  0  0  0  0  0  0  0
   -3.9976    1.5444   -2.5548 H   0  0  0  0  0  0  0  0  0  0  0  0
   -2.5523    0.6311   -0.8358 H   0  0  0  0  0  0  0  0  0  0  0  0
    2.5381    0.2091   -0.4907 H   0  0  0  0  0  0  0  0  0  0  0  0
    4.5393    1.4513    0.2698 H   0  0  0  0  0  0  0  0  0  0  0  0
    3.9610    6.2281    1.1371 H   0  0  0  0  0  0  0  0  0  0  0  0
    5.2846    6.0818    2.3091 H   0  0  0  0  0  0  0  0  0  0  0  0
    3.6845    5.4234    2.7201 H   0  0  0  0  0  0  0  0  0  0  0  0
    2.1031    4.8957    0.9884 H   0  0  0  0  0  0  0  0  0  0  0  0
    0.1358    3.6629    0.2365 H   0  0  0  0  0  0  0  0  0  0  0  0
    2.7301   -2.4682    3.9045 H   0  0  0  0  0  0  0  0  0  0  0  0
    4.3588   -2.9602    5.6465 H   0  0  0  0  0  0  0  0  0  0  0  0
    5.8503   -2.7381    9.0189 H   0  0  0  0  0  0  0  0  0  0  0  0
    4.9371   -1.9113    7.7366 H   0  0  0  0  0  0  0  0  0  0  0  0
    6.0230   -3.2796    7.3335 H   0  0  0  0  0  0  0  0  0  0  0  0
    1.2620   -4.6131    8.0839 H   0  0  0  0  0  0  0  0  0  0  0  0
   -0.3898   -4.1079    6.3214 H   0  0  0  0  0  0  0  0  0  0  0  0
   -2.4081   -1.9869    3.7063 H   0  0  0  0  0  0  0  0  0  0  0  0
   -4.2650   -3.3767    2.9535 H   0  0  0  0  0  0  0  0  0  0  0  0
   -5.1642   -4.3919    1.0184 H   0  0  0  0  0  0  0  0  0  0  0  0
   -6.1546   -4.6806    2.4877 H   0  0  0  0  0  0  0  0  0  0  0  0
   -6.3090   -5.7528    1.0812 H   0  0  0  0  0  0  0  0  0  0  0  0
   -1.7140   -6.8094    3.0090 H   0  0  0  0  0  0  0  0  0  0  0  0
    0.1609   -5.4005    3.7737 H   0  0  0  0  0  0  0  0  0  0  0  0
    0.1329   -1.2044    6.5113 H   0  0  0  0  0  0  0  0  0  0  0  0
    0.9562   -1.5832    8.8170 H   0  0  0  0  0  0  0  0  0  0  0  0
    2.5809   -1.0937    9.2897 H   0  0  0  0  0  0  0  0  0  0  0  0
    0.8951    0.0698   10.6672 H   0  0  0  0  0  0  0  0  0  0  0  0
    0.1276    0.7315    9.2195 H   0  0  0  0  0  0  0  0  0  0  0  0
    1.7527    1.2477    9.6716 H   0  0  0  0  0  0  0  0  0  0  0  0
    3.9586    0.4313    8.8263 H   0  0  0  0  0  0  0  0  0  0  0  0
    8.6804    3.2018    9.3768 H   0  0  0  0  0  0  0  0  0  0  0  0
    9.8877    4.7548    7.9118 H   0  0  0  0  0  0  0  0  0  0  0  0
  1  2  2  0  0  0  0
  2  3  1  0  0  0  0
  3  4  2  0  0  0  0
  3  5  1  0  0  0  0
  5  6  2  0  0  0  0
  6  7  1  0  0  0  0
  7  8  2  0  0  0  0
  8  9  1  0  0  0  0
  9 10  2  0  0  0  0
 10 11  1  0  0  0  0
 11 12  2  0  0  0  0
 12 13  1  0  0  0  0
 13 14  3  0  0  0  0
 12 15  1  0  0  0  0
 15 16  3  0  0  0  0
  8 17  1  0  0  0  0
 17 18  1  0  0  0  0
 18 19  1  0  0  0  0
 19 20  2  0  0  0  0
 20 21  1  0  0  0  0
 21 22  1  0  0  0  0
 21 23  1  0  0  0  0
  1 24  1  0  0  0  0
 24 25  2  0  0  0  0
 25 26  1  0  0  0  0
 26 27  1  0  0  0  0
 27 28  2  0  0  0  0
 28 29  2  0  0  0  0
 26 30  2  0  0  0  0
 30 31  1  0  0  0  0
 31 32  2  0  0  0  0
 32 33  1  0  0  0  0
 33 34  1  0  0  0  0
 34 35  2  0  0  0  0
 30 36  1  0  0  0  0
 36 37  2  0  0  0  0
 37 38  1  0  0  0  0
 38 39  1  0  0  0  0
 39 40  2  0  0  0  0
 40 41  1  0  0  0  0
 41 42  2  0  0  0  0
 42 43  1  0  0  0  0
 43 44  1  0  0  0  0
 42 45  1  0  0  0  0
 45 46  2  0  0  0  0
 38 47  1  0  0  0  0
 47 48  2  0  0  0  0
 48 49  1  0  0  0  0
 49 50  2  0  0  0  0
 50 51  1  0  0  0  0
 51 52  1  0  0  0  0
 50 53  1  0  0  0  0
 53 54  2  0  0  0  0
 37 55  1  0  0  0  0
 55 56  1  0  0  0  0
 56 57  1  0  0  0  0
 57 58  2  0  0  0  0
 58 59  1  0  0  0  0
 59 60  1  0  0  0  0
 60 61  2  0  0  0  0
 61 62  1  0  0  0  0
 62 63  2  0  0  0  0
 63 64  1  0  0  0  0
 64 65  1  0  0  0  0
 63 66  1  0  0  0  0
 66 67  2  0  0  0  0
 59 68  1  0  0  0  0
 68 69  2  0  0  0  0
 69 70  1  0  0  0  0
 70 71  2  0  0  0  0
 71 72  1  0  0  0  0
 72 73  1  0  0  0  0
 71 74  1  0  0  0  0
 74 75  2  0  0  0  0
 58 76  1  0  0  0  0
 76 77  1  0  0  0  0
 57 78  1  0  0  0  0
 78 79  2  0  0  0  0
 79 80  1  0  0  0  0
 80 81  1  0  0  0  0
 81 82  1  0  0  0  0
 80 83  2  0  0  0  0
 83 84  1  0  0  0  0
 83 85  1  0  0  0  0
 85 86  2  0  0  0  0
 86 87  1  0  0  0  0
 87 88  2  0  0  0  0
 87 89  1  0  0  0  0
 89 90  2  0  0  0  0
 90 91  1  0  0  0  0
 91 92  2  0  0  0  0
 92 93  1  0  0  0  0
 93 94  1  0  0  0  0
 93 95  2  0  0  0  0
 95 96  1  0  0  0  0
 90 97  1  0  0  0  0
 97 98  2  0  0  0  0
 98 99  1  0  0  0  0
 99100  3  0  0  0  0
 98101  1  0  0  0  0
101102  3  0  0  0  0
 11  2  1  0  0  0  0
 23 17  1  0  0  0  0
 35 24  1  0  0  0  0
 77 36  1  0  0  0  0
 84 78  1  0  0  0  0
 97 86  1  0  0  0  0
 10  5  1  0  0  0  0
 22 18  1  0  0  0  0
 29 25  1  0  0  0  0
 35 31  1  0  0  0  0
 46 39  1  0  0  0  0
 54 47  1  0  0  0  0
 76 55  2  0  0  0  0
 95 89  1  0  0  0  0
 23  7  1  0  0  0  0
 67 60  1  0  0  0  0
 75 68  1  0  0  0  0
  1103  1  0  0  0  0
  6104  1  0  0  0  0
  9105  1  0  0  0  0
 17106  1  0  0  0  0
 18107  1  0  0  0  0
 19108  1  0  0  0  0
 20109  1  0  0  0  0
 21110  1  0  0  0  0
 22111  1  0  0  0  0
 22112  1  0  0  0  0
 23113  1  0  0  0  0
 40114  1  0  0  0  0
 41115  1  0  0  0  0
 44116  1  0  0  0  0
 44117  1  0  0  0  0
 44118  1  0  0  0  0
 45119  1  0  0  0  0
 46120  1  0  0  0  0
 48121  1  0  0  0  0
 49122  1  0  0  0  0
 52123  1  0  0  0  0
 52124  1  0  0  0  0
 52125  1  0  0  0  0
 53126  1  0  0  0  0
 54127  1  0  0  0  0
 61128  1  0  0  0  0
 62129  1  0  0  0  0
 65130  1  0  0  0  0
 65131  1  0  0  0  0
 65132  1  0  0  0  0
 66133  1  0  0  0  0
 67134  1  0  0  0  0
 69135  1  0  0  0  0
 70136  1  0  0  0  0
 73137  1  0  0  0  0
 73138  1  0  0  0  0
 73139  1  0  0  0  0
 74140  1  0  0  0  0
 75141  1  0  0  0  0
 79142  1  0  0  0  0
 81143  1  0  0  0  0
 81144  1  0  0  0  0
 82145  1  0  0  0  0
 82146  1  0  0  0  0
 82147  1  0  0  0  0
 85148  1  0  0  0  0
 91149  1  0  0  0  0
 92150  1  0  0  0  0
M  END
