
  xtb     02062209163D
 energy: -448.455760242568 gnorm: 0.000297605473 xtb: 6.4.1 (unknown)
265289  0     0  0            999 V2000
   -6.4254    4.4337   -4.3585 C   0  0  0  0  0  0  0  0  0  0  0  0
   -7.6057    3.7846   -4.6119 C   0  0  0  0  0  0  0  0  0  0  0  0
   -7.7869    2.3363   -4.7742 C   0  0  0  0  0  0  0  0  0  0  0  0
   -6.9520    1.5173   -5.1187 O   0  0  0  0  0  0  0  0  0  0  0  0
   -9.2055    2.0713   -4.4794 C   0  0  0  0  0  0  0  0  0  0  0  0
   -9.8192    0.8291   -4.3370 C   0  0  0  0  0  0  0  0  0  0  0  0
  -11.1577    0.9013   -4.0327 C   0  0  0  0  0  0  0  0  0  0  0  0
  -11.8378    2.1165   -3.8806 C   0  0  0  0  0  0  0  0  0  0  0  0
  -11.2410    3.3493   -4.0060 C   0  0  0  0  0  0  0  0  0  0  0  0
   -9.8787    3.2999   -4.3134 C   0  0  0  0  0  0  0  0  0  0  0  0
   -8.9140    4.3850   -4.4734 C   0  0  0  0  0  0  0  0  0  0  0  0
   -9.2069    5.7254   -4.4620 C   0  0  0  0  0  0  0  0  0  0  0  0
   -8.2796    6.7621   -4.6825 C   0  0  0  0  0  0  0  0  0  0  0  0
   -7.6041    7.6751   -4.8619 N   0  0  0  0  0  0  0  0  0  0  0  0
  -10.4899    6.2684   -4.2542 C   0  0  0  0  0  0  0  0  0  0  0  0
  -11.4910    6.8036   -4.0766 N   0  0  0  0  0  0  0  0  0  0  0  0
  -13.1487    1.4363   -3.5722 C   0  0  0  0  0  0  0  0  0  0  0  0
  -14.1879    1.3859   -4.7120 C   0  0  0  0  0  0  0  0  0  0  0  0
  -15.1290    0.2793   -4.2936 C   0  0  0  0  0  0  0  0  0  0  0  0
  -14.4847   -0.8723   -4.4323 C   0  0  0  0  0  0  0  0  0  0  0  0
  -13.0975   -0.5636   -4.9472 C   0  0  0  0  0  0  0  0  0  0  0  0
  -13.4051    0.6630   -5.8159 C   0  0  0  0  0  0  0  0  0  0  0  0
  -12.3886    0.0809   -3.7377 C   0  0  0  0  0  0  0  0  0  0  0  0
   -5.1455    3.9023   -4.1495 C   0  0  0  0  0  0  0  0  0  0  0  0
   -4.1390    4.5556   -3.4041 C   0  0  0  0  0  0  0  0  0  0  0  0
   -4.3290    5.7103   -2.6834 N   0  0  0  0  0  0  0  0  0  0  0  0
   -3.2387    6.5460   -2.4059 C   0  0  0  0  0  0  0  0  0  0  0  0
   -3.1067    7.1364   -1.1522 C   0  0  0  0  0  0  0  0  0  0  0  0
   -2.0380    7.9642   -0.8729 C   0  0  0  0  0  0  0  0  0  0  0  0
   -1.0871    8.2230   -1.8514 C   0  0  0  0  0  0  0  0  0  0  0  0
    0.3359    9.2356   -1.6029 S   0  0  0  0  0  0  0  0  0  0  0  0
   -0.0167   10.0991   -0.0430 C   0  0  0  0  0  0  0  0  0  0  0  0
   -1.2252    7.6456   -3.1122 C   0  0  0  0  0  0  0  0  0  0  0  0
   -2.2838    6.8114   -3.3874 C   0  0  0  0  0  0  0  0  0  0  0  0
   -5.5782    6.0069   -2.1015 C   0  0  0  0  0  0  0  0  0  0  0  0
   -6.3392    4.9998   -1.5035 C   0  0  0  0  0  0  0  0  0  0  0  0
   -7.6057    5.2744   -1.0435 C   0  0  0  0  0  0  0  0  0  0  0  0
   -8.1330    6.5629   -1.1467 C   0  0  0  0  0  0  0  0  0  0  0  0
   -9.7947    6.7774   -0.5980 S   0  0  0  0  0  0  0  0  0  0  0  0
  -10.2343    8.4375   -1.1800 C   0  0  0  0  0  0  0  0  0  0  0  0
   -7.3434    7.5828   -1.6604 C   0  0  0  0  0  0  0  0  0  0  0  0
   -6.0772    7.3042   -2.1392 C   0  0  0  0  0  0  0  0  0  0  0  0
   -2.9653    3.7788   -3.3561 C   0  0  0  0  0  0  0  0  0  0  0  0
   -1.4390    3.9337   -2.5423 S   0  0  0  0  0  0  0  0  0  0  0  0
   -1.0105    2.2855   -3.0017 C   0  0  0  0  0  0  0  0  0  0  0  0
   -1.9727    1.6975   -3.7946 C   0  0  0  0  0  0  0  0  0  0  0  0
   -1.8983    0.4032   -4.2881 N   0  0  0  0  0  0  0  0  0  0  0  0
   -0.7640   -0.0700   -4.9474 C   0  0  0  0  0  0  0  0  0  0  0  0
   -0.5220   -1.4445   -5.0003 C   0  0  0  0  0  0  0  0  0  0  0  0
    0.5607   -1.9361   -5.6941 C   0  0  0  0  0  0  0  0  0  0  0  0
    1.4317   -1.0704   -6.3522 C   0  0  0  0  0  0  0  0  0  0  0  0
    2.7820   -1.8098   -7.2188 S   0  0  0  0  0  0  0  0  0  0  0  0
    3.6639   -0.4091   -7.9590 C   0  0  0  0  0  0  0  0  0  0  0  0
    1.2057    0.2963   -6.2887 C   0  0  0  0  0  0  0  0  0  0  0  0
    0.1209    0.7914   -5.5911 C   0  0  0  0  0  0  0  0  0  0  0  0
   -3.1221   -0.2920   -4.3798 C   0  0  0  0  0  0  0  0  0  0  0  0
   -3.5556   -0.8297   -5.5868 C   0  0  0  0  0  0  0  0  0  0  0  0
   -4.8119   -1.3909   -5.6852 C   0  0  0  0  0  0  0  0  0  0  0  0
   -5.6526   -1.4138   -4.5808 C   0  0  0  0  0  0  0  0  0  0  0  0
   -7.2976   -2.0510   -4.6673 S   0  0  0  0  0  0  0  0  0  0  0  0
   -7.7658   -1.6234   -6.3729 C   0  0  0  0  0  0  0  0  0  0  0  0
   -5.2010   -0.9311   -3.3580 C   0  0  0  0  0  0  0  0  0  0  0  0
   -3.9439   -0.3748   -3.2572 C   0  0  0  0  0  0  0  0  0  0  0  0
   -3.0805    2.5575   -4.0058 C   0  0  0  0  0  0  0  0  0  0  0  0
   -4.6350    2.3126   -4.7073 S   0  0  0  0  0  0  0  0  0  0  0  0
    0.0049    1.5504   -2.2853 C   0  0  0  0  0  0  0  0  0  0  0  0
    1.3794    1.5166   -2.3374 C   0  0  0  0  0  0  0  0  0  0  0  0
    2.1844    2.0939   -3.3096 N   0  0  0  0  0  0  0  0  0  0  0  0
    2.0062    3.4191   -3.7214 C   0  0  0  0  0  0  0  0  0  0  0  0
    1.6925    4.4191   -2.8008 C   0  0  0  0  0  0  0  0  0  0  0  0
    1.6359    5.7379   -3.1973 C   0  0  0  0  0  0  0  0  0  0  0  0
    1.8857    6.0888   -4.5221 C   0  0  0  0  0  0  0  0  0  0  0  0
    1.8720    7.8107   -4.9206 S   0  0  0  0  0  0  0  0  0  0  0  0
    2.6495    7.8800   -6.5608 C   0  0  0  0  0  0  0  0  0  0  0  0
    2.1384    5.0919   -5.4547 C   0  0  0  0  0  0  0  0  0  0  0  0
    2.1982    3.7730   -5.0547 C   0  0  0  0  0  0  0  0  0  0  0  0
    3.2284    1.3158   -3.8315 C   0  0  0  0  0  0  0  0  0  0  0  0
    4.4020    1.9058   -4.3014 C   0  0  0  0  0  0  0  0  0  0  0  0
    5.4142    1.1295   -4.8176 C   0  0  0  0  0  0  0  0  0  0  0  0
    5.3029   -0.2598   -4.8443 C   0  0  0  0  0  0  0  0  0  0  0  0
    6.6746   -1.1519   -5.5083 S   0  0  0  0  0  0  0  0  0  0  0  0
    6.1159   -2.8774   -5.5006 C   0  0  0  0  0  0  0  0  0  0  0  0
    4.1494   -0.8550   -4.3567 C   0  0  0  0  0  0  0  0  0  0  0  0
    3.1177   -0.0724   -3.8777 C   0  0  0  0  0  0  0  0  0  0  0  0
    1.9065    0.6924   -1.3050 C   0  0  0  0  0  0  0  0  0  0  0  0
    3.5107    0.3094   -0.7851 S   0  0  0  0  0  0  0  0  0  0  0  0
    2.8769   -0.6495    0.5502 C   0  0  0  0  0  0  0  0  0  0  0  0
    1.4852   -0.7418    0.5008 C   0  0  0  0  0  0  0  0  0  0  0  0
    0.6956   -1.5775    1.2806 N   0  0  0  0  0  0  0  0  0  0  0  0
   -0.5101   -1.0643    1.7816 C   0  0  0  0  0  0  0  0  0  0  0  0
   -1.6695   -1.8392    1.7875 C   0  0  0  0  0  0  0  0  0  0  0  0
   -2.8445   -1.3196    2.2795 C   0  0  0  0  0  0  0  0  0  0  0  0
   -2.8948   -0.0132    2.7645 C   0  0  0  0  0  0  0  0  0  0  0  0
   -4.4616    0.5417    3.3534 S   0  0  0  0  0  0  0  0  0  0  0  0
   -4.0925    2.1307    4.1479 C   0  0  0  0  0  0  0  0  0  0  0  0
   -1.7467    0.7663    2.7448 C   0  0  0  0  0  0  0  0  0  0  0  0
   -0.5638    0.2393    2.2649 C   0  0  0  0  0  0  0  0  0  0  0  0
    1.0931   -2.8859    1.5605 C   0  0  0  0  0  0  0  0  0  0  0  0
    0.7156   -3.4947    2.7584 C   0  0  0  0  0  0  0  0  0  0  0  0
    1.1790   -4.7507    3.0893 C   0  0  0  0  0  0  0  0  0  0  0  0
    2.0211   -5.4337    2.2222 C   0  0  0  0  0  0  0  0  0  0  0  0
    2.7198   -7.0140    2.6050 S   0  0  0  0  0  0  0  0  0  0  0  0
    1.4464   -7.7651    3.6630 C   0  0  0  0  0  0  0  0  0  0  0  0
    2.3721   -4.8486    1.0094 C   0  0  0  0  0  0  0  0  0  0  0  0
    1.9177   -3.5897    0.6813 C   0  0  0  0  0  0  0  0  0  0  0  0
    0.9516    0.0741   -0.5211 C   0  0  0  0  0  0  0  0  0  0  0  0
   -0.6433    0.5188   -0.9992 S   0  0  0  0  0  0  0  0  0  0  0  0
    3.6609   -1.1987    1.6062 C   0  0  0  0  0  0  0  0  0  0  0  0
    4.9352   -1.7609    1.6667 C   0  0  0  0  0  0  0  0  0  0  0  0
    5.8721   -1.7716    0.6465 N   0  0  0  0  0  0  0  0  0  0  0  0
    6.2015   -0.5942   -0.0301 C   0  0  0  0  0  0  0  0  0  0  0  0
    6.0545    0.6484    0.5854 C   0  0  0  0  0  0  0  0  0  0  0  0
    6.3248    1.8131   -0.1069 C   0  0  0  0  0  0  0  0  0  0  0  0
    6.7559    1.7524   -1.4230 C   0  0  0  0  0  0  0  0  0  0  0  0
    7.0420    3.2038   -2.3920 S   0  0  0  0  0  0  0  0  0  0  0  0
    5.7706    4.3334   -1.7421 C   0  0  0  0  0  0  0  0  0  0  0  0
    6.9814    0.5136   -2.0170 C   0  0  0  0  0  0  0  0  0  0  0  0
    6.6969   -0.6465   -1.3350 C   0  0  0  0  0  0  0  0  0  0  0  0
    6.6815   -2.9158    0.5195 C   0  0  0  0  0  0  0  0  0  0  0  0
    8.0552   -2.8138    0.3076 C   0  0  0  0  0  0  0  0  0  0  0  0
    8.8309   -3.9507    0.2535 C   0  0  0  0  0  0  0  0  0  0  0  0
    8.2569   -5.2058    0.4289 C   0  0  0  0  0  0  0  0  0  0  0  0
    9.3165   -6.6169    0.4097 S   0  0  0  0  0  0  0  0  0  0  0  0
    8.5157   -7.6700    1.6550 C   0  0  0  0  0  0  0  0  0  0  0  0
    6.8843   -5.3138    0.6080 C   0  0  0  0  0  0  0  0  0  0  0  0
    6.1041   -4.1767    0.6470 C   0  0  0  0  0  0  0  0  0  0  0  0
    5.1593   -2.3868    2.9217 C   0  0  0  0  0  0  0  0  0  0  0  0
    6.3928   -3.4349    3.5294 S   0  0  0  0  0  0  0  0  0  0  0  0
    5.5018   -3.6346    5.0429 C   0  0  0  0  0  0  0  0  0  0  0  0
    4.2361   -2.9835    4.9983 C   0  0  0  0  0  0  0  0  0  0  0  0
    3.2342   -3.1304    5.9190 N   0  0  0  0  0  0  0  0  0  0  0  0
    2.2473   -2.1334    6.0149 C   0  0  0  0  0  0  0  0  0  0  0  0
    0.8947   -2.4727    6.0509 C   0  0  0  0  0  0  0  0  0  0  0  0
   -0.0653   -1.4874    6.0827 C   0  0  0  0  0  0  0  0  0  0  0  0
    0.3032   -0.1428    6.0950 C   0  0  0  0  0  0  0  0  0  0  0  0
   -1.0098    1.0289    6.1183 S   0  0  0  0  0  0  0  0  0  0  0  0
   -0.1725    2.6261    5.8958 C   0  0  0  0  0  0  0  0  0  0  0  0
    1.6486    0.1984    6.1077 C   0  0  0  0  0  0  0  0  0  0  0  0
    2.6114   -0.7910    6.0669 C   0  0  0  0  0  0  0  0  0  0  0  0
    3.0540   -4.3292    6.6355 C   0  0  0  0  0  0  0  0  0  0  0  0
    2.6031   -4.2878    7.9508 C   0  0  0  0  0  0  0  0  0  0  0  0
    2.4948   -5.4500    8.6908 C   0  0  0  0  0  0  0  0  0  0  0  0
    2.8584   -6.6667    8.1310 C   0  0  0  0  0  0  0  0  0  0  0  0
    2.8624   -8.1894    9.0194 S   0  0  0  0  0  0  0  0  0  0  0  0
    2.8970   -7.6564   10.7537 C   0  0  0  0  0  0  0  0  0  0  0  0
    3.2452   -6.7169    6.7908 C   0  0  0  0  0  0  0  0  0  0  0  0
    3.3293   -5.5644    6.0446 C   0  0  0  0  0  0  0  0  0  0  0  0
    4.1060   -2.2441    3.8182 C   0  0  0  0  0  0  0  0  0  0  0  0
    2.8500   -1.2528    3.1736 S   0  0  0  0  0  0  0  0  0  0  0  0
    5.9837   -4.2652    6.1799 C   0  0  0  0  0  0  0  0  0  0  0  0
    7.1032   -5.0548    6.3745 C   0  0  0  0  0  0  0  0  0  0  0  0
    8.0182   -5.5152    5.3344 C   0  0  0  0  0  0  0  0  0  0  0  0
    8.0103   -5.2383    4.1495 O   0  0  0  0  0  0  0  0  0  0  0  0
    8.9562   -6.4454    6.0136 C   0  0  0  0  0  0  0  0  0  0  0  0
    8.6049   -6.5487    7.3715 C   0  0  0  0  0  0  0  0  0  0  0  0
    9.3345   -7.3519    8.2296 C   0  0  0  0  0  0  0  0  0  0  0  0
   10.4155   -8.0508    7.7097 C   0  0  0  0  0  0  0  0  0  0  0  0
   11.1340   -8.8330    8.5207 F   0  0  0  0  0  0  0  0  0  0  0  0
   10.7766   -7.9603    6.3689 C   0  0  0  0  0  0  0  0  0  0  0  0
   11.8250   -8.6476    5.9042 F   0  0  0  0  0  0  0  0  0  0  0  0
   10.0362   -7.1445    5.5091 C   0  0  0  0  0  0  0  0  0  0  0  0
   10.3903   -7.0603    4.2293 F   0  0  0  0  0  0  0  0  0  0  0  0
    7.4499   -5.6835    7.6188 C   0  0  0  0  0  0  0  0  0  0  0  0
    6.8285   -5.5378    8.8389 C   0  0  0  0  0  0  0  0  0  0  0  0
    7.1340   -6.2960    9.9857 C   0  0  0  0  0  0  0  0  0  0  0  0
    7.2962   -6.8901   10.9556 N   0  0  0  0  0  0  0  0  0  0  0  0
    5.8018   -4.6246    9.1374 C   0  0  0  0  0  0  0  0  0  0  0  0
    4.9810   -3.9007    9.4931 N   0  0  0  0  0  0  0  0  0  0  0  0
   -6.4982    5.4986   -4.1799 H   0  0  0  0  0  0  0  0  0  0  0  0
   -9.2574   -0.0861   -4.4347 H   0  0  0  0  0  0  0  0  0  0  0  0
  -11.7700    4.2768   -3.8626 H   0  0  0  0  0  0  0  0  0  0  0  0
  -13.5889    1.6731   -2.6055 H   0  0  0  0  0  0  0  0  0  0  0  0
  -14.6375    2.3433   -4.9609 H   0  0  0  0  0  0  0  0  0  0  0  0
  -16.1140    0.4467   -3.8991 H   0  0  0  0  0  0  0  0  0  0  0  0
  -14.8238   -1.8591   -4.1766 H   0  0  0  0  0  0  0  0  0  0  0  0
  -12.5542   -1.3835   -5.4096 H   0  0  0  0  0  0  0  0  0  0  0  0
  -12.5207    1.1990   -6.1556 H   0  0  0  0  0  0  0  0  0  0  0  0
  -14.0324    0.4158   -6.6708 H   0  0  0  0  0  0  0  0  0  0  0  0
  -12.3186   -0.5855   -2.8801 H   0  0  0  0  0  0  0  0  0  0  0  0
   -3.8436    6.9353   -0.3885 H   0  0  0  0  0  0  0  0  0  0  0  0
   -1.9555    8.3936    0.1126 H   0  0  0  0  0  0  0  0  0  0  0  0
   -0.9850   10.5861   -0.1055 H   0  0  0  0  0  0  0  0  0  0  0  0
    0.0241    9.4059    0.7922 H   0  0  0  0  0  0  0  0  0  0  0  0
    0.7660   10.8440    0.0612 H   0  0  0  0  0  0  0  0  0  0  0  0
   -0.4952    7.8708   -3.8724 H   0  0  0  0  0  0  0  0  0  0  0  0
   -2.3908    6.3775   -4.3700 H   0  0  0  0  0  0  0  0  0  0  0  0
   -5.9406    3.9989   -1.4289 H   0  0  0  0  0  0  0  0  0  0  0  0
   -8.2085    4.4951   -0.6029 H   0  0  0  0  0  0  0  0  0  0  0  0
  -11.2979    8.5386   -0.9887 H   0  0  0  0  0  0  0  0  0  0  0  0
   -9.6841    9.1898   -0.6220 H   0  0  0  0  0  0  0  0  0  0  0  0
  -10.0468    8.5138   -2.2468 H   0  0  0  0  0  0  0  0  0  0  0  0
   -7.7105    8.5937   -1.7235 H   0  0  0  0  0  0  0  0  0  0  0  0
   -5.4840    8.0924   -2.5766 H   0  0  0  0  0  0  0  0  0  0  0  0
   -1.1984   -2.1204   -4.4986 H   0  0  0  0  0  0  0  0  0  0  0  0
    0.7439   -2.9991   -5.7371 H   0  0  0  0  0  0  0  0  0  0  0  0
    4.0282    0.2542   -7.1790 H   0  0  0  0  0  0  0  0  0  0  0  0
    4.5045   -0.8421   -8.4927 H   0  0  0  0  0  0  0  0  0  0  0  0
    3.0131    0.1105   -8.6563 H   0  0  0  0  0  0  0  0  0  0  0  0
    1.8607    0.9868   -6.7948 H   0  0  0  0  0  0  0  0  0  0  0  0
   -0.0514    1.8574   -5.5622 H   0  0  0  0  0  0  0  0  0  0  0  0
   -2.9129   -0.7846   -6.4537 H   0  0  0  0  0  0  0  0  0  0  0  0
   -5.1358   -1.7887   -6.6336 H   0  0  0  0  0  0  0  0  0  0  0  0
   -7.3082   -2.3100   -7.0792 H   0  0  0  0  0  0  0  0  0  0  0  0
   -8.8464   -1.7163   -6.4269 H   0  0  0  0  0  0  0  0  0  0  0  0
   -7.4620   -0.5977   -6.5605 H   0  0  0  0  0  0  0  0  0  0  0  0
   -5.8498   -0.9774   -2.4970 H   0  0  0  0  0  0  0  0  0  0  0  0
   -3.5965    0.0248   -2.3150 H   0  0  0  0  0  0  0  0  0  0  0  0
    1.5209    4.1581   -1.7667 H   0  0  0  0  0  0  0  0  0  0  0  0
    1.4219    6.5141   -2.4795 H   0  0  0  0  0  0  0  0  0  0  0  0
    2.8150    8.9346   -6.7579 H   0  0  0  0  0  0  0  0  0  0  0  0
    1.9848    7.4675   -7.3144 H   0  0  0  0  0  0  0  0  0  0  0  0
    3.5988    7.3532   -6.5393 H   0  0  0  0  0  0  0  0  0  0  0  0
    2.2952    5.3285   -6.4947 H   0  0  0  0  0  0  0  0  0  0  0  0
    2.4156    3.0057   -5.7813 H   0  0  0  0  0  0  0  0  0  0  0  0
    4.5223    2.9771   -4.2630 H   0  0  0  0  0  0  0  0  0  0  0  0
    6.3139    1.5956   -5.1894 H   0  0  0  0  0  0  0  0  0  0  0  0
    6.9135   -3.4441   -5.9709 H   0  0  0  0  0  0  0  0  0  0  0  0
    5.9764   -3.2191   -4.4789 H   0  0  0  0  0  0  0  0  0  0  0  0
    5.2013   -2.9714   -6.0795 H   0  0  0  0  0  0  0  0  0  0  0  0
    4.0264   -1.9251   -4.3607 H   0  0  0  0  0  0  0  0  0  0  0  0
    2.2110   -0.5533   -3.5425 H   0  0  0  0  0  0  0  0  0  0  0  0
   -1.6400   -2.8466    1.4004 H   0  0  0  0  0  0  0  0  0  0  0  0
   -3.7442   -1.9155    2.2857 H   0  0  0  0  0  0  0  0  0  0  0  0
   -5.0211    2.4472    4.6126 H   0  0  0  0  0  0  0  0  0  0  0  0
   -3.3286    1.9841    4.9059 H   0  0  0  0  0  0  0  0  0  0  0  0
   -3.7867    2.8609    3.4040 H   0  0  0  0  0  0  0  0  0  0  0  0
   -1.7598    1.7823    3.1037 H   0  0  0  0  0  0  0  0  0  0  0  0
    0.3345    0.8403    2.2647 H   0  0  0  0  0  0  0  0  0  0  0  0
    0.0842   -2.9576    3.4496 H   0  0  0  0  0  0  0  0  0  0  0  0
    0.8943   -5.1856    4.0346 H   0  0  0  0  0  0  0  0  0  0  0  0
    1.4843   -7.3475    4.6653 H   0  0  0  0  0  0  0  0  0  0  0  0
    1.6780   -8.8249    3.6997 H   0  0  0  0  0  0  0  0  0  0  0  0
    0.4723   -7.6120    3.2091 H   0  0  0  0  0  0  0  0  0  0  0  0
    2.9986   -5.3978    0.3231 H   0  0  0  0  0  0  0  0  0  0  0  0
    2.1983   -3.1479   -0.2632 H   0  0  0  0  0  0  0  0  0  0  0  0
    5.7223    0.7019    1.6119 H   0  0  0  0  0  0  0  0  0  0  0  0
    6.1954    2.7624    0.3886 H   0  0  0  0  0  0  0  0  0  0  0  0
    4.8464    3.7814   -1.5997 H   0  0  0  0  0  0  0  0  0  0  0  0
    6.1019    4.7883   -0.8132 H   0  0  0  0  0  0  0  0  0  0  0  0
    5.6330    5.1041   -2.4941 H   0  0  0  0  0  0  0  0  0  0  0  0
    7.3648    0.4720   -3.0233 H   0  0  0  0  0  0  0  0  0  0  0  0
    6.8401   -1.6031   -1.8132 H   0  0  0  0  0  0  0  0  0  0  0  0
    8.5140   -1.8410    0.2138 H   0  0  0  0  0  0  0  0  0  0  0  0
    9.8970   -3.8759    0.1064 H   0  0  0  0  0  0  0  0  0  0  0  0
    9.2753   -8.3683    1.9906 H   0  0  0  0  0  0  0  0  0  0  0  0
    7.6798   -8.2115    1.2209 H   0  0  0  0  0  0  0  0  0  0  0  0
    8.1954   -7.0365    2.4762 H   0  0  0  0  0  0  0  0  0  0  0  0
    6.4157   -6.2784    0.7217 H   0  0  0  0  0  0  0  0  0  0  0  0
    5.0369   -4.2598    0.7940 H   0  0  0  0  0  0  0  0  0  0  0  0
    0.6047   -3.5122    6.0385 H   0  0  0  0  0  0  0  0  0  0  0  0
   -1.1137   -1.7441    6.0869 H   0  0  0  0  0  0  0  0  0  0  0  0
   -0.9621    3.3668    5.8108 H   0  0  0  0  0  0  0  0  0  0  0  0
    0.4430    2.8503    6.7619 H   0  0  0  0  0  0  0  0  0  0  0  0
    0.4178    2.6047    4.9845 H   0  0  0  0  0  0  0  0  0  0  0  0
    1.9643    1.2278    6.1527 H   0  0  0  0  0  0  0  0  0  0  0  0
    3.6573   -0.5229    6.0815 H   0  0  0  0  0  0  0  0  0  0  0  0
    2.3607   -3.3398    8.4045 H   0  0  0  0  0  0  0  0  0  0  0  0
    2.1561   -5.3862    9.7112 H   0  0  0  0  0  0  0  0  0  0  0  0
    1.9216   -7.2861   11.0559 H   0  0  0  0  0  0  0  0  0  0  0  0
    3.1477   -8.5425   11.3283 H   0  0  0  0  0  0  0  0  0  0  0  0
    3.6658   -6.9005   10.8843 H   0  0  0  0  0  0  0  0  0  0  0  0
    3.4889   -7.6717    6.3502 H   0  0  0  0  0  0  0  0  0  0  0  0
    3.6379   -5.6112    5.0110 H   0  0  0  0  0  0  0  0  0  0  0  0
    5.3663   -4.1211    7.0570 H   0  0  0  0  0  0  0  0  0  0  0  0
    9.1024   -7.4579    9.2763 H   0  0  0  0  0  0  0  0  0  0  0  0
  1  2  2  0  0  0  0
  2  3  1  0  0  0  0
  3  4  2  0  0  0  0
  3  5  1  0  0  0  0
  5  6  2  0  0  0  0
  6  7  1  0  0  0  0
  7  8  2  0  0  0  0
  8  9  1  0  0  0  0
  9 10  2  0  0  0  0
 10 11  1  0  0  0  0
 11 12  2  0  0  0  0
 12 13  1  0  0  0  0
 13 14  3  0  0  0  0
 12 15  1  0  0  0  0
 15 16  3  0  0  0  0
  8 17  1  0  0  0  0
 17 18  1  0  0  0  0
 18 19  1  0  0  0  0
 19 20  2  0  0  0  0
 20 21  1  0  0  0  0
 21 22  1  0  0  0  0
 21 23  1  0  0  0  0
  1 24  1  0  0  0  0
 24 25  2  0  0  0  0
 25 26  1  0  0  0  0
 26 27  1  0  0  0  0
 27 28  2  0  0  0  0
 28 29  1  0  0  0  0
 29 30  2  0  0  0  0
 30 31  1  0  0  0  0
 31 32  1  0  0  0  0
 30 33  1  0  0  0  0
 33 34  2  0  0  0  0
 26 35  1  0  0  0  0
 35 36  2  0  0  0  0
 36 37  1  0  0  0  0
 37 38  2  0  0  0  0
 38 39  1  0  0  0  0
 39 40  1  0  0  0  0
 38 41  1  0  0  0  0
 41 42  2  0  0  0  0
 25 43  1  0  0  0  0
 43 44  1  0  0  0  0
 44 45  1  0  0  0  0
 45 46  2  0  0  0  0
 46 47  1  0  0  0  0
 47 48  1  0  0  0  0
 48 49  2  0  0  0  0
 49 50  1  0  0  0  0
 50 51  2  0  0  0  0
 51 52  1  0  0  0  0
 52 53  1  0  0  0  0
 51 54  1  0  0  0  0
 54 55  2  0  0  0  0
 47 56  1  0  0  0  0
 56 57  2  0  0  0  0
 57 58  1  0  0  0  0
 58 59  2  0  0  0  0
 59 60  1  0  0  0  0
 60 61  1  0  0  0  0
 59 62  1  0  0  0  0
 62 63  2  0  0  0  0
 46 64  1  0  0  0  0
 64 65  1  0  0  0  0
 45 66  1  0  0  0  0
 66 67  2  0  0  0  0
 67 68  1  0  0  0  0
 68 69  1  0  0  0  0
 69 70  2  0  0  0  0
 70 71  1  0  0  0  0
 71 72  2  0  0  0  0
 72 73  1  0  0  0  0
 73 74  1  0  0  0  0
 72 75  1  0  0  0  0
 75 76  2  0  0  0  0
 68 77  1  0  0  0  0
 77 78  2  0  0  0  0
 78 79  1  0  0  0  0
 79 80  2  0  0  0  0
 80 81  1  0  0  0  0
 81 82  1  0  0  0  0
 80 83  1  0  0  0  0
 83 84  2  0  0  0  0
 67 85  1  0  0  0  0
 85 86  1  0  0  0  0
 86 87  1  0  0  0  0
 87 88  2  0  0  0  0
 88 89  1  0  0  0  0
 89 90  1  0  0  0  0
 90 91  2  0  0  0  0
 91 92  1  0  0  0  0
 92 93  2  0  0  0  0
 93 94  1  0  0  0  0
 94 95  1  0  0  0  0
 93 96  1  0  0  0  0
 96 97  2  0  0  0  0
 89 98  1  0  0  0  0
 98 99  2  0  0  0  0
 99100  1  0  0  0  0
100101  2  0  0  0  0
101102  1  0  0  0  0
102103  1  0  0  0  0
101104  1  0  0  0  0
104105  2  0  0  0  0
 88106  1  0  0  0  0
106107  1  0  0  0  0
 87108  1  0  0  0  0
108109  2  0  0  0  0
109110  1  0  0  0  0
110111  1  0  0  0  0
111112  2  0  0  0  0
112113  1  0  0  0  0
113114  2  0  0  0  0
114115  1  0  0  0  0
115116  1  0  0  0  0
114117  1  0  0  0  0
117118  2  0  0  0  0
110119  1  0  0  0  0
119120  2  0  0  0  0
120121  1  0  0  0  0
121122  2  0  0  0  0
122123  1  0  0  0  0
123124  1  0  0  0  0
122125  1  0  0  0  0
125126  2  0  0  0  0
109127  1  0  0  0  0
127128  1  0  0  0  0
128129  1  0  0  0  0
129130  2  0  0  0  0
130131  1  0  0  0  0
131132  1  0  0  0  0
132133  2  0  0  0  0
133134  1  0  0  0  0
134135  2  0  0  0  0
135136  1  0  0  0  0
136137  1  0  0  0  0
135138  1  0  0  0  0
138139  2  0  0  0  0
131140  1  0  0  0  0
140141  2  0  0  0  0
141142  1  0  0  0  0
142143  2  0  0  0  0
143144  1  0  0  0  0
144145  1  0  0  0  0
143146  1  0  0  0  0
146147  2  0  0  0  0
130148  1  0  0  0  0
148149  1  0  0  0  0
129150  1  0  0  0  0
150151  2  0  0  0  0
151152  1  0  0  0  0
152153  2  0  0  0  0
152154  1  0  0  0  0
154155  2  0  0  0  0
155156  1  0  0  0  0
156157  2  0  0  0  0
157158  1  0  0  0  0
157159  1  0  0  0  0
159160  1  0  0  0  0
159161  2  0  0  0  0
161162  1  0  0  0  0
155163  1  0  0  0  0
163164  2  0  0  0  0
164165  1  0  0  0  0
165166  3  0  0  0  0
164167  1  0  0  0  0
167168  3  0  0  0  0
 11  2  1  0  0  0  0
 23 17  1  0  0  0  0
 65 24  1  0  0  0  0
107 66  1  0  0  0  0
149108  1  0  0  0  0
163151  1  0  0  0  0
 10  5  1  0  0  0  0
 22 18  1  0  0  0  0
 34 27  1  0  0  0  0
 42 35  1  0  0  0  0
 64 43  2  0  0  0  0
 76 69  1  0  0  0  0
 84 77  1  0  0  0  0
106 85  2  0  0  0  0
118111  1  0  0  0  0
126119  1  0  0  0  0
148127  2  0  0  0  0
161154  1  0  0  0  0
 23  7  1  0  0  0  0
 55 48  1  0  0  0  0
 63 56  1  0  0  0  0
 97 90  1  0  0  0  0
105 98  1  0  0  0  0
139132  1  0  0  0  0
147140  1  0  0  0  0
  1169  1  0  0  0  0
  6170  1  0  0  0  0
  9171  1  0  0  0  0
 17172  1  0  0  0  0
 18173  1  0  0  0  0
 19174  1  0  0  0  0
 20175  1  0  0  0  0
 21176  1  0  0  0  0
 22177  1  0  0  0  0
 22178  1  0  0  0  0
 23179  1  0  0  0  0
 28180  1  0  0  0  0
 29181  1  0  0  0  0
 32182  1  0  0  0  0
 32183  1  0  0  0  0
 32184  1  0  0  0  0
 33185  1  0  0  0  0
 34186  1  0  0  0  0
 36187  1  0  0  0  0
 37188  1  0  0  0  0
 40189  1  0  0  0  0
 40190  1  0  0  0  0
 40191  1  0  0  0  0
 41192  1  0  0  0  0
 42193  1  0  0  0  0
 49194  1  0  0  0  0
 50195  1  0  0  0  0
 53196  1  0  0  0  0
 53197  1  0  0  0  0
 53198  1  0  0  0  0
 54199  1  0  0  0  0
 55200  1  0  0  0  0
 57201  1  0  0  0  0
 58202  1  0  0  0  0
 61203  1  0  0  0  0
 61204  1  0  0  0  0
 61205  1  0  0  0  0
 62206  1  0  0  0  0
 63207  1  0  0  0  0
 70208  1  0  0  0  0
 71209  1  0  0  0  0
 74210  1  0  0  0  0
 74211  1  0  0  0  0
 74212  1  0  0  0  0
 75213  1  0  0  0  0
 76214  1  0  0  0  0
 78215  1  0  0  0  0
 79216  1  0  0  0  0
 82217  1  0  0  0  0
 82218  1  0  0  0  0
 82219  1  0  0  0  0
 83220  1  0  0  0  0
 84221  1  0  0  0  0
 91222  1  0  0  0  0
 92223  1  0  0  0  0
 95224  1  0  0  0  0
 95225  1  0  0  0  0
 95226  1  0  0  0  0
 96227  1  0  0  0  0
 97228  1  0  0  0  0
 99229  1  0  0  0  0
100230  1  0  0  0  0
103231  1  0  0  0  0
103232  1  0  0  0  0
103233  1  0  0  0  0
104234  1  0  0  0  0
105235  1  0  0  0  0
112236  1  0  0  0  0
113237  1  0  0  0  0
116238  1  0  0  0  0
116239  1  0  0  0  0
116240  1  0  0  0  0
117241  1  0  0  0  0
118242  1  0  0  0  0
120243  1  0  0  0  0
121244  1  0  0  0  0
124245  1  0  0  0  0
124246  1  0  0  0  0
124247  1  0  0  0  0
125248  1  0  0  0  0
126249  1  0  0  0  0
133250  1  0  0  0  0
134251  1  0  0  0  0
137252  1  0  0  0  0
137253  1  0  0  0  0
137254  1  0  0  0  0
138255  1  0  0  0  0
139256  1  0  0  0  0
141257  1  0  0  0  0
142258  1  0  0  0  0
145259  1  0  0  0  0
145260  1  0  0  0  0
145261  1  0  0  0  0
146262  1  0  0  0  0
147263  1  0  0  0  0
150264  1  0  0  0  0
156265  1  0  0  0  0
M  END
