
  xtb     02142222263D
 energy: -372.273287425691 gnorm: 0.000427994675 xtb: 6.4.1 (unknown)
225248  0     0  0            999 V2000
   -1.4731    2.6560    8.3113 C   0  0  0  0  0  0  0  0  0  0  0  0
   -1.7134    3.9967    8.2670 C   0  0  0  0  0  0  0  0  0  0  0  0
   -2.1922    4.7016    9.4784 C   0  0  0  0  0  0  0  0  0  0  0  0
   -2.1941    4.2689   10.6135 O   0  0  0  0  0  0  0  0  0  0  0  0
   -2.6698    6.0157    9.0078 C   0  0  0  0  0  0  0  0  0  0  0  0
   -3.3259    6.9976    9.7473 C   0  0  0  0  0  0  0  0  0  0  0  0
   -3.6815    8.1067    9.0170 C   0  0  0  0  0  0  0  0  0  0  0  0
   -3.4145    8.2319    7.6472 C   0  0  0  0  0  0  0  0  0  0  0  0
   -2.7599    7.2771    6.9056 C   0  0  0  0  0  0  0  0  0  0  0  0
   -2.3799    6.1470    7.6327 C   0  0  0  0  0  0  0  0  0  0  0  0
   -1.6317    4.9680    7.2021 C   0  0  0  0  0  0  0  0  0  0  0  0
   -0.7882    4.9258    6.1195 C   0  0  0  0  0  0  0  0  0  0  0  0
    0.1797    3.9232    5.9149 C   0  0  0  0  0  0  0  0  0  0  0  0
    1.0388    3.1799    5.7399 N   0  0  0  0  0  0  0  0  0  0  0  0
   -0.6874    5.9376    5.1489 C   0  0  0  0  0  0  0  0  0  0  0  0
   -0.5577    6.7162    4.3136 N   0  0  0  0  0  0  0  0  0  0  0  0
   -4.0576    9.5935    7.5638 C   0  0  0  0  0  0  0  0  0  0  0  0
   -3.1006   10.8029    7.5046 C   0  0  0  0  0  0  0  0  0  0  0  0
   -3.9690   11.9713    7.9115 C   0  0  0  0  0  0  0  0  0  0  0  0
   -4.2180   11.8558    9.2097 C   0  0  0  0  0  0  0  0  0  0  0  0
   -3.5218   10.6074    9.7021 C   0  0  0  0  0  0  0  0  0  0  0  0
   -2.2869   10.6180    8.7920 C   0  0  0  0  0  0  0  0  0  0  0  0
   -4.3509    9.4569    9.0924 C   0  0  0  0  0  0  0  0  0  0  0  0
   -1.2990    1.7576    7.2381 C   0  0  0  0  0  0  0  0  0  0  0  0
   -0.5935    0.5463    7.2551 C   0  0  0  0  0  0  0  0  0  0  0  0
    0.1311    0.0912    8.3223 N   0  0  0  0  0  0  0  0  0  0  0  0
    0.3977   -1.2724    8.4922 C   0  0  0  0  0  0  0  0  0  0  0  0
    1.6167   -1.6823    9.0342 C   0  0  0  0  0  0  0  0  0  0  0  0
    1.8830   -3.0217    9.1999 C   0  0  0  0  0  0  0  0  0  0  0  0
    0.9433   -3.9840    8.8290 C   0  0  0  0  0  0  0  0  0  0  0  0
    1.4041   -5.6678    9.0702 S   0  0  0  0  0  0  0  0  0  0  0  0
    0.0703   -6.6032    8.2690 C   0  0  0  0  0  0  0  0  0  0  0  0
   -0.2822   -3.5781    8.3179 C   0  0  0  0  0  0  0  0  0  0  0  0
   -0.5530   -2.2335    8.1581 C   0  0  0  0  0  0  0  0  0  0  0  0
    0.6263    1.0156    9.2742 C   0  0  0  0  0  0  0  0  0  0  0  0
    0.3148    0.8683   10.6213 C   0  0  0  0  0  0  0  0  0  0  0  0
    0.6427    1.8665   11.5170 C   0  0  0  0  0  0  0  0  0  0  0  0
    1.2929    3.0116   11.0737 C   0  0  0  0  0  0  0  0  0  0  0  0
    1.6178    4.3792   12.1442 S   0  0  0  0  0  0  0  0  0  0  0  0
    0.1027    4.4031   13.1513 C   0  0  0  0  0  0  0  0  0  0  0  0
    1.7009    3.1050    9.7468 C   0  0  0  0  0  0  0  0  0  0  0  0
    1.3717    2.1125    8.8493 C   0  0  0  0  0  0  0  0  0  0  0  0
   -0.6371   -0.0776    5.9837 C   0  0  0  0  0  0  0  0  0  0  0  0
    0.0939   -1.4914    5.2969 S   0  0  0  0  0  0  0  0  0  0  0  0
   -0.5592   -1.0910    3.7404 C   0  0  0  0  0  0  0  0  0  0  0  0
   -1.3368    0.0492    3.7519 C   0  0  0  0  0  0  0  0  0  0  0  0
   -2.0472    0.4784    2.6241 N   0  0  0  0  0  0  0  0  0  0  0  0
   -1.8227    1.7285    2.0662 C   0  0  0  0  0  0  0  0  0  0  0  0
   -0.7904    2.5462    2.5359 C   0  0  0  0  0  0  0  0  0  0  0  0
   -0.5234    3.7545    1.9276 C   0  0  0  0  0  0  0  0  0  0  0  0
   -1.2784    4.1719    0.8416 C   0  0  0  0  0  0  0  0  0  0  0  0
   -0.8515    5.6641   -0.0391 S   0  0  0  0  0  0  0  0  0  0  0  0
   -1.3871    6.9067    1.1746 C   0  0  0  0  0  0  0  0  0  0  0  0
   -2.3402    3.3950    0.4047 C   0  0  0  0  0  0  0  0  0  0  0  0
   -2.6245    2.1943    1.0218 C   0  0  0  0  0  0  0  0  0  0  0  0
   -2.8068   -0.5330    1.9971 C   0  0  0  0  0  0  0  0  0  0  0  0
   -2.7081   -0.8344    0.6401 C   0  0  0  0  0  0  0  0  0  0  0  0
   -3.4159   -1.8937    0.1035 C   0  0  0  0  0  0  0  0  0  0  0  0
   -4.2358   -2.6665    0.9153 C   0  0  0  0  0  0  0  0  0  0  0  0
   -5.2010   -4.0184    0.2971 S   0  0  0  0  0  0  0  0  0  0  0  0
   -4.0134   -4.8859   -0.7683 C   0  0  0  0  0  0  0  0  0  0  0  0
   -4.3563   -2.3567    2.2651 C   0  0  0  0  0  0  0  0  0  0  0  0
   -3.6471   -1.3044    2.7999 C   0  0  0  0  0  0  0  0  0  0  0  0
   -1.3710    0.6252    5.0379 C   0  0  0  0  0  0  0  0  0  0  0  0
   -2.0494    2.0749    5.6723 S   0  0  0  0  0  0  0  0  0  0  0  0
   -0.2455   -1.7756    2.4945 C   0  0  0  0  0  0  0  0  0  0  0  0
    0.3632   -0.9882    1.4821 C   0  0  0  0  0  0  0  0  0  0  0  0
    0.8706    0.2183    1.7939 N   0  0  0  0  0  0  0  0  0  0  0  0
    1.3031    0.9822    0.8358 C   0  0  0  0  0  0  0  0  0  0  0  0
    1.1734    0.5978   -0.5302 C   0  0  0  0  0  0  0  0  0  0  0  0
    1.4088    1.3898   -1.5709 O   0  0  0  0  0  0  0  0  0  0  0  0
    1.7906    2.7448   -1.3557 C   0  0  0  0  0  0  0  0  0  0  0  0
    1.9455    3.3909   -2.7214 C   0  0  0  0  0  0  0  0  0  0  0  0
    0.8015   -0.6259   -0.8360 N   0  0  0  0  0  0  0  0  0  0  0  0
    0.4482   -1.4590    0.1533 C   0  0  0  0  0  0  0  0  0  0  0  0
    0.0779   -2.7993   -0.1553 C   0  0  0  0  0  0  0  0  0  0  0  0
   -0.4475   -3.5605    0.8680 C   0  0  0  0  0  0  0  0  0  0  0  0
   -0.6234   -3.0560    2.1660 C   0  0  0  0  0  0  0  0  0  0  0  0
   -1.2059   -3.8425    3.0882 F   0  0  0  0  0  0  0  0  0  0  0  0
   -0.8196   -4.8322    0.6323 F   0  0  0  0  0  0  0  0  0  0  0  0
    0.2507   -3.2423   -1.5191 C   0  0  0  0  0  0  0  0  0  0  0  0
    1.3759   -3.0237   -2.2989 C   0  0  0  0  0  0  0  0  0  0  0  0
    2.6010   -2.6023   -1.8379 N   0  0  0  0  0  0  0  0  0  0  0  0
    2.9547   -2.7383   -0.4885 C   0  0  0  0  0  0  0  0  0  0  0  0
    3.5708   -1.6896    0.1901 C   0  0  0  0  0  0  0  0  0  0  0  0
    3.8163   -1.7853    1.5456 C   0  0  0  0  0  0  0  0  0  0  0  0
    3.4703   -2.9256    2.2604 C   0  0  0  0  0  0  0  0  0  0  0  0
    3.6569   -2.9904    3.7447 C   0  0  0  0  0  0  0  0  0  0  0  0
    2.9236   -3.9961    1.5620 C   0  0  0  0  0  0  0  0  0  0  0  0
    2.6731   -3.9124    0.2075 C   0  0  0  0  0  0  0  0  0  0  0  0
    3.4245   -1.8452   -2.6968 C   0  0  0  0  0  0  0  0  0  0  0  0
    4.7878   -2.1138   -2.7605 C   0  0  0  0  0  0  0  0  0  0  0  0
    5.5863   -1.4107   -3.6388 C   0  0  0  0  0  0  0  0  0  0  0  0
    5.0508   -0.4326   -4.4704 C   0  0  0  0  0  0  0  0  0  0  0  0
    5.9250    0.2764   -5.4589 C   0  0  0  0  0  0  0  0  0  0  0  0
    3.6957   -0.1504   -4.3736 C   0  0  0  0  0  0  0  0  0  0  0  0
    2.8850   -0.8417   -3.4939 C   0  0  0  0  0  0  0  0  0  0  0  0
    1.1178   -3.3522   -3.6557 C   0  0  0  0  0  0  0  0  0  0  0  0
    2.0388   -3.2334   -5.1057 S   0  0  0  0  0  0  0  0  0  0  0  0
    0.6508   -3.7720   -6.0592 C   0  0  0  0  0  0  0  0  0  0  0  0
   -0.4548   -4.0924   -5.2333 C   0  0  0  0  0  0  0  0  0  0  0  0
   -1.6871   -4.5309   -5.6567 N   0  0  0  0  0  0  0  0  0  0  0  0
   -2.8301   -4.0418   -4.9980 C   0  0  0  0  0  0  0  0  0  0  0  0
   -3.8945   -4.8816   -4.6776 C   0  0  0  0  0  0  0  0  0  0  0  0
   -5.0129   -4.3728   -4.0500 C   0  0  0  0  0  0  0  0  0  0  0  0
   -5.1004   -3.0265   -3.7061 C   0  0  0  0  0  0  0  0  0  0  0  0
   -6.3098   -2.5024   -2.9976 C   0  0  0  0  0  0  0  0  0  0  0  0
   -4.0305   -2.1985   -4.0217 C   0  0  0  0  0  0  0  0  0  0  0  0
   -2.9128   -2.6913   -4.6669 C   0  0  0  0  0  0  0  0  0  0  0  0
   -1.8228   -5.5767   -6.5873 C   0  0  0  0  0  0  0  0  0  0  0  0
   -0.8943   -6.6129   -6.6246 C   0  0  0  0  0  0  0  0  0  0  0  0
   -1.0641   -7.6594   -7.5079 C   0  0  0  0  0  0  0  0  0  0  0  0
   -2.1579   -7.7074   -8.3630 C   0  0  0  0  0  0  0  0  0  0  0  0
   -2.3146   -8.8205   -9.3480 C   0  0  0  0  0  0  0  0  0  0  0  0
   -3.0794   -6.6676   -8.3171 C   0  0  0  0  0  0  0  0  0  0  0  0
   -2.9167   -5.6091   -7.4480 C   0  0  0  0  0  0  0  0  0  0  0  0
   -0.1723   -3.8088   -3.8848 C   0  0  0  0  0  0  0  0  0  0  0  0
   -1.0873   -3.9267   -2.4177 S   0  0  0  0  0  0  0  0  0  0  0  0
    0.5966   -3.7179   -7.4581 C   0  0  0  0  0  0  0  0  0  0  0  0
    1.4535   -3.0906   -8.3337 C   0  0  0  0  0  0  0  0  0  0  0  0
    2.6862   -2.3662   -7.9968 C   0  0  0  0  0  0  0  0  0  0  0  0
    3.3657   -2.4682   -6.9903 O   0  0  0  0  0  0  0  0  0  0  0  0
    2.9843   -1.4996   -9.1509 C   0  0  0  0  0  0  0  0  0  0  0  0
    3.9895   -0.5411   -9.2435 C   0  0  0  0  0  0  0  0  0  0  0  0
    4.0006    0.1415  -10.4360 C   0  0  0  0  0  0  0  0  0  0  0  0
    3.0814   -0.1129  -11.4621 C   0  0  0  0  0  0  0  0  0  0  0  0
    2.0950   -1.0685  -11.3889 C   0  0  0  0  0  0  0  0  0  0  0  0
    2.0662   -1.7729  -10.1829 C   0  0  0  0  0  0  0  0  0  0  0  0
    1.1889   -2.8558   -9.7377 C   0  0  0  0  0  0  0  0  0  0  0  0
    0.3485   -3.5708  -10.5522 C   0  0  0  0  0  0  0  0  0  0  0  0
   -0.2958   -4.7693  -10.1908 C   0  0  0  0  0  0  0  0  0  0  0  0
   -0.7945   -5.7887  -10.0137 N   0  0  0  0  0  0  0  0  0  0  0  0
    0.1063   -3.2715  -11.9077 C   0  0  0  0  0  0  0  0  0  0  0  0
   -0.1506   -3.0751  -13.0100 N   0  0  0  0  0  0  0  0  0  0  0  0
    3.6593    0.9583  -12.3533 C   0  0  0  0  0  0  0  0  0  0  0  0
    2.8935    2.3006  -12.4593 C   0  0  0  0  0  0  0  0  0  0  0  0
    2.1235    2.4598  -11.1721 C   0  0  0  0  0  0  0  0  0  0  0  0
    2.9980    2.6975  -10.2037 C   0  0  0  0  0  0  0  0  0  0  0  0
    4.3755    2.7028  -10.8189 C   0  0  0  0  0  0  0  0  0  0  0  0
    4.0503    3.2806  -12.2054 C   0  0  0  0  0  0  0  0  0  0  0  0
    4.6874    1.2376  -11.2120 C   0  0  0  0  0  0  0  0  0  0  0  0
   -1.4833    2.2306    9.3083 H   0  0  0  0  0  0  0  0  0  0  0  0
   -3.5231    6.8620   10.7992 H   0  0  0  0  0  0  0  0  0  0  0  0
   -2.5669    7.3764    5.8498 H   0  0  0  0  0  0  0  0  0  0  0  0
   -4.8982    9.6811    6.8780 H   0  0  0  0  0  0  0  0  0  0  0  0
   -2.5499   10.9018    6.5732 H   0  0  0  0  0  0  0  0  0  0  0  0
   -4.3462   12.7065    7.2251 H   0  0  0  0  0  0  0  0  0  0  0  0
   -4.8447   12.4752    9.8241 H   0  0  0  0  0  0  0  0  0  0  0  0
   -3.3548   10.5309   10.7731 H   0  0  0  0  0  0  0  0  0  0  0  0
   -1.6355   11.4669    8.9923 H   0  0  0  0  0  0  0  0  0  0  0  0
   -1.7054    9.6984    8.8211 H   0  0  0  0  0  0  0  0  0  0  0  0
   -5.3870    9.4557    9.4261 H   0  0  0  0  0  0  0  0  0  0  0  0
    2.3520   -0.9423    9.3115 H   0  0  0  0  0  0  0  0  0  0  0  0
    2.8277   -3.3432    9.6102 H   0  0  0  0  0  0  0  0  0  0  0  0
   -0.0323   -6.2851    7.2359 H   0  0  0  0  0  0  0  0  0  0  0  0
   -0.8589   -6.4776    8.8172 H   0  0  0  0  0  0  0  0  0  0  0  0
    0.3797   -7.6430    8.3076 H   0  0  0  0  0  0  0  0  0  0  0  0
   -1.0404   -4.2948    8.0485 H   0  0  0  0  0  0  0  0  0  0  0  0
   -1.5191   -1.9276    7.7854 H   0  0  0  0  0  0  0  0  0  0  0  0
   -0.2203   -0.0092   10.9539 H   0  0  0  0  0  0  0  0  0  0  0  0
    0.3678    1.7599   12.5540 H   0  0  0  0  0  0  0  0  0  0  0  0
    0.0694    5.3839   13.6149 H   0  0  0  0  0  0  0  0  0  0  0  0
   -0.7541    4.2661   12.4973 H   0  0  0  0  0  0  0  0  0  0  0  0
    0.1418    3.6370   13.9199 H   0  0  0  0  0  0  0  0  0  0  0  0
    2.2535    3.9732    9.4227 H   0  0  0  0  0  0  0  0  0  0  0  0
    1.6456    2.2038    7.8091 H   0  0  0  0  0  0  0  0  0  0  0  0
   -0.1613    2.2167    3.3469 H   0  0  0  0  0  0  0  0  0  0  0  0
    0.2906    4.3674    2.2863 H   0  0  0  0  0  0  0  0  0  0  0  0
   -1.1020    7.8725    0.7709 H   0  0  0  0  0  0  0  0  0  0  0  0
   -2.4665    6.8493    1.2861 H   0  0  0  0  0  0  0  0  0  0  0  0
   -0.8936    6.7343    2.1265 H   0  0  0  0  0  0  0  0  0  0  0  0
   -2.9408    3.7339   -0.4256 H   0  0  0  0  0  0  0  0  0  0  0  0
   -3.4677    1.6092    0.6887 H   0  0  0  0  0  0  0  0  0  0  0  0
   -2.0652   -0.2473    0.0014 H   0  0  0  0  0  0  0  0  0  0  0  0
   -3.3182   -2.1187   -0.9479 H   0  0  0  0  0  0  0  0  0  0  0  0
   -4.5012   -5.8080   -1.0665 H   0  0  0  0  0  0  0  0  0  0  0  0
   -3.1185   -5.1081   -0.1984 H   0  0  0  0  0  0  0  0  0  0  0  0
   -3.7804   -4.2942   -1.6468 H   0  0  0  0  0  0  0  0  0  0  0  0
   -5.0055   -2.9524    2.8874 H   0  0  0  0  0  0  0  0  0  0  0  0
   -3.7319   -1.0747    3.8517 H   0  0  0  0  0  0  0  0  0  0  0  0
    1.7497    1.9174    1.1375 H   0  0  0  0  0  0  0  0  0  0  0  0
    1.0192    3.2633   -0.7727 H   0  0  0  0  0  0  0  0  0  0  0  0
    2.7404    2.7818   -0.8080 H   0  0  0  0  0  0  0  0  0  0  0  0
    2.2198    4.4342   -2.6003 H   0  0  0  0  0  0  0  0  0  0  0  0
    2.7146    2.8755   -3.2902 H   0  0  0  0  0  0  0  0  0  0  0  0
    1.0073    3.3329   -3.2651 H   0  0  0  0  0  0  0  0  0  0  0  0
    3.8307   -0.7908   -0.3506 H   0  0  0  0  0  0  0  0  0  0  0  0
    4.2673   -0.9505    2.0623 H   0  0  0  0  0  0  0  0  0  0  0  0
    4.5146   -2.3992    4.0561 H   0  0  0  0  0  0  0  0  0  0  0  0
    3.7947   -4.0170    4.0757 H   0  0  0  0  0  0  0  0  0  0  0  0
    2.7740   -2.5904    4.2466 H   0  0  0  0  0  0  0  0  0  0  0  0
    2.6845   -4.9089    2.0885 H   0  0  0  0  0  0  0  0  0  0  0  0
    2.2442   -4.7533   -0.3174 H   0  0  0  0  0  0  0  0  0  0  0  0
    5.2088   -2.8813   -2.1273 H   0  0  0  0  0  0  0  0  0  0  0  0
    6.6418   -1.6352   -3.6941 H   0  0  0  0  0  0  0  0  0  0  0  0
    5.4199    1.1439   -5.8773 H   0  0  0  0  0  0  0  0  0  0  0  0
    6.1778   -0.4037   -6.2725 H   0  0  0  0  0  0  0  0  0  0  0  0
    6.8556    0.5989   -4.9947 H   0  0  0  0  0  0  0  0  0  0  0  0
    3.2626    0.6176   -4.9988 H   0  0  0  0  0  0  0  0  0  0  0  0
    1.8366   -0.6017   -3.4053 H   0  0  0  0  0  0  0  0  0  0  0  0
   -3.8371   -5.9319   -4.9205 H   0  0  0  0  0  0  0  0  0  0  0  0
   -5.8320   -5.0338   -3.8071 H   0  0  0  0  0  0  0  0  0  0  0  0
   -7.2190   -2.8387   -3.4923 H   0  0  0  0  0  0  0  0  0  0  0  0
   -6.3054   -1.4157   -2.9687 H   0  0  0  0  0  0  0  0  0  0  0  0
   -6.3359   -2.8732   -1.9724 H   0  0  0  0  0  0  0  0  0  0  0  0
   -4.0743   -1.1486   -3.7691 H   0  0  0  0  0  0  0  0  0  0  0  0
   -2.0979   -2.0287   -4.9209 H   0  0  0  0  0  0  0  0  0  0  0  0
   -0.0462   -6.5932   -5.9555 H   0  0  0  0  0  0  0  0  0  0  0  0
   -0.3343   -8.4553   -7.5302 H   0  0  0  0  0  0  0  0  0  0  0  0
   -1.8698   -8.5169  -10.2955 H   0  0  0  0  0  0  0  0  0  0  0  0
   -1.8092   -9.7210   -9.0072 H   0  0  0  0  0  0  0  0  0  0  0  0
   -3.3646   -9.0437   -9.5236 H   0  0  0  0  0  0  0  0  0  0  0  0
   -3.9287   -6.6792   -8.9839 H   0  0  0  0  0  0  0  0  0  0  0  0
   -3.6328   -4.8003   -7.4307 H   0  0  0  0  0  0  0  0  0  0  0  0
   -0.3103   -4.1327   -7.8873 H   0  0  0  0  0  0  0  0  0  0  0  0
    4.6734   -0.3751   -8.4260 H   0  0  0  0  0  0  0  0  0  0  0  0
    1.3954   -1.2530  -12.1870 H   0  0  0  0  0  0  0  0  0  0  0  0
    4.0426    0.6238  -13.3152 H   0  0  0  0  0  0  0  0  0  0  0  0
    2.3247    2.4242  -13.3769 H   0  0  0  0  0  0  0  0  0  0  0  0
    1.0603    2.3298  -11.0903 H   0  0  0  0  0  0  0  0  0  0  0  0
    2.8107    2.8055   -9.1513 H   0  0  0  0  0  0  0  0  0  0  0  0
    5.1569    3.1926  -10.2434 H   0  0  0  0  0  0  0  0  0  0  0  0
    4.8671    3.1818  -12.9191 H   0  0  0  0  0  0  0  0  0  0  0  0
    3.7222    4.3182  -12.1632 H   0  0  0  0  0  0  0  0  0  0  0  0
    5.7425    1.0812  -11.4289 H   0  0  0  0  0  0  0  0  0  0  0  0
  1  2  2  0  0  0  0
  2  3  1  0  0  0  0
  3  4  2  0  0  0  0
  3  5  1  0  0  0  0
  5  6  2  0  0  0  0
  6  7  1  0  0  0  0
  7  8  2  0  0  0  0
  8  9  1  0  0  0  0
  9 10  2  0  0  0  0
 10 11  1  0  0  0  0
 11 12  2  0  0  0  0
 12 13  1  0  0  0  0
 13 14  3  0  0  0  0
 12 15  1  0  0  0  0
 15 16  3  0  0  0  0
  8 17  1  0  0  0  0
 17 18  1  0  0  0  0
 18 19  1  0  0  0  0
 19 20  2  0  0  0  0
 20 21  1  0  0  0  0
 21 22  1  0  0  0  0
 21 23  1  0  0  0  0
  1 24  1  0  0  0  0
 24 25  2  0  0  0  0
 25 26  1  0  0  0  0
 26 27  1  0  0  0  0
 27 28  2  0  0  0  0
 28 29  1  0  0  0  0
 29 30  2  0  0  0  0
 30 31  1  0  0  0  0
 31 32  1  0  0  0  0
 30 33  1  0  0  0  0
 33 34  2  0  0  0  0
 26 35  1  0  0  0  0
 35 36  2  0  0  0  0
 36 37  1  0  0  0  0
 37 38  2  0  0  0  0
 38 39  1  0  0  0  0
 39 40  1  0  0  0  0
 38 41  1  0  0  0  0
 41 42  2  0  0  0  0
 25 43  1  0  0  0  0
 43 44  1  0  0  0  0
 44 45  1  0  0  0  0
 45 46  2  0  0  0  0
 46 47  1  0  0  0  0
 47 48  1  0  0  0  0
 48 49  2  0  0  0  0
 49 50  1  0  0  0  0
 50 51  2  0  0  0  0
 51 52  1  0  0  0  0
 52 53  1  0  0  0  0
 51 54  1  0  0  0  0
 54 55  2  0  0  0  0
 47 56  1  0  0  0  0
 56 57  2  0  0  0  0
 57 58  1  0  0  0  0
 58 59  2  0  0  0  0
 59 60  1  0  0  0  0
 60 61  1  0  0  0  0
 59 62  1  0  0  0  0
 62 63  2  0  0  0  0
 46 64  1  0  0  0  0
 64 65  1  0  0  0  0
 45 66  1  0  0  0  0
 66 67  1  0  0  0  0
 67 68  2  0  0  0  0
 68 69  1  0  0  0  0
 69 70  2  0  0  0  0
 70 71  1  0  0  0  0
 71 72  1  0  0  0  0
 72 73  1  0  0  0  0
 70 74  1  0  0  0  0
 74 75  2  0  0  0  0
 75 76  1  0  0  0  0
 76 77  2  0  0  0  0
 77 78  1  0  0  0  0
 78 79  1  0  0  0  0
 77 80  1  0  0  0  0
 76 81  1  0  0  0  0
 81 82  2  0  0  0  0
 82 83  1  0  0  0  0
 83 84  1  0  0  0  0
 84 85  2  0  0  0  0
 85 86  1  0  0  0  0
 86 87  2  0  0  0  0
 87 88  1  0  0  0  0
 87 89  1  0  0  0  0
 89 90  2  0  0  0  0
 83 91  1  0  0  0  0
 91 92  2  0  0  0  0
 92 93  1  0  0  0  0
 93 94  2  0  0  0  0
 94 95  1  0  0  0  0
 94 96  1  0  0  0  0
 96 97  2  0  0  0  0
 82 98  1  0  0  0  0
 98 99  1  0  0  0  0
 99100  1  0  0  0  0
100101  2  0  0  0  0
101102  1  0  0  0  0
102103  1  0  0  0  0
103104  2  0  0  0  0
104105  1  0  0  0  0
105106  2  0  0  0  0
106107  1  0  0  0  0
106108  1  0  0  0  0
108109  2  0  0  0  0
102110  1  0  0  0  0
110111  2  0  0  0  0
111112  1  0  0  0  0
112113  2  0  0  0  0
113114  1  0  0  0  0
113115  1  0  0  0  0
115116  2  0  0  0  0
101117  1  0  0  0  0
117118  1  0  0  0  0
100119  1  0  0  0  0
119120  2  0  0  0  0
120121  1  0  0  0  0
121122  2  0  0  0  0
121123  1  0  0  0  0
123124  2  0  0  0  0
124125  1  0  0  0  0
125126  2  0  0  0  0
126127  1  0  0  0  0
127128  2  0  0  0  0
128129  1  0  0  0  0
129130  2  0  0  0  0
130131  1  0  0  0  0
131132  3  0  0  0  0
130133  1  0  0  0  0
133134  3  0  0  0  0
126135  1  0  0  0  0
135136  1  0  0  0  0
136137  1  0  0  0  0
137138  2  0  0  0  0
138139  1  0  0  0  0
139140  1  0  0  0  0
139141  1  0  0  0  0
 11  2  1  0  0  0  0
 23 17  1  0  0  0  0
 65 24  1  0  0  0  0
 78 66  2  0  0  0  0
118 81  1  0  0  0  0
129120  1  0  0  0  0
141135  1  0  0  0  0
 10  5  1  0  0  0  0
 22 18  1  0  0  0  0
 34 27  1  0  0  0  0
 42 35  1  0  0  0  0
 64 43  2  0  0  0  0
 75 67  1  0  0  0  0
 90 84  1  0  0  0  0
 97 91  1  0  0  0  0
117 98  2  0  0  0  0
128123  1  0  0  0  0
140136  1  0  0  0  0
 23  7  1  0  0  0  0
 55 48  1  0  0  0  0
 63 56  1  0  0  0  0
109103  1  0  0  0  0
116110  1  0  0  0  0
141125  1  0  0  0  0
  1142  1  0  0  0  0
  6143  1  0  0  0  0
  9144  1  0  0  0  0
 17145  1  0  0  0  0
 18146  1  0  0  0  0
 19147  1  0  0  0  0
 20148  1  0  0  0  0
 21149  1  0  0  0  0
 22150  1  0  0  0  0
 22151  1  0  0  0  0
 23152  1  0  0  0  0
 28153  1  0  0  0  0
 29154  1  0  0  0  0
 32155  1  0  0  0  0
 32156  1  0  0  0  0
 32157  1  0  0  0  0
 33158  1  0  0  0  0
 34159  1  0  0  0  0
 36160  1  0  0  0  0
 37161  1  0  0  0  0
 40162  1  0  0  0  0
 40163  1  0  0  0  0
 40164  1  0  0  0  0
 41165  1  0  0  0  0
 42166  1  0  0  0  0
 49167  1  0  0  0  0
 50168  1  0  0  0  0
 53169  1  0  0  0  0
 53170  1  0  0  0  0
 53171  1  0  0  0  0
 54172  1  0  0  0  0
 55173  1  0  0  0  0
 57174  1  0  0  0  0
 58175  1  0  0  0  0
 61176  1  0  0  0  0
 61177  1  0  0  0  0
 61178  1  0  0  0  0
 62179  1  0  0  0  0
 63180  1  0  0  0  0
 69181  1  0  0  0  0
 72182  1  0  0  0  0
 72183  1  0  0  0  0
 73184  1  0  0  0  0
 73185  1  0  0  0  0
 73186  1  0  0  0  0
 85187  1  0  0  0  0
 86188  1  0  0  0  0
 88189  1  0  0  0  0
 88190  1  0  0  0  0
 88191  1  0  0  0  0
 89192  1  0  0  0  0
 90193  1  0  0  0  0
 92194  1  0  0  0  0
 93195  1  0  0  0  0
 95196  1  0  0  0  0
 95197  1  0  0  0  0
 95198  1  0  0  0  0
 96199  1  0  0  0  0
 97200  1  0  0  0  0
104201  1  0  0  0  0
105202  1  0  0  0  0
107203  1  0  0  0  0
107204  1  0  0  0  0
107205  1  0  0  0  0
108206  1  0  0  0  0
109207  1  0  0  0  0
111208  1  0  0  0  0
112209  1  0  0  0  0
114210  1  0  0  0  0
114211  1  0  0  0  0
114212  1  0  0  0  0
115213  1  0  0  0  0
116214  1  0  0  0  0
119215  1  0  0  0  0
124216  1  0  0  0  0
127217  1  0  0  0  0
135218  1  0  0  0  0
136219  1  0  0  0  0
137220  1  0  0  0  0
138221  1  0  0  0  0
139222  1  0  0  0  0
140223  1  0  0  0  0
140224  1  0  0  0  0
141225  1  0  0  0  0
M  END
