
  xtb     02082217013D
 energy: -380.535845067227 gnorm: 0.000455379543 xtb: 6.4.1 (unknown)
226246  0     0  0            999 V2000
    5.4293    2.6788    4.1456 C   0  0  0  0  0  0  0  0  0  0  0  0
    6.2702    2.4434    5.2072 C   0  0  0  0  0  0  0  0  0  0  0  0
    6.4309    1.1296    5.8507 C   0  0  0  0  0  0  0  0  0  0  0  0
    5.8349    0.1006    5.5879 O   0  0  0  0  0  0  0  0  0  0  0  0
    7.5726    1.2750    6.7778 C   0  0  0  0  0  0  0  0  0  0  0  0
    8.1134    0.2942    7.6031 C   0  0  0  0  0  0  0  0  0  0  0  0
    9.1793    0.7217    8.3593 C   0  0  0  0  0  0  0  0  0  0  0  0
    9.6793    2.0278    8.2913 C   0  0  0  0  0  0  0  0  0  0  0  0
    9.1564    3.0058    7.4771 C   0  0  0  0  0  0  0  0  0  0  0  0
    8.0673    2.5917    6.7069 C   0  0  0  0  0  0  0  0  0  0  0  0
    7.2477    3.3437    5.7597 C   0  0  0  0  0  0  0  0  0  0  0  0
    7.2853    4.7006    5.5584 C   0  0  0  0  0  0  0  0  0  0  0  0
    6.3590    5.3969    4.7563 C   0  0  0  0  0  0  0  0  0  0  0  0
    5.6140    6.0236    4.1468 N   0  0  0  0  0  0  0  0  0  0  0  0
    8.2037    5.5712    6.1759 C   0  0  0  0  0  0  0  0  0  0  0  0
    8.9318    6.3234    6.6483 N   0  0  0  0  0  0  0  0  0  0  0  0
   10.7679    1.7500    9.2982 C   0  0  0  0  0  0  0  0  0  0  0  0
   12.2054    1.5374    8.7629 C   0  0  0  0  0  0  0  0  0  0  0  0
   12.0668    1.0213    7.3522 C   0  0  0  0  0  0  0  0  0  0  0  0
   11.5924   -0.2155    7.4183 C   0  0  0  0  0  0  0  0  0  0  0  0
   11.4016   -0.5580    8.8753 C   0  0  0  0  0  0  0  0  0  0  0  0
   12.5648    0.2338    9.4938 C   0  0  0  0  0  0  0  0  0  0  0  0
   10.2090    0.2939    9.3758 C   0  0  0  0  0  0  0  0  0  0  0  0
    4.2654    1.9587    3.8420 C   0  0  0  0  0  0  0  0  0  0  0  0
    3.3759    1.2387    4.6606 C   0  0  0  0  0  0  0  0  0  0  0  0
    3.4085    1.1189    6.0247 N   0  0  0  0  0  0  0  0  0  0  0  0
    3.9736    2.0925    6.8528 C   0  0  0  0  0  0  0  0  0  0  0  0
    4.7083    1.7162    7.9758 C   0  0  0  0  0  0  0  0  0  0  0  0
    5.3425    2.6643    8.7552 C   0  0  0  0  0  0  0  0  0  0  0  0
    5.2508    4.0102    8.4262 C   0  0  0  0  0  0  0  0  0  0  0  0
    6.0856    5.2984    9.2865 S   0  0  0  0  0  0  0  0  0  0  0  0
    7.2748    4.4136   10.3342 C   0  0  0  0  0  0  0  0  0  0  0  0
    4.4548    4.3959    7.3452 C   0  0  0  0  0  0  0  0  0  0  0  0
    3.8272    3.4522    6.5672 C   0  0  0  0  0  0  0  0  0  0  0  0
    2.8708   -0.0472    6.6048 C   0  0  0  0  0  0  0  0  0  0  0  0
    3.1600   -1.2948    6.0618 C   0  0  0  0  0  0  0  0  0  0  0  0
    2.6225   -2.4416    6.6115 C   0  0  0  0  0  0  0  0  0  0  0  0
    1.7845   -2.3545    7.7162 C   0  0  0  0  0  0  0  0  0  0  0  0
    1.0139   -3.7424    8.4864 S   0  0  0  0  0  0  0  0  0  0  0  0
    1.7270   -5.1769    7.6298 C   0  0  0  0  0  0  0  0  0  0  0  0
    1.5078   -1.1055    8.2712 C   0  0  0  0  0  0  0  0  0  0  0  0
    2.0456    0.0383    7.7244 C   0  0  0  0  0  0  0  0  0  0  0  0
    2.3232    0.6944    3.8863 C   0  0  0  0  0  0  0  0  0  0  0  0
    0.8864   -0.1967    4.2716 S   0  0  0  0  0  0  0  0  0  0  0  0
    0.4334   -0.2364    2.5854 C   0  0  0  0  0  0  0  0  0  0  0  0
    1.3019    0.4719    1.7875 C   0  0  0  0  0  0  0  0  0  0  0  0
    1.1016    0.6893    0.4093 N   0  0  0  0  0  0  0  0  0  0  0  0
    0.2476    1.7411    0.0543 C   0  0  0  0  0  0  0  0  0  0  0  0
    0.2799    2.9489    0.7447 C   0  0  0  0  0  0  0  0  0  0  0  0
   -0.5828    3.9770    0.4121 C   0  0  0  0  0  0  0  0  0  0  0  0
   -1.4961    3.8135   -0.6184 C   0  0  0  0  0  0  0  0  0  0  0  0
   -2.6677    5.0414   -1.1139 S   0  0  0  0  0  0  0  0  0  0  0  0
   -2.2133    6.4992   -0.1346 C   0  0  0  0  0  0  0  0  0  0  0  0
   -1.5409    2.6018   -1.3084 C   0  0  0  0  0  0  0  0  0  0  0  0
   -0.6855    1.5792   -0.9722 C   0  0  0  0  0  0  0  0  0  0  0  0
    1.5938   -0.2045   -0.5401 C   0  0  0  0  0  0  0  0  0  0  0  0
    1.9280   -1.5152   -0.2018 C   0  0  0  0  0  0  0  0  0  0  0  0
    2.3893   -2.3905   -1.1621 C   0  0  0  0  0  0  0  0  0  0  0  0
    2.5345   -1.9813   -2.4831 C   0  0  0  0  0  0  0  0  0  0  0  0
    3.0638   -3.1916   -3.6598 S   0  0  0  0  0  0  0  0  0  0  0  0
    3.7756   -2.1836   -4.9915 C   0  0  0  0  0  0  0  0  0  0  0  0
    2.2475   -0.6658   -2.8200 C   0  0  0  0  0  0  0  0  0  0  0  0
    1.7965    0.2116   -1.8572 C   0  0  0  0  0  0  0  0  0  0  0  0
    2.3846    0.9913    2.5334 C   0  0  0  0  0  0  0  0  0  0  0  0
    3.7300    1.9949    2.1545 S   0  0  0  0  0  0  0  0  0  0  0  0
   -0.7925   -0.8283    2.0371 C   0  0  0  0  0  0  0  0  0  0  0  0
   -0.9863   -2.1362    1.6281 C   0  0  0  0  0  0  0  0  0  0  0  0
   -0.1922   -3.2022    1.8951 O   0  0  0  0  0  0  0  0  0  0  0  0
    0.5951   -3.2686    3.0695 C   0  0  0  0  0  0  0  0  0  0  0  0
   -0.2462   -3.2545    4.3396 C   0  0  0  0  0  0  0  0  0  0  0  0
   -2.0562   -2.4787    0.7260 C   0  0  0  0  0  0  0  0  0  0  0  0
   -2.2438   -3.7856    0.3910 O   0  0  0  0  0  0  0  0  0  0  0  0
   -2.6229   -4.6458    1.4690 C   0  0  0  0  0  0  0  0  0  0  0  0
   -1.7325   -5.8744    1.5547 C   0  0  0  0  0  0  0  0  0  0  0  0
   -2.8634   -1.5139    0.1471 C   0  0  0  0  0  0  0  0  0  0  0  0
   -2.8158   -0.2212    0.7284 C   0  0  0  0  0  0  0  0  0  0  0  0
   -1.7969    0.1032    1.6811 C   0  0  0  0  0  0  0  0  0  0  0  0
   -1.9011    1.3539    2.1261 N   0  0  0  0  0  0  0  0  0  0  0  0
   -3.1705    2.0430    1.4163 S   0  0  0  0  0  0  0  0  0  0  0  0
   -3.6319    0.8033    0.5033 N   0  0  0  0  0  0  0  0  0  0  0  0
   -3.6695   -1.6969   -1.0403 C   0  0  0  0  0  0  0  0  0  0  0  0
   -3.2570   -2.1716   -2.2749 C   0  0  0  0  0  0  0  0  0  0  0  0
   -2.0262   -2.7672   -2.5791 N   0  0  0  0  0  0  0  0  0  0  0  0
   -1.8116   -4.1169   -2.2576 C   0  0  0  0  0  0  0  0  0  0  0  0
   -2.8680   -5.0241   -2.2240 C   0  0  0  0  0  0  0  0  0  0  0  0
   -2.6266   -6.3573   -1.9763 C   0  0  0  0  0  0  0  0  0  0  0  0
   -1.3275   -6.8109   -1.7605 C   0  0  0  0  0  0  0  0  0  0  0  0
   -1.1399   -8.5462   -1.4636 S   0  0  0  0  0  0  0  0  0  0  0  0
    0.6584   -8.7887   -1.4265 C   0  0  0  0  0  0  0  0  0  0  0  0
   -0.2756   -5.9046   -1.7645 C   0  0  0  0  0  0  0  0  0  0  0  0
   -0.5200   -4.5682   -2.0060 C   0  0  0  0  0  0  0  0  0  0  0  0
   -1.2883   -2.1814   -3.6163 C   0  0  0  0  0  0  0  0  0  0  0  0
   -0.5642   -2.9521   -4.5258 C   0  0  0  0  0  0  0  0  0  0  0  0
    0.1551   -2.3553   -5.5385 C   0  0  0  0  0  0  0  0  0  0  0  0
    0.1528   -0.9751   -5.6753 C   0  0  0  0  0  0  0  0  0  0  0  0
    1.0877   -0.1736   -6.9606 S   0  0  0  0  0  0  0  0  0  0  0  0
    0.7908   -1.2898   -8.3694 C   0  0  0  0  0  0  0  0  0  0  0  0
   -0.5707   -0.1950   -4.7841 C   0  0  0  0  0  0  0  0  0  0  0  0
   -1.2860   -0.7941   -3.7699 C   0  0  0  0  0  0  0  0  0  0  0  0
   -4.1905   -1.8248   -3.2807 C   0  0  0  0  0  0  0  0  0  0  0  0
   -4.1948   -1.9995   -4.9919 S   0  0  0  0  0  0  0  0  0  0  0  0
   -5.6587   -1.0310   -5.1109 C   0  0  0  0  0  0  0  0  0  0  0  0
   -6.1794   -0.7093   -3.8468 C   0  0  0  0  0  0  0  0  0  0  0  0
   -7.3059    0.0384   -3.6294 N   0  0  0  0  0  0  0  0  0  0  0  0
   -7.2958    1.0271   -2.6330 C   0  0  0  0  0  0  0  0  0  0  0  0
   -6.1454    1.7792   -2.4060 C   0  0  0  0  0  0  0  0  0  0  0  0
   -6.1072    2.7290   -1.4050 C   0  0  0  0  0  0  0  0  0  0  0  0
   -7.2335    2.9502   -0.6231 C   0  0  0  0  0  0  0  0  0  0  0  0
   -7.3136    4.1245    0.6885 S   0  0  0  0  0  0  0  0  0  0  0  0
   -5.6798    4.9102    0.6725 C   0  0  0  0  0  0  0  0  0  0  0  0
   -8.3953    2.2174   -0.8652 C   0  0  0  0  0  0  0  0  0  0  0  0
   -8.4288    1.2626   -1.8561 C   0  0  0  0  0  0  0  0  0  0  0  0
   -8.4473   -0.1903   -4.4111 C   0  0  0  0  0  0  0  0  0  0  0  0
   -9.2107    0.8689   -4.8940 C   0  0  0  0  0  0  0  0  0  0  0  0
  -10.3206    0.6269   -5.6774 C   0  0  0  0  0  0  0  0  0  0  0  0
  -10.6863   -0.6780   -5.9885 C   0  0  0  0  0  0  0  0  0  0  0  0
  -12.0899   -1.0711   -6.9749 S   0  0  0  0  0  0  0  0  0  0  0  0
  -12.1933    0.3644   -8.0817 C   0  0  0  0  0  0  0  0  0  0  0  0
   -9.9362   -1.7394   -5.4876 C   0  0  0  0  0  0  0  0  0  0  0  0
   -8.8249   -1.5001   -4.7124 C   0  0  0  0  0  0  0  0  0  0  0  0
   -5.2967   -1.1263   -2.8234 C   0  0  0  0  0  0  0  0  0  0  0  0
   -5.2253   -0.9032   -1.1100 S   0  0  0  0  0  0  0  0  0  0  0  0
   -6.0841   -0.5657   -6.3733 C   0  0  0  0  0  0  0  0  0  0  0  0
   -5.1886   -0.1442   -7.3285 C   0  0  0  0  0  0  0  0  0  0  0  0
   -3.8095    0.2874   -7.0067 C   0  0  0  0  0  0  0  0  0  0  0  0
   -3.3182    0.4481   -5.9080 O   0  0  0  0  0  0  0  0  0  0  0  0
   -3.1933    0.6401   -8.2996 C   0  0  0  0  0  0  0  0  0  0  0  0
   -1.8953    1.0322   -8.5374 C   0  0  0  0  0  0  0  0  0  0  0  0
   -1.5276    1.2618   -9.8594 C   0  0  0  0  0  0  0  0  0  0  0  0
   -0.2199    1.5692  -10.1924 O   0  0  0  0  0  0  0  0  0  0  0  0
    0.4454    2.5216   -9.4917 C   0  0  0  0  0  0  0  0  0  0  0  0
   -0.0742    3.2497   -8.6972 O   0  0  0  0  0  0  0  0  0  0  0  0
    1.8991    2.5197   -9.8683 C   0  0  0  0  0  0  0  0  0  0  0  0
   -2.4489    1.1174  -10.8915 C   0  0  0  0  0  0  0  0  0  0  0  0
   -3.7629    0.7513  -10.6354 C   0  0  0  0  0  0  0  0  0  0  0  0
   -4.1444    0.5104   -9.3243 C   0  0  0  0  0  0  0  0  0  0  0  0
   -5.4236    0.1206   -8.7264 C   0  0  0  0  0  0  0  0  0  0  0  0
   -6.6207    0.0494   -9.3964 C   0  0  0  0  0  0  0  0  0  0  0  0
   -7.8674   -0.2212   -8.8048 C   0  0  0  0  0  0  0  0  0  0  0  0
   -8.9299   -0.4044   -8.4056 N   0  0  0  0  0  0  0  0  0  0  0  0
   -6.7687    0.3016  -10.7747 C   0  0  0  0  0  0  0  0  0  0  0  0
   -6.9586    0.4903  -11.8918 N   0  0  0  0  0  0  0  0  0  0  0  0
    5.6856    3.4662    3.4467 H   0  0  0  0  0  0  0  0  0  0  0  0
    7.7025   -0.7033    7.6229 H   0  0  0  0  0  0  0  0  0  0  0  0
    9.5560    4.0053    7.4255 H   0  0  0  0  0  0  0  0  0  0  0  0
   10.7489    2.3530   10.2045 H   0  0  0  0  0  0  0  0  0  0  0  0
   12.8677    2.3879    8.8999 H   0  0  0  0  0  0  0  0  0  0  0  0
   12.2672    1.6105    6.4766 H   0  0  0  0  0  0  0  0  0  0  0  0
   11.3167   -0.8657    6.6087 H   0  0  0  0  0  0  0  0  0  0  0  0
   11.3328   -1.6160    9.1149 H   0  0  0  0  0  0  0  0  0  0  0  0
   13.5398   -0.1558    9.2052 H   0  0  0  0  0  0  0  0  0  0  0  0
   12.5070    0.3142   10.5785 H   0  0  0  0  0  0  0  0  0  0  0  0
    9.8239   -0.0534   10.3330 H   0  0  0  0  0  0  0  0  0  0  0  0
    4.7981    0.6698    8.2254 H   0  0  0  0  0  0  0  0  0  0  0  0
    5.9201    2.3375    9.6046 H   0  0  0  0  0  0  0  0  0  0  0  0
    6.7588    3.8928   11.1358 H   0  0  0  0  0  0  0  0  0  0  0  0
    7.9198    5.1817   10.7494 H   0  0  0  0  0  0  0  0  0  0  0  0
    7.8581    3.7288    9.7248 H   0  0  0  0  0  0  0  0  0  0  0  0
    4.3521    5.4454    7.1161 H   0  0  0  0  0  0  0  0  0  0  0  0
    3.2290    3.7648    5.7250 H   0  0  0  0  0  0  0  0  0  0  0  0
    3.8356   -1.3594    5.2237 H   0  0  0  0  0  0  0  0  0  0  0  0
    2.8751   -3.3945    6.1747 H   0  0  0  0  0  0  0  0  0  0  0  0
    1.4236   -5.1842    6.5869 H   0  0  0  0  0  0  0  0  0  0  0  0
    1.3198   -6.0470    8.1354 H   0  0  0  0  0  0  0  0  0  0  0  0
    2.8083   -5.1662    7.7283 H   0  0  0  0  0  0  0  0  0  0  0  0
    0.8610   -1.0468    9.1328 H   0  0  0  0  0  0  0  0  0  0  0  0
    1.8266    1.0036    8.1559 H   0  0  0  0  0  0  0  0  0  0  0  0
    0.9824    3.0926    1.5502 H   0  0  0  0  0  0  0  0  0  0  0  0
   -0.5281    4.8976    0.9696 H   0  0  0  0  0  0  0  0  0  0  0  0
   -2.3763    6.3070    0.9221 H   0  0  0  0  0  0  0  0  0  0  0  0
   -2.8709    7.2952   -0.4697 H   0  0  0  0  0  0  0  0  0  0  0  0
   -1.1801    6.7674   -0.3341 H   0  0  0  0  0  0  0  0  0  0  0  0
   -2.2646    2.4703   -2.0987 H   0  0  0  0  0  0  0  0  0  0  0  0
   -0.7365    0.6340   -1.4898 H   0  0  0  0  0  0  0  0  0  0  0  0
    1.8291   -1.8544    0.8165 H   0  0  0  0  0  0  0  0  0  0  0  0
    2.6390   -3.4055   -0.8918 H   0  0  0  0  0  0  0  0  0  0  0  0
    2.9940   -1.6619   -5.5351 H   0  0  0  0  0  0  0  0  0  0  0  0
    4.4884   -1.4823   -4.5685 H   0  0  0  0  0  0  0  0  0  0  0  0
    4.2848   -2.8800   -5.6506 H   0  0  0  0  0  0  0  0  0  0  0  0
    2.3723   -0.3089   -3.8292 H   0  0  0  0  0  0  0  0  0  0  0  0
    1.5970    1.2359   -2.1318 H   0  0  0  0  0  0  0  0  0  0  0  0
    1.1241   -4.2213    2.9732 H   0  0  0  0  0  0  0  0  0  0  0  0
    1.3402   -2.4670    3.0902 H   0  0  0  0  0  0  0  0  0  0  0  0
   -0.8843   -2.3733    4.3644 H   0  0  0  0  0  0  0  0  0  0  0  0
    0.4022   -3.2233    5.2095 H   0  0  0  0  0  0  0  0  0  0  0  0
   -0.8744   -4.1410    4.3878 H   0  0  0  0  0  0  0  0  0  0  0  0
   -3.6599   -4.9499    1.2747 H   0  0  0  0  0  0  0  0  0  0  0  0
   -2.6037   -4.0923    2.4140 H   0  0  0  0  0  0  0  0  0  0  0  0
   -1.8533   -6.4837    0.6659 H   0  0  0  0  0  0  0  0  0  0  0  0
   -0.6925   -5.5737    1.6319 H   0  0  0  0  0  0  0  0  0  0  0  0
   -2.0091   -6.4610    2.4273 H   0  0  0  0  0  0  0  0  0  0  0  0
   -3.8763   -4.6826   -2.4052 H   0  0  0  0  0  0  0  0  0  0  0  0
   -3.4401   -7.0671   -1.9594 H   0  0  0  0  0  0  0  0  0  0  0  0
    1.0972   -8.4320   -2.3535 H   0  0  0  0  0  0  0  0  0  0  0  0
    0.8071   -9.8601   -1.3341 H   0  0  0  0  0  0  0  0  0  0  0  0
    1.0866   -8.2823   -0.5663 H   0  0  0  0  0  0  0  0  0  0  0  0
    0.7376   -6.2216   -1.5782 H   0  0  0  0  0  0  0  0  0  0  0  0
    0.2980   -3.8641   -2.0068 H   0  0  0  0  0  0  0  0  0  0  0  0
   -0.5698   -4.0280   -4.4502 H   0  0  0  0  0  0  0  0  0  0  0  0
    0.7080   -2.9781   -6.2252 H   0  0  0  0  0  0  0  0  0  0  0  0
   -0.2452   -1.6141   -8.3471 H   0  0  0  0  0  0  0  0  0  0  0  0
    0.9818   -0.7133   -9.2693 H   0  0  0  0  0  0  0  0  0  0  0  0
    1.4650   -2.1407   -8.3289 H   0  0  0  0  0  0  0  0  0  0  0  0
   -0.5800    0.8779   -4.8920 H   0  0  0  0  0  0  0  0  0  0  0  0
   -1.8772   -0.1821   -3.1067 H   0  0  0  0  0  0  0  0  0  0  0  0
   -5.2745    1.6247   -3.0255 H   0  0  0  0  0  0  0  0  0  0  0  0
   -5.1988    3.2890   -1.2557 H   0  0  0  0  0  0  0  0  0  0  0  0
   -5.5104    5.3963   -0.2836 H   0  0  0  0  0  0  0  0  0  0  0  0
   -4.9112    4.1698    0.8757 H   0  0  0  0  0  0  0  0  0  0  0  0
   -5.7040    5.6502    1.4666 H   0  0  0  0  0  0  0  0  0  0  0  0
   -9.2674    2.4016   -0.2568 H   0  0  0  0  0  0  0  0  0  0  0  0
   -9.3264    0.6885   -2.0302 H   0  0  0  0  0  0  0  0  0  0  0  0
   -8.9227    1.8827   -4.6579 H   0  0  0  0  0  0  0  0  0  0  0  0
  -10.8939    1.4614   -6.0473 H   0  0  0  0  0  0  0  0  0  0  0  0
  -12.8401    0.0654   -8.9004 H   0  0  0  0  0  0  0  0  0  0  0  0
  -11.1951    0.5798   -8.4505 H   0  0  0  0  0  0  0  0  0  0  0  0
  -12.6248    1.2180   -7.5667 H   0  0  0  0  0  0  0  0  0  0  0  0
  -10.2322   -2.7495   -5.7233 H   0  0  0  0  0  0  0  0  0  0  0  0
   -8.2368   -2.3228   -4.3331 H   0  0  0  0  0  0  0  0  0  0  0  0
   -7.1483   -0.5012   -6.5637 H   0  0  0  0  0  0  0  0  0  0  0  0
   -1.1955    1.1440   -7.7246 H   0  0  0  0  0  0  0  0  0  0  0  0
    2.2954    3.5285   -9.8033 H   0  0  0  0  0  0  0  0  0  0  0  0
    2.4286    1.8954   -9.1491 H   0  0  0  0  0  0  0  0  0  0  0  0
    2.0373    2.1116  -10.8647 H   0  0  0  0  0  0  0  0  0  0  0  0
   -2.1250    1.2997  -11.9044 H   0  0  0  0  0  0  0  0  0  0  0  0
   -4.4576    0.6598  -11.4543 H   0  0  0  0  0  0  0  0  0  0  0  0
  1  2  2  0  0  0  0
  2  3  1  0  0  0  0
  3  4  2  0  0  0  0
  3  5  1  0  0  0  0
  5  6  2  0  0  0  0
  6  7  1  0  0  0  0
  7  8  2  0  0  0  0
  8  9  1  0  0  0  0
  9 10  2  0  0  0  0
 10 11  1  0  0  0  0
 11 12  2  0  0  0  0
 12 13  1  0  0  0  0
 13 14  3  0  0  0  0
 12 15  1  0  0  0  0
 15 16  3  0  0  0  0
  8 17  1  0  0  0  0
 17 18  1  0  0  0  0
 18 19  1  0  0  0  0
 19 20  2  0  0  0  0
 20 21  1  0  0  0  0
 21 22  1  0  0  0  0
 21 23  1  0  0  0  0
  1 24  1  0  0  0  0
 24 25  2  0  0  0  0
 25 26  1  0  0  0  0
 26 27  1  0  0  0  0
 27 28  2  0  0  0  0
 28 29  1  0  0  0  0
 29 30  2  0  0  0  0
 30 31  1  0  0  0  0
 31 32  1  0  0  0  0
 30 33  1  0  0  0  0
 33 34  2  0  0  0  0
 26 35  1  0  0  0  0
 35 36  2  0  0  0  0
 36 37  1  0  0  0  0
 37 38  2  0  0  0  0
 38 39  1  0  0  0  0
 39 40  1  0  0  0  0
 38 41  1  0  0  0  0
 41 42  2  0  0  0  0
 25 43  1  0  0  0  0
 43 44  1  0  0  0  0
 44 45  1  0  0  0  0
 45 46  2  0  0  0  0
 46 47  1  0  0  0  0
 47 48  1  0  0  0  0
 48 49  2  0  0  0  0
 49 50  1  0  0  0  0
 50 51  2  0  0  0  0
 51 52  1  0  0  0  0
 52 53  1  0  0  0  0
 51 54  1  0  0  0  0
 54 55  2  0  0  0  0
 47 56  1  0  0  0  0
 56 57  2  0  0  0  0
 57 58  1  0  0  0  0
 58 59  2  0  0  0  0
 59 60  1  0  0  0  0
 60 61  1  0  0  0  0
 59 62  1  0  0  0  0
 62 63  2  0  0  0  0
 46 64  1  0  0  0  0
 64 65  1  0  0  0  0
 45 66  1  0  0  0  0
 66 67  2  0  0  0  0
 67 68  1  0  0  0  0
 68 69  1  0  0  0  0
 69 70  1  0  0  0  0
 67 71  1  0  0  0  0
 71 72  1  0  0  0  0
 72 73  1  0  0  0  0
 73 74  1  0  0  0  0
 71 75  2  0  0  0  0
 75 76  1  0  0  0  0
 76 77  1  0  0  0  0
 77 78  2  0  0  0  0
 78 79  1  0  0  0  0
 79 80  1  0  0  0  0
 75 81  1  0  0  0  0
 81 82  2  0  0  0  0
 82 83  1  0  0  0  0
 83 84  1  0  0  0  0
 84 85  2  0  0  0  0
 85 86  1  0  0  0  0
 86 87  2  0  0  0  0
 87 88  1  0  0  0  0
 88 89  1  0  0  0  0
 87 90  1  0  0  0  0
 90 91  2  0  0  0  0
 83 92  1  0  0  0  0
 92 93  2  0  0  0  0
 93 94  1  0  0  0  0
 94 95  2  0  0  0  0
 95 96  1  0  0  0  0
 96 97  1  0  0  0  0
 95 98  1  0  0  0  0
 98 99  2  0  0  0  0
 82100  1  0  0  0  0
100101  1  0  0  0  0
101102  1  0  0  0  0
102103  2  0  0  0  0
103104  1  0  0  0  0
104105  1  0  0  0  0
105106  2  0  0  0  0
106107  1  0  0  0  0
107108  2  0  0  0  0
108109  1  0  0  0  0
109110  1  0  0  0  0
108111  1  0  0  0  0
111112  2  0  0  0  0
104113  1  0  0  0  0
113114  2  0  0  0  0
114115  1  0  0  0  0
115116  2  0  0  0  0
116117  1  0  0  0  0
117118  1  0  0  0  0
116119  1  0  0  0  0
119120  2  0  0  0  0
103121  1  0  0  0  0
121122  1  0  0  0  0
102123  1  0  0  0  0
123124  2  0  0  0  0
124125  1  0  0  0  0
125126  2  0  0  0  0
125127  1  0  0  0  0
127128  2  0  0  0  0
128129  1  0  0  0  0
129130  1  0  0  0  0
130131  1  0  0  0  0
131132  2  0  0  0  0
131133  1  0  0  0  0
129134  2  0  0  0  0
134135  1  0  0  0  0
135136  2  0  0  0  0
136137  1  0  0  0  0
137138  2  0  0  0  0
138139  1  0  0  0  0
139140  3  0  0  0  0
138141  1  0  0  0  0
141142  3  0  0  0  0
 11  2  1  0  0  0  0
 23 17  1  0  0  0  0
 65 24  1  0  0  0  0
 77 66  1  0  0  0  0
122 81  1  0  0  0  0
137124  1  0  0  0  0
 10  5  1  0  0  0  0
 22 18  1  0  0  0  0
 34 27  1  0  0  0  0
 42 35  1  0  0  0  0
 64 43  2  0  0  0  0
 80 76  2  0  0  0  0
 91 84  1  0  0  0  0
 99 92  1  0  0  0  0
121100  2  0  0  0  0
136127  1  0  0  0  0
 23  7  1  0  0  0  0
 55 48  1  0  0  0  0
 63 56  1  0  0  0  0
112105  1  0  0  0  0
120113  1  0  0  0  0
  1143  1  0  0  0  0
  6144  1  0  0  0  0
  9145  1  0  0  0  0
 17146  1  0  0  0  0
 18147  1  0  0  0  0
 19148  1  0  0  0  0
 20149  1  0  0  0  0
 21150  1  0  0  0  0
 22151  1  0  0  0  0
 22152  1  0  0  0  0
 23153  1  0  0  0  0
 28154  1  0  0  0  0
 29155  1  0  0  0  0
 32156  1  0  0  0  0
 32157  1  0  0  0  0
 32158  1  0  0  0  0
 33159  1  0  0  0  0
 34160  1  0  0  0  0
 36161  1  0  0  0  0
 37162  1  0  0  0  0
 40163  1  0  0  0  0
 40164  1  0  0  0  0
 40165  1  0  0  0  0
 41166  1  0  0  0  0
 42167  1  0  0  0  0
 49168  1  0  0  0  0
 50169  1  0  0  0  0
 53170  1  0  0  0  0
 53171  1  0  0  0  0
 53172  1  0  0  0  0
 54173  1  0  0  0  0
 55174  1  0  0  0  0
 57175  1  0  0  0  0
 58176  1  0  0  0  0
 61177  1  0  0  0  0
 61178  1  0  0  0  0
 61179  1  0  0  0  0
 62180  1  0  0  0  0
 63181  1  0  0  0  0
 69182  1  0  0  0  0
 69183  1  0  0  0  0
 70184  1  0  0  0  0
 70185  1  0  0  0  0
 70186  1  0  0  0  0
 73187  1  0  0  0  0
 73188  1  0  0  0  0
 74189  1  0  0  0  0
 74190  1  0  0  0  0
 74191  1  0  0  0  0
 85192  1  0  0  0  0
 86193  1  0  0  0  0
 89194  1  0  0  0  0
 89195  1  0  0  0  0
 89196  1  0  0  0  0
 90197  1  0  0  0  0
 91198  1  0  0  0  0
 93199  1  0  0  0  0
 94200  1  0  0  0  0
 97201  1  0  0  0  0
 97202  1  0  0  0  0
 97203  1  0  0  0  0
 98204  1  0  0  0  0
 99205  1  0  0  0  0
106206  1  0  0  0  0
107207  1  0  0  0  0
110208  1  0  0  0  0
110209  1  0  0  0  0
110210  1  0  0  0  0
111211  1  0  0  0  0
112212  1  0  0  0  0
114213  1  0  0  0  0
115214  1  0  0  0  0
118215  1  0  0  0  0
118216  1  0  0  0  0
118217  1  0  0  0  0
119218  1  0  0  0  0
120219  1  0  0  0  0
123220  1  0  0  0  0
128221  1  0  0  0  0
133222  1  0  0  0  0
133223  1  0  0  0  0
133224  1  0  0  0  0
134225  1  0  0  0  0
135226  1  0  0  0  0
M  END
