265

C          1.51930        0.32220       -8.65420
C          0.92990       -0.35080       -9.69890
C          0.23050       -1.63390       -9.61270
O          0.00710       -2.29450       -8.61120
C         -0.13460       -2.00060      -10.99170
C         -0.82990       -3.13560      -11.40190
C         -1.04050       -3.20150      -12.75840
C         -0.59130       -2.21150      -13.64140
C          0.09380       -1.08560      -13.24860
C          0.31920       -0.99800      -11.87190
C          0.97300        0.04970      -11.08610
C          1.49460        1.21430      -11.59640
C          2.01030        2.28320      -10.83860
N          2.41580        3.21420      -10.29860
C          1.55880        1.52520      -12.96960
N          1.65740        1.83850      -14.07040
C         -1.14830       -2.92290      -14.84970
C         -0.13640       -3.68580      -15.73050
C         -0.99630       -4.64730      -16.51860
C         -1.42380       -5.58480      -15.68260
C         -0.85990       -5.27280      -14.31520
C          0.48590       -4.65690      -14.71880
C         -1.65080       -4.02660      -13.86440
C          1.48450        0.07120       -7.28240
C          2.13170        0.89930       -6.33310
N          3.03390        1.89220       -6.62170
C          4.00370        1.74720       -7.62990
C          4.54960        0.49780       -7.91420
C          5.50890        0.35770       -8.89660
C          5.94680        1.46990       -9.60550
S          7.16870        1.41660      -10.87580
C          7.53020       -0.35300      -11.06620
C          5.41500        2.72350       -9.30870
C          4.45110        2.86410       -8.33560
C          3.09770        2.99900       -5.75550
C          4.32220        3.51090       -5.32500
C          4.35780        4.53160       -4.40270
C          3.17750        5.06620       -3.88570
S          3.34570        6.31510       -2.65580
C          1.68190        6.45850       -1.94840
C          1.95720        4.60180       -4.36020
C          1.92140        3.58140       -5.28930
C          1.72800        0.57010       -5.02700
S          2.05460        1.24510       -3.46890
C          1.04740        0.02640       -2.71230
C          0.46820       -0.82920       -3.62700
N         -0.48310       -1.80980       -3.27850
C         -0.04420       -3.14760       -3.18640
C          0.67090       -3.74290       -4.21940
C          1.14120       -5.03860       -4.10340
C          0.90990       -5.76540       -2.94440
S          1.50310       -7.40410       -2.65580
C          2.28160       -7.86780       -4.22880
C          0.18140       -5.18050       -1.91050
C         -0.28770       -3.89240       -2.03200
C         -1.75010       -1.41510       -2.85740
C         -2.75710       -2.35390       -2.62060
C         -4.00910       -1.97170       -2.18040
C         -4.30550       -0.63070       -1.99130
S         -5.86590       -0.02840       -1.41300
C         -6.94320       -1.48710       -1.46030
C         -3.33510        0.31880       -2.29010
C         -2.08530       -0.06370       -2.72520
C          0.86810       -0.51840       -4.94930
S          0.50080       -1.17120       -6.50780
C          0.80120        0.14440       -1.29610
C          1.12340       -0.71230       -0.25870
N          1.90800       -1.84110       -0.40600
C          1.76950       -2.95990        0.42050
C          0.53650       -3.31630        0.96860
C          0.41520       -4.46880        1.71370
C          1.51750       -5.28440        1.94860
S          1.22410       -6.76420        2.85850
C          2.81710       -7.63150        2.80350
C          2.75650       -4.90880        1.44950
C          2.87620       -3.76070        0.69340
C          2.90250       -1.81280       -1.40490
C          3.69980       -0.68440       -1.56400
C          4.58720       -0.58600       -2.61820
C          4.68360       -1.62040       -3.53730
S          5.67240       -1.54840       -4.99810
C          6.31980        0.14650       -4.99230
C          3.95600       -2.79040       -3.32660
C          3.08610       -2.89370       -2.26490
C          0.64760       -0.19760        0.97690
S          0.61670       -0.77750        2.60630
C         -0.22190        0.67370        3.12800
C         -0.45880        1.54850        2.08750
N         -1.22340        2.70990        2.24230
C         -0.65830        3.96020        2.02410
C         -1.43020        5.04290        1.60960
C         -0.86020        6.28610        1.41990
C          0.49620        6.47090        1.64180
S          1.32910        8.01930        1.43890
C         -0.02090        9.22280        1.28910
C          1.27930        5.38650        2.02700
C          0.71220        4.14690        2.21520
C         -2.60440        2.51720        2.41530
C         -3.30650        3.26460        3.35780
C         -4.66440        3.08590        3.51060
C         -5.34210        2.15810        2.72410
S         -7.08700        1.99600        2.96910
C         -7.65960        1.35230        1.36970
C         -4.64110        1.38600        1.80900
C         -3.28100        1.56340        1.66010
C          0.04490        1.04730        0.87090
S          0.03980        1.63300       -0.74550
C         -0.46490        0.91600        4.51030
C         -0.66960       -0.03920        5.49010
N         -0.98560       -1.36470        5.16220
C         -0.07260       -2.39240        5.38260
C         -0.48820       -3.72010        5.45160
C          0.42610       -4.73830        5.62920
C          1.77570       -4.44560        5.76360
S          3.03030       -5.67790        5.94980
C          2.09960       -7.14860        6.47030
C          2.19410       -3.11960        5.73410
C          1.28300       -2.10450        5.54620
C         -2.17640       -1.52670        4.44250
C         -3.29380       -0.76790        4.79040
C         -4.48030       -0.90030        4.10020
C         -4.57020       -1.79650        3.04500
S         -6.07050       -2.03310        2.13510
C         -7.33990       -1.76830        3.41020
C         -3.45190       -2.53070        2.66680
C         -2.26700       -2.39850        3.35860
C         -0.67670        0.52700        6.78070
S         -0.79650       -0.11570        8.37800
C         -0.68350        1.51700        9.04980
C         -0.47430        2.49280        8.04070
N         -0.23740        3.82710        8.24130
C         -0.68600        4.73630        7.26110
C         -2.00870        4.69360        6.83360
C         -2.47190        5.59380        5.89350
C         -1.60670        6.53380        5.34980
S         -2.09130        7.73540        4.15760
C         -3.78460        7.26150        3.70580
C         -0.27780        6.57220        5.77000
C          0.17690        5.69070        6.72460
C          0.50690        4.31840        9.32570
C          1.56700        3.58240        9.85930
C          2.23530        4.04260       10.96970
C          1.87760        5.25580       11.55850
S          2.74710        5.72200       13.02020
C          1.66570        6.97880       13.76000
C          0.87850        6.02610       10.98120
C          0.19160        5.55560        9.87910
C         -0.51110        1.90920        6.76540
S         -0.36010        2.54010        5.15500
C         -0.88140        1.84670       10.38920
C         -1.02990        1.04800       11.50080
C         -0.91720       -0.41820       11.53560
O         -0.79070       -1.17540       10.58720
C         -0.97670       -0.77960       12.95300
C         -1.13660        0.40980       13.73640
C         -1.20160        0.15640       15.06920
S         -1.06720       -1.53890       15.38060
C         -0.92120       -1.92580       13.68170
C         -0.76620       -3.31780       13.20360
C         -1.20050        1.55170       12.84550
C         -1.40220        2.84670       13.26140
C         -1.59180        3.96500       12.43470
N         -1.78860        4.92390       11.82970
C         -1.48010        3.17330       14.62900
N         -1.53460        3.47200       15.73660
H          2.08510        1.20580       -8.91980
H         -1.16430       -3.86950      -10.68530
H          0.42500       -0.33060      -13.94160
H         -1.88350       -2.36810      -15.42950
H          0.53910       -3.05320      -16.29970
H         -1.24310       -4.51930      -17.55620
H         -2.09890       -6.39620      -15.88230
H         -0.84300       -6.08700      -13.59550
H          1.14410       -5.38170      -15.19530
H          1.01290       -4.16810      -13.90140
H         -2.72160       -4.20660      -13.78740
H          4.22670       -0.37210       -7.36170
H          5.91230       -0.62360       -9.08740
H          8.24620       -0.41660      -11.87970
H          7.97300       -0.74660      -10.15590
H          6.62390       -0.89000      -11.33020
H          5.75480        3.58360       -9.86320
H          4.03190        3.83490       -8.12550
H          5.24340        3.09610       -5.70660
H          5.30330        4.91680       -4.05340
H          1.32520        5.47840       -1.64500
H          1.79470        7.09510       -1.07540
H          1.00760        6.92370       -2.66160
H          1.02860        5.02420       -4.01280
H          0.97010        3.22470       -5.65620
H          0.86050       -3.20280       -5.13140
H          1.68850       -5.46290       -4.92930
H          3.13600       -7.22690       -4.42640
H          1.55230       -7.81370       -5.03170
H          2.61320       -8.89340       -4.09990
H          0.00270       -5.74090       -1.00540
H         -0.84310       -3.45130       -1.22140
H         -2.57060       -3.40150       -2.79780
H         -4.74550       -2.73690       -1.99380
H         -6.63690       -2.19920       -0.69920
H         -7.94180       -1.12140       -1.24140
H         -6.91930       -1.92550       -2.45340
H         -3.56940        1.36700       -2.18110
H         -1.37400        0.70450       -2.98260
H         -0.33460       -2.70530        0.78520
H         -0.54460       -4.77120        2.10520
H          3.12160       -7.76900        1.77030
H          2.64400       -8.59810        3.26700
H          3.55800       -7.07670        3.37260
H          3.63780       -5.49860        1.64030
H          3.84390       -3.48190        0.30390
H          3.60910        0.13900       -0.87060
H          5.17770        0.31040       -2.71460
H          7.03370        0.27080       -4.18310
H          5.49730        0.85010       -4.90420
H          6.81700        0.27740       -5.94870
H          4.06650       -3.61010       -4.01950
H          2.52750       -3.80070       -2.10400
H         -2.48450        4.90510        1.41950
H         -1.48550        7.10130        1.09390
H         -0.69440        9.11650        2.13420
H         -0.54120        9.08920        0.34490
H          0.45440       10.19840        1.31070
H          2.33710        5.53160        2.18440
H          1.32510        3.31400        2.52630
H         -2.76760        3.97850        3.96250
H         -5.21720        3.66100        4.23890
H         -7.23360        1.94900        0.56950
H         -8.74060        1.45190        1.38110
H         -7.38360        0.30850        1.25540
H         -5.14170        0.65550        1.19600
H         -2.74760        0.96530        0.93630
H         -1.53750       -3.95830        5.36520
H          0.07230       -5.75580        5.65420
H          1.48320       -6.89880        7.32840
H          2.84480       -7.88720        6.74930
H          1.49720       -7.52150        5.64700
H          3.24330       -2.89430        5.85000
H          1.62040       -1.07900        5.51630
H         -3.23580       -0.07470        5.61620
H         -5.32930       -0.30500        4.39600
H         -8.26780       -2.14900        2.99450
H         -7.06860       -2.33110        4.29790
H         -7.44400       -0.71100        3.63690
H         -3.52060       -3.20610        1.82710
H         -1.39870       -2.96700        3.06840
H         -2.68250        3.96180        7.25480
H         -3.51190        5.56260        5.61120
H         -3.79450        6.24180        3.33270
H         -4.44690        7.38150        4.55810
H         -4.08000        7.94710        2.91740
H          0.38910        7.30230        5.33830
H          1.20330        5.72750        7.05640
H          1.84580        2.63980        9.41240
H          3.04100        3.46750       11.39940
H          2.03050        7.12230       14.77230
H          0.64490        6.60910       13.78130
H          1.73720        7.91180       13.20820
H          0.60270        6.98180       11.39420
H         -0.61100        6.14180        9.46000
H         -0.91640        2.91280       10.57700
H         -1.31610        0.83210       15.89280
H         -1.61400       -3.92800       13.51420
H          0.13650       -3.76760       13.61640
H         -0.70250       -3.31590       12.11770
