179

C         -2.78420       -5.68600        5.60420
C         -4.07830       -6.08930        5.53890
C         -4.59990       -7.09410        6.50710
O         -4.05800       -7.46900        7.52220
C         -5.88110       -7.55640        5.93890
C         -6.70350       -8.57120        6.42330
C         -7.83140       -8.78790        5.66830
C         -8.12270       -8.05360        4.51040
C         -7.32550       -7.04560        4.02410
C         -6.17630       -6.80530        4.78120
C         -5.14070       -5.79340        4.60360
C         -5.27480       -4.65490        3.85270
C         -6.33340       -4.39690        2.96310
N         -7.13060       -4.11390        2.18490
C         -4.40400       -3.54750        3.89780
N         -3.77760       -2.58480        3.89810
C         -9.39840       -8.81430        4.25180
C         -9.38050       -9.89800        3.14560
C         -7.95500      -10.38060        3.04100
C         -7.68140      -11.07530        4.13730
C         -8.91690      -11.07470        5.00320
C        -10.00710      -11.06870        3.91960
C         -9.07580       -9.63140        5.54240
C         -2.02850       -4.98880        4.61030
C         -1.03260       -4.08810        4.97110
C         -0.39510       -3.27140        4.04930
F          0.37860       -2.29240        4.56370
C         -0.59450       -3.33760        2.66900
C         -1.53500       -4.33070        2.27400
C         -2.26200       -5.12940        3.21710
N         -3.12070       -5.94830        2.61060
S         -3.03230       -5.72570        1.01660
N         -1.89370       -4.58940        1.02100
C         -0.11440       -2.42020        1.69410
C          0.89900       -1.45210        1.75740
N          1.98940       -1.48110        2.59270
C          2.56180       -2.69070        3.01310
C          2.48240       -3.84360        2.23740
C          3.03820       -5.03070        2.67390
C          3.69460       -5.08630        3.89550
S          4.43530       -6.54170        4.56210
C          4.00730       -7.84060        3.36850
C          3.79600       -3.92830        4.66630
C          3.23820       -2.74810        4.23390
C          2.65380       -0.27430        2.86880
C          1.92680        0.85220        3.25250
C          2.57270        2.04770        3.47710
C          3.95370        2.14080        3.32580
S          4.67740        3.72950        3.59840
C          6.45020        3.37190        3.77090
C          4.68300        1.01740        2.95930
C          4.03600       -0.18100        2.73560
C          0.73190       -0.49480        0.72680
S          1.50940        0.99850        0.32530
C          0.41440        1.22680       -1.04490
C         -0.38510        0.08900       -1.26920
N         -1.12090       -0.23220       -2.38070
C         -2.11910       -1.22930       -2.24060
C         -2.01590       -2.41630       -2.96230
C         -2.94340       -3.41580       -2.77680
C         -3.99600       -3.24210       -1.87950
S         -5.09170       -4.60800       -1.67160
C         -6.59950       -3.85090       -0.99970
C         -4.12190       -2.04600       -1.18610
C         -3.18630       -1.04510       -1.36790
C         -0.86720        0.25680       -3.66710
C          0.39880        0.68730       -4.05700
C          0.59520        1.28560       -5.28410
C         -0.47450        1.44370       -6.15700
S         -0.36190        2.30170       -7.68840
C          1.22710        3.16750       -7.56580
C         -1.71780        0.90870       -5.81880
C         -1.91520        0.32300       -4.59090
C         -0.25510       -0.81990       -0.18970
S         -1.04670       -2.30550        0.21090
C          0.48470        2.48290       -1.69260
C         -0.49030        3.06420       -2.53650
C         -1.83140        2.64870       -2.72770
C         -2.49980        3.38350       -3.65770
C         -3.85230        3.12510       -4.13930
O         -4.56220        2.24370       -3.71260
O         -4.18850        3.97050       -5.11890
C         -5.45000        3.76330       -5.75010
C         -5.36410        2.66520       -6.80100
S         -1.52310        4.64520       -4.34630
C         -0.20070        4.22500       -3.30240
C          0.99220        4.96420       -3.23260
C          1.87520        4.49810       -2.22630
C          1.62140        3.30090       -1.49650
N          2.62820        3.13770       -0.63010
N          3.39670        4.16950       -0.82070
C          4.60250        4.37010       -0.07050
C          5.56430        3.20970       -0.29320
N          3.01740        5.01070       -1.74590
C          1.16990        6.13090       -4.01510
C          2.28260        6.89500       -4.22140
C          2.12920        8.31370       -4.63820
O          1.13730        8.83930       -5.09210
C          3.42730        8.95050       -4.32780
C          3.74460       10.30370       -4.40420
C          5.02560       10.60230       -4.00380
C          5.93090        9.62790       -3.56410
C          5.63750        8.28590       -3.50000
C          4.33790        7.96380       -3.89520
C          3.67840        6.66400       -3.96940
C          4.30340        5.44030       -4.00190
C          5.65320        5.21760       -3.68540
N          6.73010        4.95600       -3.37930
C          3.63860        4.27130       -4.41020
N          3.14480        3.30770       -4.79550
C          7.01320       10.64250       -3.29120
C          7.26080       11.05250       -1.81800
C          5.95760       10.84250       -1.08790
C          5.10390       11.76600       -1.50910
C          5.81450       12.61660       -2.53240
C          7.24360       12.58210       -1.96760
C          6.00630       11.72790       -3.78640
H         -2.25780       -5.94960        6.51600
H         -6.44550       -9.11390        7.31920
H         -7.55470       -6.49040        3.12930
H        -10.31120       -8.22200        4.23780
H         -9.85650       -9.60070        2.21490
H         -7.29410      -10.12600        2.23330
H         -6.74640      -11.51720        4.42790
H         -8.97110      -11.84940        5.76350
H        -11.00180      -10.85050        4.30590
H        -10.03120      -11.99120        3.34140
H         -9.77870       -9.57280        6.37120
H         -0.81790       -3.92200        6.01580
H          1.98950       -3.81880        1.27720
H          2.95630       -5.90130        2.04340
H          2.92790       -7.91670        3.27540
H          4.47480       -7.63680        2.40950
H          4.40740       -8.76050        3.78360
H          4.30900       -3.97380        5.61450
H          3.29950       -1.86300        4.84770
H          0.85840        0.77560        3.38230
H          2.01520        2.92250        3.77330
H          6.90650        4.30140        4.09660
H          6.87270        3.07080        2.81700
H          6.59360        2.60430        4.52520
H          5.75220        1.06440        2.82990
H          4.60450       -1.04980        2.43840
H         -1.19680       -2.54830       -3.65320
H         -2.86110       -4.34690       -3.31550
H         -6.48920       -3.63590        0.05950
H         -7.38300       -4.59010       -1.13460
H         -6.83280       -2.95550       -1.56710
H         -4.93070       -1.89020       -0.49060
H         -3.27610       -0.12210       -0.81480
H          1.24220        0.56750       -3.39520
H          1.58110        1.63980       -5.53140
H          2.04860        2.46340       -7.65970
H          1.24580        3.86900       -8.39420
H          1.28180        3.70150       -6.62190
H         -2.53260        0.98990       -6.52140
H         -2.89510       -0.03650       -4.31730
H         -2.31750        1.87430       -2.16590
H         -6.19080        3.50220       -4.98680
H         -5.70050        4.72460       -6.20240
H         -4.57630        2.89280       -7.51550
H         -5.14700        1.71270       -6.32310
H         -6.31140        2.58710       -7.32660
H          5.03180        5.31300       -0.41260
H          4.34240        4.44370        0.99030
H          5.08930        2.27750        0.00360
H          5.85200        3.14800       -1.34020
H          6.46200        3.36170        0.29880
H          0.25680        6.53570       -4.44490
H          3.02070       11.02550       -4.74880
H          6.33850        7.54040       -3.16040
H          7.94030       10.51510       -3.84690
H          8.14180       10.60350       -1.36660
H          5.77660       10.03350       -0.40450
H          4.06830       11.88210       -1.24790
H          5.37880       13.59210       -2.73200
H          7.99370       12.95890       -2.66160
H          7.33200       13.09990       -1.01350
H          6.27500       12.30660       -4.66820
