
  xtb     02082214213D
 energy: -453.840364296289 gnorm: 0.000199944261 xtb: 6.4.1 (unknown)
271296  0     0  0            999 V2000
    5.0986    7.3100   -2.0186 C   0  0  0  0  0  0  0  0  0  0  0  0
    6.1206    7.4537   -2.9317 C   0  0  0  0  0  0  0  0  0  0  0  0
    7.1059    6.4379   -3.2966 C   0  0  0  0  0  0  0  0  0  0  0  0
    7.2008    5.2967   -2.8673 O   0  0  0  0  0  0  0  0  0  0  0  0
    8.0211    7.0717   -4.2610 C   0  0  0  0  0  0  0  0  0  0  0  0
    9.0894    6.4730   -4.9249 C   0  0  0  0  0  0  0  0  0  0  0  0
    9.7481    7.3114   -5.7924 C   0  0  0  0  0  0  0  0  0  0  0  0
    9.3742    8.6476   -5.9813 C   0  0  0  0  0  0  0  0  0  0  0  0
    8.3235    9.2507   -5.3299 C   0  0  0  0  0  0  0  0  0  0  0  0
    7.6373    8.4150   -4.4449 C   0  0  0  0  0  0  0  0  0  0  0  0
    6.4591    8.6787   -3.6163 C   0  0  0  0  0  0  0  0  0  0  0  0
    5.8092    9.8871   -3.5290 C   0  0  0  0  0  0  0  0  0  0  0  0
    4.6135   10.1332   -2.8266 C   0  0  0  0  0  0  0  0  0  0  0  0
    3.6265   10.4205   -2.3107 N   0  0  0  0  0  0  0  0  0  0  0  0
    6.2495   11.0734   -4.1491 C   0  0  0  0  0  0  0  0  0  0  0  0
    6.5611   12.0814   -4.6037 N   0  0  0  0  0  0  0  0  0  0  0  0
   10.4523    8.8885   -7.0087 C   0  0  0  0  0  0  0  0  0  0  0  0
   10.0018    8.9130   -8.4846 C   0  0  0  0  0  0  0  0  0  0  0  0
   11.2803    8.6809   -9.2572 C   0  0  0  0  0  0  0  0  0  0  0  0
   11.6350    7.4148   -9.0790 C   0  0  0  0  0  0  0  0  0  0  0  0
   10.6021    6.7698   -8.1831 C   0  0  0  0  0  0  0  0  0  0  0  0
    9.3496    7.5324   -8.6339 C   0  0  0  0  0  0  0  0  0  0  0  0
   10.8693    7.3974   -6.7985 C   0  0  0  0  0  0  0  0  0  0  0  0
    4.6407    6.1761   -1.3537 C   0  0  0  0  0  0  0  0  0  0  0  0
    3.5917    6.1952   -0.3978 C   0  0  0  0  0  0  0  0  0  0  0  0
    3.1213    7.2978    0.2481 N   0  0  0  0  0  0  0  0  0  0  0  0
    3.8801    8.4636    0.4811 C   0  0  0  0  0  0  0  0  0  0  0  0
    5.2453    8.4129    0.7484 C   0  0  0  0  0  0  0  0  0  0  0  0
    5.9593    9.5740    0.9662 C   0  0  0  0  0  0  0  0  0  0  0  0
    5.3138   10.8049    0.9407 C   0  0  0  0  0  0  0  0  0  0  0  0
    6.1257   12.3492    1.1913 S   0  0  0  0  0  0  0  0  0  0  0  0
    7.8913   11.9334    1.0985 C   0  0  0  0  0  0  0  0  0  0  0  0
    3.9389   10.8523    0.7230 C   0  0  0  0  0  0  0  0  0  0  0  0
    3.2285    9.6956    0.4928 C   0  0  0  0  0  0  0  0  0  0  0  0
    1.9269    7.1805    1.0056 C   0  0  0  0  0  0  0  0  0  0  0  0
    1.9831    7.3210    2.3871 C   0  0  0  0  0  0  0  0  0  0  0  0
    0.8563    7.1241    3.1582 C   0  0  0  0  0  0  0  0  0  0  0  0
   -0.3465    6.7937    2.5470 C   0  0  0  0  0  0  0  0  0  0  0  0
   -1.8153    6.4253    3.4515 S   0  0  0  0  0  0  0  0  0  0  0  0
   -1.4148    6.8941    5.1587 C   0  0  0  0  0  0  0  0  0  0  0  0
   -0.4203    6.7097    1.1583 C   0  0  0  0  0  0  0  0  0  0  0  0
    0.7098    6.8998    0.3901 C   0  0  0  0  0  0  0  0  0  0  0  0
    3.1171    4.8884   -0.1639 C   0  0  0  0  0  0  0  0  0  0  0  0
    1.7786    4.2375    0.7170 S   0  0  0  0  0  0  0  0  0  0  0  0
    2.2351    2.6130    0.2403 C   0  0  0  0  0  0  0  0  0  0  0  0
    3.3745    2.5752   -0.5455 C   0  0  0  0  0  0  0  0  0  0  0  0
    3.9845    1.4397   -1.0414 N   0  0  0  0  0  0  0  0  0  0  0  0
    5.3543    1.4643   -1.3563 C   0  0  0  0  0  0  0  0  0  0  0  0
    5.8061    0.8294   -2.5120 C   0  0  0  0  0  0  0  0  0  0  0  0
    7.1265    0.9341   -2.8896 C   0  0  0  0  0  0  0  0  0  0  0  0
    8.0174    1.6761   -2.1215 C   0  0  0  0  0  0  0  0  0  0  0  0
    9.6706    1.8778   -2.7117 S   0  0  0  0  0  0  0  0  0  0  0  0
   10.0238    3.5795   -2.1711 C   0  0  0  0  0  0  0  0  0  0  0  0
    7.5918    2.2397   -0.9279 C   0  0  0  0  0  0  0  0  0  0  0  0
    6.2696    2.1318   -0.5476 C   0  0  0  0  0  0  0  0  0  0  0  0
    3.2813    0.2361   -1.2027 C   0  0  0  0  0  0  0  0  0  0  0  0
    3.8262   -0.9521   -0.7252 C   0  0  0  0  0  0  0  0  0  0  0  0
    3.1025   -2.1257   -0.7740 C   0  0  0  0  0  0  0  0  0  0  0  0
    1.8275   -2.1318   -1.3215 C   0  0  0  0  0  0  0  0  0  0  0  0
    0.7870   -3.5609   -1.3161 S   0  0  0  0  0  0  0  0  0  0  0  0
    1.9656   -4.9320   -1.1635 C   0  0  0  0  0  0  0  0  0  0  0  0
    1.3143   -0.9668   -1.8827 C   0  0  0  0  0  0  0  0  0  0  0  0
    2.0393    0.2053   -1.8339 C   0  0  0  0  0  0  0  0  0  0  0  0
    3.8520    3.8924   -0.7928 C   0  0  0  0  0  0  0  0  0  0  0  0
    5.1509    4.5279   -1.7387 S   0  0  0  0  0  0  0  0  0  0  0  0
    1.3128    1.5485    0.5527 C   0  0  0  0  0  0  0  0  0  0  0  0
    1.4410    0.5504    1.4899 C   0  0  0  0  0  0  0  0  0  0  0  0
    2.4346    0.6124    2.4836 N   0  0  0  0  0  0  0  0  0  0  0  0
    3.5266   -0.2823    2.4295 C   0  0  0  0  0  0  0  0  0  0  0  0
    4.8275    0.1873    2.2541 C   0  0  0  0  0  0  0  0  0  0  0  0
    5.8884   -0.6914    2.2276 C   0  0  0  0  0  0  0  0  0  0  0  0
    5.6712   -2.0624    2.3620 C   0  0  0  0  0  0  0  0  0  0  0  0
    7.0957   -3.1026    2.3469 S   0  0  0  0  0  0  0  0  0  0  0  0
    6.4424   -4.7294    2.8205 C   0  0  0  0  0  0  0  0  0  0  0  0
    4.3738   -2.5364    2.4917 C   0  0  0  0  0  0  0  0  0  0  0  0
    3.3145   -1.6504    2.5324 C   0  0  0  0  0  0  0  0  0  0  0  0
    2.3865    1.6857    3.3687 C   0  0  0  0  0  0  0  0  0  0  0  0
    1.2872    2.5543    3.3838 C   0  0  0  0  0  0  0  0  0  0  0  0
    1.2299    3.6171    4.2539 C   0  0  0  0  0  0  0  0  0  0  0  0
    2.2582    3.8511    5.1589 C   0  0  0  0  0  0  0  0  0  0  0  0
    2.1004    5.2823    6.1929 S   0  0  0  0  0  0  0  0  0  0  0  0
    3.3973    5.0655    7.4408 C   0  0  0  0  0  0  0  0  0  0  0  0
    3.3239    2.9665    5.1996 C   0  0  0  0  0  0  0  0  0  0  0  0
    3.3798    1.8950    4.3269 C   0  0  0  0  0  0  0  0  0  0  0  0
    0.3452   -0.3443    1.4316 C   0  0  0  0  0  0  0  0  0  0  0  0
   -0.0724   -1.8424    2.1870 S   0  0  0  0  0  0  0  0  0  0  0  0
   -1.6241   -1.8701    1.3674 C   0  0  0  0  0  0  0  0  0  0  0  0
   -1.7703   -0.7952    0.5024 C   0  0  0  0  0  0  0  0  0  0  0  0
   -2.8609   -0.5190   -0.3151 N   0  0  0  0  0  0  0  0  0  0  0  0
   -3.3211    0.8103   -0.2964 C   0  0  0  0  0  0  0  0  0  0  0  0
   -3.7314    1.4479   -1.4657 C   0  0  0  0  0  0  0  0  0  0  0  0
   -4.1482    2.7597   -1.4257 C   0  0  0  0  0  0  0  0  0  0  0  0
   -4.1497    3.4689   -0.2254 C   0  0  0  0  0  0  0  0  0  0  0  0
   -4.6717    5.1517   -0.2932 S   0  0  0  0  0  0  0  0  0  0  0  0
   -4.9759    5.5762    1.4453 C   0  0  0  0  0  0  0  0  0  0  0  0
   -3.7319    2.8409    0.9398 C   0  0  0  0  0  0  0  0  0  0  0  0
   -3.3357    1.5195    0.9019 C   0  0  0  0  0  0  0  0  0  0  0  0
   -3.5439   -1.5189   -1.0061 C   0  0  0  0  0  0  0  0  0  0  0  0
   -4.9132   -1.4023   -1.2618 C   0  0  0  0  0  0  0  0  0  0  0  0
   -5.6052   -2.4378   -1.8476 C   0  0  0  0  0  0  0  0  0  0  0  0
   -4.9526   -3.6187   -2.1938 C   0  0  0  0  0  0  0  0  0  0  0  0
   -5.9384   -4.9285   -2.8650 S   0  0  0  0  0  0  0  0  0  0  0  0
   -4.8261   -6.3577   -2.9084 C   0  0  0  0  0  0  0  0  0  0  0  0
   -3.5829   -3.7137   -2.0053 C   0  0  0  0  0  0  0  0  0  0  0  0
   -2.8860   -2.6769   -1.4163 C   0  0  0  0  0  0  0  0  0  0  0  0
   -0.6410    0.0531    0.5447 C   0  0  0  0  0  0  0  0  0  0  0  0
   -0.2429    1.5192   -0.2657 S   0  0  0  0  0  0  0  0  0  0  0  0
   -2.6619   -2.8280    1.5934 C   0  0  0  0  0  0  0  0  0  0  0  0
   -2.6881   -4.2128    1.5422 C   0  0  0  0  0  0  0  0  0  0  0  0
   -1.5878   -5.0534    1.5386 N   0  0  0  0  0  0  0  0  0  0  0  0
   -1.7171   -6.2678    0.8100 C   0  0  0  0  0  0  0  0  0  0  0  0
   -1.9477   -7.4661    1.4742 C   0  0  0  0  0  0  0  0  0  0  0  0
   -2.1806   -8.6244    0.7599 C   0  0  0  0  0  0  0  0  0  0  0  0
   -2.1835   -8.5922   -0.6282 C   0  0  0  0  0  0  0  0  0  0  0  0
   -2.5589   -9.9958   -1.6238 S   0  0  0  0  0  0  0  0  0  0  0  0
   -3.4342  -11.0855   -0.4644 C   0  0  0  0  0  0  0  0  0  0  0  0
   -1.8684   -7.4090   -1.2915 C   0  0  0  0  0  0  0  0  0  0  0  0
   -1.6371   -6.2526   -0.5769 C   0  0  0  0  0  0  0  0  0  0  0  0
   -0.5392   -4.9410    2.4431 C   0  0  0  0  0  0  0  0  0  0  0  0
    0.6698   -5.5830    2.1603 C   0  0  0  0  0  0  0  0  0  0  0  0
    1.7478   -5.4458    3.0036 C   0  0  0  0  0  0  0  0  0  0  0  0
    1.6456   -4.6783    4.1609 C   0  0  0  0  0  0  0  0  0  0  0  0
    3.1011   -4.5126    5.1570 S   0  0  0  0  0  0  0  0  0  0  0  0
    2.8152   -2.9477    6.0306 C   0  0  0  0  0  0  0  0  0  0  0  0
    0.4270   -4.1056    4.4908 C   0  0  0  0  0  0  0  0  0  0  0  0
   -0.6548   -4.2334    3.6392 C   0  0  0  0  0  0  0  0  0  0  0  0
   -4.0242   -4.6824    1.4233 C   0  0  0  0  0  0  0  0  0  0  0  0
   -4.6930   -6.2093    0.9877 S   0  0  0  0  0  0  0  0  0  0  0  0
   -6.3245   -5.5241    1.0029 C   0  0  0  0  0  0  0  0  0  0  0  0
   -6.3138   -4.1279    1.2707 C   0  0  0  0  0  0  0  0  0  0  0  0
   -7.3827   -3.2824    1.2325 N   0  0  0  0  0  0  0  0  0  0  0  0
   -7.2299   -1.9590    1.7096 C   0  0  0  0  0  0  0  0  0  0  0  0
   -6.7969   -1.7056    3.0068 C   0  0  0  0  0  0  0  0  0  0  0  0
   -6.5985   -0.4063    3.4374 C   0  0  0  0  0  0  0  0  0  0  0  0
   -6.8248    0.6537    2.5703 C   0  0  0  0  0  0  0  0  0  0  0  0
   -6.5448    2.3409    2.9890 S   0  0  0  0  0  0  0  0  0  0  0  0
   -5.4755    2.2436    4.4546 C   0  0  0  0  0  0  0  0  0  0  0  0
   -7.3201    0.4037    1.2913 C   0  0  0  0  0  0  0  0  0  0  0  0
   -7.5320   -0.8882    0.8690 C   0  0  0  0  0  0  0  0  0  0  0  0
   -8.6203   -3.5324    0.5916 C   0  0  0  0  0  0  0  0  0  0  0  0
   -9.7935   -3.1575    1.2451 C   0  0  0  0  0  0  0  0  0  0  0  0
  -11.0165   -3.3633    0.6476 C   0  0  0  0  0  0  0  0  0  0  0  0
  -11.0988   -3.9549   -0.6122 C   0  0  0  0  0  0  0  0  0  0  0  0
  -12.7167   -4.1960   -1.2590 S   0  0  0  0  0  0  0  0  0  0  0  0
  -12.4547   -5.1512   -2.7796 C   0  0  0  0  0  0  0  0  0  0  0  0
   -9.9279   -4.3064   -1.2750 C   0  0  0  0  0  0  0  0  0  0  0  0
   -8.7001   -4.0831   -0.6835 C   0  0  0  0  0  0  0  0  0  0  0  0
   -4.9945   -3.6914    1.5001 C   0  0  0  0  0  0  0  0  0  0  0  0
   -4.2758   -2.1402    1.7611 S   0  0  0  0  0  0  0  0  0  0  0  0
   -7.4665   -6.2809    0.7745 C   0  0  0  0  0  0  0  0  0  0  0  0
   -7.6109   -7.4999    0.1398 C   0  0  0  0  0  0  0  0  0  0  0  0
   -6.5446   -8.3158   -0.4288 C   0  0  0  0  0  0  0  0  0  0  0  0
   -5.3498   -8.2905   -0.1719 O   0  0  0  0  0  0  0  0  0  0  0  0
   -7.1976   -9.2362   -1.3790 C   0  0  0  0  0  0  0  0  0  0  0  0
   -6.6238  -10.1204   -2.2442 C   0  0  0  0  0  0  0  0  0  0  0  0
   -7.4578  -10.9065   -3.0715 C   0  0  0  0  0  0  0  0  0  0  0  0
   -6.9196  -11.8336   -3.9837 C   0  0  0  0  0  0  0  0  0  0  0  0
   -7.7484  -12.5898   -4.7648 C   0  0  0  0  0  0  0  0  0  0  0  0
   -7.2342  -13.4751   -5.6315 F   0  0  0  0  0  0  0  0  0  0  0  0
   -9.1461  -12.4496   -4.6684 C   0  0  0  0  0  0  0  0  0  0  0  0
   -9.9356  -13.2049   -5.4457 F   0  0  0  0  0  0  0  0  0  0  0  0
   -9.6974  -11.5540   -3.7948 C   0  0  0  0  0  0  0  0  0  0  0  0
   -8.8713  -10.7601   -2.9752 C   0  0  0  0  0  0  0  0  0  0  0  0
   -9.4339   -9.8252   -2.0735 C   0  0  0  0  0  0  0  0  0  0  0  0
   -8.6076   -9.0651   -1.2907 C   0  0  0  0  0  0  0  0  0  0  0  0
   -8.8804   -8.0243   -0.3001 C   0  0  0  0  0  0  0  0  0  0  0  0
  -10.1307   -7.6215    0.1084 C   0  0  0  0  0  0  0  0  0  0  0  0
  -11.3259   -8.0652   -0.4858 C   0  0  0  0  0  0  0  0  0  0  0  0
  -12.3259   -8.3578   -0.9708 N   0  0  0  0  0  0  0  0  0  0  0  0
  -10.3855   -6.7400    1.1765 C   0  0  0  0  0  0  0  0  0  0  0  0
  -10.6686   -6.0651    2.0631 N   0  0  0  0  0  0  0  0  0  0  0  0
    4.5377    8.2076   -1.7944 H   0  0  0  0  0  0  0  0  0  0  0  0
    9.3390    5.4370   -4.7567 H   0  0  0  0  0  0  0  0  0  0  0  0
    8.0481   10.2793   -5.4914 H   0  0  0  0  0  0  0  0  0  0  0  0
   11.1715    9.6698   -6.7702 H   0  0  0  0  0  0  0  0  0  0  0  0
    9.4103    9.7802   -8.7654 H   0  0  0  0  0  0  0  0  0  0  0  0
   11.8069    9.4503   -9.7906 H   0  0  0  0  0  0  0  0  0  0  0  0
   12.5174    6.9152   -9.4338 H   0  0  0  0  0  0  0  0  0  0  0  0
   10.5576    5.6840   -8.1903 H   0  0  0  0  0  0  0  0  0  0  0  0
    8.4824    7.3793   -7.9942 H   0  0  0  0  0  0  0  0  0  0  0  0
    9.0834    7.3126   -9.6665 H   0  0  0  0  0  0  0  0  0  0  0  0
   11.8674    7.1841   -6.4200 H   0  0  0  0  0  0  0  0  0  0  0  0
    5.7546    7.4609    0.7779 H   0  0  0  0  0  0  0  0  0  0  0  0
    7.0165    9.5037    1.1661 H   0  0  0  0  0  0  0  0  0  0  0  0
    8.1873   11.3413    1.9598 H   0  0  0  0  0  0  0  0  0  0  0  0
    8.4152   12.8840    1.1106 H   0  0  0  0  0  0  0  0  0  0  0  0
    8.0964   11.4111    0.1687 H   0  0  0  0  0  0  0  0  0  0  0  0
    3.4405   11.8083    0.7131 H   0  0  0  0  0  0  0  0  0  0  0  0
    2.1683    9.7397    0.2999 H   0  0  0  0  0  0  0  0  0  0  0  0
    2.9235    7.5579    2.8621 H   0  0  0  0  0  0  0  0  0  0  0  0
    0.9414    7.2009    4.2295 H   0  0  0  0  0  0  0  0  0  0  0  0
   -2.3309    6.7507    5.7235 H   0  0  0  0  0  0  0  0  0  0  0  0
   -0.6309    6.2548    5.5562 H   0  0  0  0  0  0  0  0  0  0  0  0
   -1.1222    7.9393    5.1883 H   0  0  0  0  0  0  0  0  0  0  0  0
   -1.3636    6.4774    0.6886 H   0  0  0  0  0  0  0  0  0  0  0  0
    0.6584    6.8199   -0.6851 H   0  0  0  0  0  0  0  0  0  0  0  0
    5.1053    0.2844   -3.1271 H   0  0  0  0  0  0  0  0  0  0  0  0
    7.4732    0.4713   -3.8005 H   0  0  0  0  0  0  0  0  0  0  0  0
    9.1282    4.1783   -2.3134 H   0  0  0  0  0  0  0  0  0  0  0  0
   10.3445    3.5899   -1.1331 H   0  0  0  0  0  0  0  0  0  0  0  0
   10.8303    3.9386   -2.8031 H   0  0  0  0  0  0  0  0  0  0  0  0
    8.2824    2.7739   -0.2951 H   0  0  0  0  0  0  0  0  0  0  0  0
    5.9412    2.5827    0.3772 H   0  0  0  0  0  0  0  0  0  0  0  0
    4.8137   -0.9489   -0.2906 H   0  0  0  0  0  0  0  0  0  0  0  0
    3.5364   -3.0212   -0.3601 H   0  0  0  0  0  0  0  0  0  0  0  0
    2.7501   -4.8131   -1.9049 H   0  0  0  0  0  0  0  0  0  0  0  0
    2.3729   -4.9627   -0.1571 H   0  0  0  0  0  0  0  0  0  0  0  0
    1.3990   -5.8372   -1.3614 H   0  0  0  0  0  0  0  0  0  0  0  0
    0.3425   -0.9871   -2.3529 H   0  0  0  0  0  0  0  0  0  0  0  0
    1.6494    1.1050   -2.2853 H   0  0  0  0  0  0  0  0  0  0  0  0
    4.9983    1.2467    2.1378 H   0  0  0  0  0  0  0  0  0  0  0  0
    6.8964   -0.3283    2.0956 H   0  0  0  0  0  0  0  0  0  0  0  0
    5.8374   -5.1389    2.0164 H   0  0  0  0  0  0  0  0  0  0  0  0
    5.8712   -4.6480    3.7409 H   0  0  0  0  0  0  0  0  0  0  0  0
    7.3134   -5.3578    2.9779 H   0  0  0  0  0  0  0  0  0  0  0  0
    4.1702   -3.5904    2.5806 H   0  0  0  0  0  0  0  0  0  0  0  0
    2.3131   -2.0344    2.6498 H   0  0  0  0  0  0  0  0  0  0  0  0
    0.4543    2.4027    2.7167 H   0  0  0  0  0  0  0  0  0  0  0  0
    0.3765    4.2759    4.2299 H   0  0  0  0  0  0  0  0  0  0  0  0
    3.2774    4.1021    7.9279 H   0  0  0  0  0  0  0  0  0  0  0  0
    3.2534    5.8659    8.1599 H   0  0  0  0  0  0  0  0  0  0  0  0
    4.3773    5.1562    6.9808 H   0  0  0  0  0  0  0  0  0  0  0  0
    4.1276    3.0921    5.9083 H   0  0  0  0  0  0  0  0  0  0  0  0
    4.2103    1.2106    4.4051 H   0  0  0  0  0  0  0  0  0  0  0  0
   -3.7179    0.9083   -2.4007 H   0  0  0  0  0  0  0  0  0  0  0  0
   -4.4677    3.2575   -2.3283 H   0  0  0  0  0  0  0  0  0  0  0  0
   -5.4667    6.5441    1.4266 H   0  0  0  0  0  0  0  0  0  0  0  0
   -5.6342    4.8332    1.8860 H   0  0  0  0  0  0  0  0  0  0  0  0
   -4.0375    5.6535    1.9873 H   0  0  0  0  0  0  0  0  0  0  0  0
   -3.7100    3.3713    1.8776 H   0  0  0  0  0  0  0  0  0  0  0  0
   -3.0272    1.0261    1.8129 H   0  0  0  0  0  0  0  0  0  0  0  0
   -5.4359   -0.5072   -0.9622 H   0  0  0  0  0  0  0  0  0  0  0  0
   -6.6647   -2.3459   -2.0316 H   0  0  0  0  0  0  0  0  0  0  0  0
   -5.4383   -7.1904   -3.2430 H   0  0  0  0  0  0  0  0  0  0  0  0
   -4.4393   -6.5622   -1.9136 H   0  0  0  0  0  0  0  0  0  0  0  0
   -4.0250   -6.1849   -3.6211 H   0  0  0  0  0  0  0  0  0  0  0  0
   -3.0484   -4.5953   -2.3153 H   0  0  0  0  0  0  0  0  0  0  0  0
   -1.8199   -2.7677   -1.2700 H   0  0  0  0  0  0  0  0  0  0  0  0
   -1.9671   -7.4822    2.5540 H   0  0  0  0  0  0  0  0  0  0  0  0
   -2.3775   -9.5379    1.2956 H   0  0  0  0  0  0  0  0  0  0  0  0
   -2.7365  -11.5268    0.2416 H   0  0  0  0  0  0  0  0  0  0  0  0
   -4.2007  -10.5036    0.0394 H   0  0  0  0  0  0  0  0  0  0  0  0
   -3.8846  -11.8699   -1.0652 H   0  0  0  0  0  0  0  0  0  0  0  0
   -1.8214   -7.4090   -2.3704 H   0  0  0  0  0  0  0  0  0  0  0  0
   -1.3936   -5.3277   -1.0760 H   0  0  0  0  0  0  0  0  0  0  0  0
    0.7521   -6.1819    1.2665 H   0  0  0  0  0  0  0  0  0  0  0  0
    2.6850   -5.9321    2.7751 H   0  0  0  0  0  0  0  0  0  0  0  0
    2.1072   -3.0916    6.8419 H   0  0  0  0  0  0  0  0  0  0  0  0
    2.4620   -2.2024    5.3241 H   0  0  0  0  0  0  0  0  0  0  0  0
    3.7784   -2.6511    6.4342 H   0  0  0  0  0  0  0  0  0  0  0  0
    0.3067   -3.5515    5.4081 H   0  0  0  0  0  0  0  0  0  0  0  0
   -1.5990   -3.7839    3.9083 H   0  0  0  0  0  0  0  0  0  0  0  0
   -6.6131   -2.5297    3.6802 H   0  0  0  0  0  0  0  0  0  0  0  0
   -6.2648   -0.2370    4.4483 H   0  0  0  0  0  0  0  0  0  0  0  0
   -4.6458    1.5742    4.2498 H   0  0  0  0  0  0  0  0  0  0  0  0
   -5.1087    3.2517    4.6226 H   0  0  0  0  0  0  0  0  0  0  0  0
   -6.0461    1.9147    5.3181 H   0  0  0  0  0  0  0  0  0  0  0  0
   -7.5193    1.2356    0.6332 H   0  0  0  0  0  0  0  0  0  0  0  0
   -7.9102   -1.0818   -0.1229 H   0  0  0  0  0  0  0  0  0  0  0  0
   -9.7396   -2.7193    2.2297 H   0  0  0  0  0  0  0  0  0  0  0  0
  -11.9254   -3.0882    1.1580 H   0  0  0  0  0  0  0  0  0  0  0  0
  -13.4483   -5.3447   -3.1715 H   0  0  0  0  0  0  0  0  0  0  0  0
  -11.9673   -6.0926   -2.5444 H   0  0  0  0  0  0  0  0  0  0  0  0
  -11.8824   -4.5702   -3.4967 H   0  0  0  0  0  0  0  0  0  0  0  0
   -9.9520   -4.7455   -2.2594 H   0  0  0  0  0  0  0  0  0  0  0  0
   -7.8018   -4.3595   -1.2127 H   0  0  0  0  0  0  0  0  0  0  0  0
   -8.3896   -5.7920    1.0527 H   0  0  0  0  0  0  0  0  0  0  0  0
   -5.5502  -10.2142   -2.3085 H   0  0  0  0  0  0  0  0  0  0  0  0
   -5.8504  -11.9501   -4.0701 H   0  0  0  0  0  0  0  0  0  0  0  0
  -10.7704  -11.4585   -3.7355 H   0  0  0  0  0  0  0  0  0  0  0  0
  -10.5072   -9.7339   -2.0312 H   0  0  0  0  0  0  0  0  0  0  0  0
  1  2  2  0  0  0  0
  2  3  1  0  0  0  0
  3  4  2  0  0  0  0
  3  5  1  0  0  0  0
  5  6  2  0  0  0  0
  6  7  1  0  0  0  0
  7  8  2  0  0  0  0
  8  9  1  0  0  0  0
  9 10  2  0  0  0  0
 10 11  1  0  0  0  0
 11 12  2  0  0  0  0
 12 13  1  0  0  0  0
 13 14  3  0  0  0  0
 12 15  1  0  0  0  0
 15 16  3  0  0  0  0
  8 17  1  0  0  0  0
 17 18  1  0  0  0  0
 18 19  1  0  0  0  0
 19 20  2  0  0  0  0
 20 21  1  0  0  0  0
 21 22  1  0  0  0  0
 21 23  1  0  0  0  0
  1 24  1  0  0  0  0
 24 25  2  0  0  0  0
 25 26  1  0  0  0  0
 26 27  1  0  0  0  0
 27 28  2  0  0  0  0
 28 29  1  0  0  0  0
 29 30  2  0  0  0  0
 30 31  1  0  0  0  0
 31 32  1  0  0  0  0
 30 33  1  0  0  0  0
 33 34  2  0  0  0  0
 26 35  1  0  0  0  0
 35 36  2  0  0  0  0
 36 37  1  0  0  0  0
 37 38  2  0  0  0  0
 38 39  1  0  0  0  0
 39 40  1  0  0  0  0
 38 41  1  0  0  0  0
 41 42  2  0  0  0  0
 25 43  1  0  0  0  0
 43 44  1  0  0  0  0
 44 45  1  0  0  0  0
 45 46  2  0  0  0  0
 46 47  1  0  0  0  0
 47 48  1  0  0  0  0
 48 49  2  0  0  0  0
 49 50  1  0  0  0  0
 50 51  2  0  0  0  0
 51 52  1  0  0  0  0
 52 53  1  0  0  0  0
 51 54  1  0  0  0  0
 54 55  2  0  0  0  0
 47 56  1  0  0  0  0
 56 57  2  0  0  0  0
 57 58  1  0  0  0  0
 58 59  2  0  0  0  0
 59 60  1  0  0  0  0
 60 61  1  0  0  0  0
 59 62  1  0  0  0  0
 62 63  2  0  0  0  0
 46 64  1  0  0  0  0
 64 65  1  0  0  0  0
 45 66  1  0  0  0  0
 66 67  2  0  0  0  0
 67 68  1  0  0  0  0
 68 69  1  0  0  0  0
 69 70  2  0  0  0  0
 70 71  1  0  0  0  0
 71 72  2  0  0  0  0
 72 73  1  0  0  0  0
 73 74  1  0  0  0  0
 72 75  1  0  0  0  0
 75 76  2  0  0  0  0
 68 77  1  0  0  0  0
 77 78  2  0  0  0  0
 78 79  1  0  0  0  0
 79 80  2  0  0  0  0
 80 81  1  0  0  0  0
 81 82  1  0  0  0  0
 80 83  1  0  0  0  0
 83 84  2  0  0  0  0
 67 85  1  0  0  0  0
 85 86  1  0  0  0  0
 86 87  1  0  0  0  0
 87 88  2  0  0  0  0
 88 89  1  0  0  0  0
 89 90  1  0  0  0  0
 90 91  2  0  0  0  0
 91 92  1  0  0  0  0
 92 93  2  0  0  0  0
 93 94  1  0  0  0  0
 94 95  1  0  0  0  0
 93 96  1  0  0  0  0
 96 97  2  0  0  0  0
 89 98  1  0  0  0  0
 98 99  2  0  0  0  0
 99100  1  0  0  0  0
100101  2  0  0  0  0
101102  1  0  0  0  0
102103  1  0  0  0  0
101104  1  0  0  0  0
104105  2  0  0  0  0
 88106  1  0  0  0  0
106107  1  0  0  0  0
 87108  1  0  0  0  0
108109  2  0  0  0  0
109110  1  0  0  0  0
110111  1  0  0  0  0
111112  2  0  0  0  0
112113  1  0  0  0  0
113114  2  0  0  0  0
114115  1  0  0  0  0
115116  1  0  0  0  0
114117  1  0  0  0  0
117118  2  0  0  0  0
110119  1  0  0  0  0
119120  2  0  0  0  0
120121  1  0  0  0  0
121122  2  0  0  0  0
122123  1  0  0  0  0
123124  1  0  0  0  0
122125  1  0  0  0  0
125126  2  0  0  0  0
109127  1  0  0  0  0
127128  1  0  0  0  0
128129  1  0  0  0  0
129130  2  0  0  0  0
130131  1  0  0  0  0
131132  1  0  0  0  0
132133  2  0  0  0  0
133134  1  0  0  0  0
134135  2  0  0  0  0
135136  1  0  0  0  0
136137  1  0  0  0  0
135138  1  0  0  0  0
138139  2  0  0  0  0
131140  1  0  0  0  0
140141  2  0  0  0  0
141142  1  0  0  0  0
142143  2  0  0  0  0
143144  1  0  0  0  0
144145  1  0  0  0  0
143146  1  0  0  0  0
146147  2  0  0  0  0
130148  1  0  0  0  0
148149  1  0  0  0  0
129150  1  0  0  0  0
150151  2  0  0  0  0
151152  1  0  0  0  0
152153  2  0  0  0  0
152154  1  0  0  0  0
154155  2  0  0  0  0
155156  1  0  0  0  0
156157  2  0  0  0  0
157158  1  0  0  0  0
158159  1  0  0  0  0
158160  2  0  0  0  0
160161  1  0  0  0  0
160162  1  0  0  0  0
162163  2  0  0  0  0
163164  1  0  0  0  0
164165  2  0  0  0  0
165166  1  0  0  0  0
166167  2  0  0  0  0
167168  1  0  0  0  0
168169  3  0  0  0  0
167170  1  0  0  0  0
170171  3  0  0  0  0
 11  2  1  0  0  0  0
 23 17  1  0  0  0  0
 65 24  1  0  0  0  0
107 66  1  0  0  0  0
149108  1  0  0  0  0
166151  1  0  0  0  0
 10  5  1  0  0  0  0
 22 18  1  0  0  0  0
 34 27  1  0  0  0  0
 42 35  1  0  0  0  0
 64 43  2  0  0  0  0
 76 69  1  0  0  0  0
 84 77  1  0  0  0  0
106 85  2  0  0  0  0
118111  1  0  0  0  0
126119  1  0  0  0  0
148127  2  0  0  0  0
165154  1  0  0  0  0
 23  7  1  0  0  0  0
 55 48  1  0  0  0  0
 63 56  1  0  0  0  0
 97 90  1  0  0  0  0
105 98  1  0  0  0  0
139132  1  0  0  0  0
147140  1  0  0  0  0
163156  1  0  0  0  0
  1172  1  0  0  0  0
  6173  1  0  0  0  0
  9174  1  0  0  0  0
 17175  1  0  0  0  0
 18176  1  0  0  0  0
 19177  1  0  0  0  0
 20178  1  0  0  0  0
 21179  1  0  0  0  0
 22180  1  0  0  0  0
 22181  1  0  0  0  0
 23182  1  0  0  0  0
 28183  1  0  0  0  0
 29184  1  0  0  0  0
 32185  1  0  0  0  0
 32186  1  0  0  0  0
 32187  1  0  0  0  0
 33188  1  0  0  0  0
 34189  1  0  0  0  0
 36190  1  0  0  0  0
 37191  1  0  0  0  0
 40192  1  0  0  0  0
 40193  1  0  0  0  0
 40194  1  0  0  0  0
 41195  1  0  0  0  0
 42196  1  0  0  0  0
 49197  1  0  0  0  0
 50198  1  0  0  0  0
 53199  1  0  0  0  0
 53200  1  0  0  0  0
 53201  1  0  0  0  0
 54202  1  0  0  0  0
 55203  1  0  0  0  0
 57204  1  0  0  0  0
 58205  1  0  0  0  0
 61206  1  0  0  0  0
 61207  1  0  0  0  0
 61208  1  0  0  0  0
 62209  1  0  0  0  0
 63210  1  0  0  0  0
 70211  1  0  0  0  0
 71212  1  0  0  0  0
 74213  1  0  0  0  0
 74214  1  0  0  0  0
 74215  1  0  0  0  0
 75216  1  0  0  0  0
 76217  1  0  0  0  0
 78218  1  0  0  0  0
 79219  1  0  0  0  0
 82220  1  0  0  0  0
 82221  1  0  0  0  0
 82222  1  0  0  0  0
 83223  1  0  0  0  0
 84224  1  0  0  0  0
 91225  1  0  0  0  0
 92226  1  0  0  0  0
 95227  1  0  0  0  0
 95228  1  0  0  0  0
 95229  1  0  0  0  0
 96230  1  0  0  0  0
 97231  1  0  0  0  0
 99232  1  0  0  0  0
100233  1  0  0  0  0
103234  1  0  0  0  0
103235  1  0  0  0  0
103236  1  0  0  0  0
104237  1  0  0  0  0
105238  1  0  0  0  0
112239  1  0  0  0  0
113240  1  0  0  0  0
116241  1  0  0  0  0
116242  1  0  0  0  0
116243  1  0  0  0  0
117244  1  0  0  0  0
118245  1  0  0  0  0
120246  1  0  0  0  0
121247  1  0  0  0  0
124248  1  0  0  0  0
124249  1  0  0  0  0
124250  1  0  0  0  0
125251  1  0  0  0  0
126252  1  0  0  0  0
133253  1  0  0  0  0
134254  1  0  0  0  0
137255  1  0  0  0  0
137256  1  0  0  0  0
137257  1  0  0  0  0
138258  1  0  0  0  0
139259  1  0  0  0  0
141260  1  0  0  0  0
142261  1  0  0  0  0
145262  1  0  0  0  0
145263  1  0  0  0  0
145264  1  0  0  0  0
146265  1  0  0  0  0
147266  1  0  0  0  0
150267  1  0  0  0  0
155268  1  0  0  0  0
157269  1  0  0  0  0
162270  1  0  0  0  0
164271  1  0  0  0  0
M  END
