
  xtb     02072209353D
 energy: -415.692021346361 gnorm: 0.000504769428 xtb: 6.4.1 (unknown)
256282  0     0  0            999 V2000
   -6.7178   -6.0986    2.7438 C   0  0  0  0  0  0  0  0  0  0  0  0
   -8.0181   -6.3014    2.3411 C   0  0  0  0  0  0  0  0  0  0  0  0
   -8.6595   -5.7083    1.1676 C   0  0  0  0  0  0  0  0  0  0  0  0
   -8.1402   -5.0231    0.3017 O   0  0  0  0  0  0  0  0  0  0  0  0
  -10.0817   -6.0900    1.2374 C   0  0  0  0  0  0  0  0  0  0  0  0
  -11.0879   -5.7505    0.3364 C   0  0  0  0  0  0  0  0  0  0  0  0
  -12.3235   -6.2569    0.6622 C   0  0  0  0  0  0  0  0  0  0  0  0
  -12.5409   -7.0460    1.7984 C   0  0  0  0  0  0  0  0  0  0  0  0
  -11.5553   -7.3916    2.6931 C   0  0  0  0  0  0  0  0  0  0  0  0
  -10.2909   -6.8828    2.3836 C   0  0  0  0  0  0  0  0  0  0  0  0
   -9.0109   -7.0488    3.0744 C   0  0  0  0  0  0  0  0  0  0  0  0
   -8.8125   -7.8004    4.2089 C   0  0  0  0  0  0  0  0  0  0  0  0
   -9.8400   -8.4375    4.9323 C   0  0  0  0  0  0  0  0  0  0  0  0
  -10.6269   -8.9634    5.5838 N   0  0  0  0  0  0  0  0  0  0  0  0
   -7.5655   -8.0740    4.8027 C   0  0  0  0  0  0  0  0  0  0  0  0
   -6.5895   -8.3758    5.3313 N   0  0  0  0  0  0  0  0  0  0  0  0
  -14.0125   -7.2053    1.5055 C   0  0  0  0  0  0  0  0  0  0  0  0
  -14.9807   -6.3427    2.3421 C   0  0  0  0  0  0  0  0  0  0  0  0
  -16.2568   -6.3421    1.5320 C   0  0  0  0  0  0  0  0  0  0  0  0
  -16.0512   -5.5936    0.4558 C   0  0  0  0  0  0  0  0  0  0  0  0
  -14.6325   -5.0758    0.5204 C   0  0  0  0  0  0  0  0  0  0  0  0
  -14.4752   -4.9262    2.0391 C   0  0  0  0  0  0  0  0  0  0  0  0
  -13.7701   -6.3243    0.2381 C   0  0  0  0  0  0  0  0  0  0  0  0
   -5.6804   -5.3898    2.1426 C   0  0  0  0  0  0  0  0  0  0  0  0
   -4.4036   -5.2503    2.7460 C   0  0  0  0  0  0  0  0  0  0  0  0
   -4.0840   -5.5804    4.0369 N   0  0  0  0  0  0  0  0  0  0  0  0
   -2.7414   -5.9244    4.3061 C   0  0  0  0  0  0  0  0  0  0  0  0
   -2.0110   -5.2322    5.2651 C   0  0  0  0  0  0  0  0  0  0  0  0
   -0.6798   -5.5291    5.4812 C   0  0  0  0  0  0  0  0  0  0  0  0
   -0.0665   -6.5418    4.7544 C   0  0  0  0  0  0  0  0  0  0  0  0
    1.6375   -6.9693    4.8938 S   0  0  0  0  0  0  0  0  0  0  0  0
    2.2668   -5.8544    6.1755 C   0  0  0  0  0  0  0  0  0  0  0  0
   -0.8157   -7.2739    3.8326 C   0  0  0  0  0  0  0  0  0  0  0  0
   -2.1350   -6.9597    3.5972 C   0  0  0  0  0  0  0  0  0  0  0  0
   -4.9550   -5.4077    5.1242 C   0  0  0  0  0  0  0  0  0  0  0  0
   -4.8552   -6.2591    6.2249 C   0  0  0  0  0  0  0  0  0  0  0  0
   -5.7057   -6.1066    7.2968 C   0  0  0  0  0  0  0  0  0  0  0  0
   -6.6806   -5.1118    7.2911 C   0  0  0  0  0  0  0  0  0  0  0  0
   -7.7320   -5.0297    8.7046 S   0  0  0  0  0  0  0  0  0  0  0  0
   -9.0437   -3.8772    8.2050 C   0  0  0  0  0  0  0  0  0  0  0  0
   -6.7645   -4.2450    6.2079 C   0  0  0  0  0  0  0  0  0  0  0  0
   -5.9028   -4.3871    5.1392 C   0  0  0  0  0  0  0  0  0  0  0  0
   -3.4849   -4.6865    1.8483 C   0  0  0  0  0  0  0  0  0  0  0  0
   -1.7914   -4.3043    1.9364 S   0  0  0  0  0  0  0  0  0  0  0  0
   -1.8665   -3.5806    0.3396 C   0  0  0  0  0  0  0  0  0  0  0  0
   -3.1206   -3.6992   -0.2370 C   0  0  0  0  0  0  0  0  0  0  0  0
   -3.3440   -3.3474   -1.5745 N   0  0  0  0  0  0  0  0  0  0  0  0
   -4.1453   -2.2597   -1.9105 C   0  0  0  0  0  0  0  0  0  0  0  0
   -4.3312   -1.2181   -1.0007 C   0  0  0  0  0  0  0  0  0  0  0  0
   -5.0736   -0.1135   -1.3498 C   0  0  0  0  0  0  0  0  0  0  0  0
   -5.6613   -0.0247   -2.6087 C   0  0  0  0  0  0  0  0  0  0  0  0
   -6.5376    1.4676   -2.9653 S   0  0  0  0  0  0  0  0  0  0  0  0
   -7.1123    1.2430   -4.6719 C   0  0  0  0  0  0  0  0  0  0  0  0
   -5.5292   -1.0828   -3.4959 C   0  0  0  0  0  0  0  0  0  0  0  0
   -4.7780   -2.1878   -3.1483 C   0  0  0  0  0  0  0  0  0  0  0  0
   -2.6891   -4.1425   -2.5195 C   0  0  0  0  0  0  0  0  0  0  0  0
   -2.5944   -5.5186   -2.3154 C   0  0  0  0  0  0  0  0  0  0  0  0
   -1.9530   -6.3259   -3.2307 C   0  0  0  0  0  0  0  0  0  0  0  0
   -1.3938   -5.7684   -4.3717 C   0  0  0  0  0  0  0  0  0  0  0  0
   -0.5507   -6.7411   -5.5896 S   0  0  0  0  0  0  0  0  0  0  0  0
   -1.3750   -8.3555   -5.4458 C   0  0  0  0  0  0  0  0  0  0  0  0
   -1.4529   -4.3916   -4.5663 C   0  0  0  0  0  0  0  0  0  0  0  0
   -2.0910   -3.5849   -3.6488 C   0  0  0  0  0  0  0  0  0  0  0  0
   -4.0434   -4.3199    0.6266 C   0  0  0  0  0  0  0  0  0  0  0  0
   -5.7282   -4.6838    0.5215 S   0  0  0  0  0  0  0  0  0  0  0  0
   -0.7861   -2.7861   -0.1253 C   0  0  0  0  0  0  0  0  0  0  0  0
    0.5259   -2.8517    0.3183 C   0  0  0  0  0  0  0  0  0  0  0  0
    1.0355   -3.9851    0.9433 N   0  0  0  0  0  0  0  0  0  0  0  0
    0.9257   -5.1852    0.2160 C   0  0  0  0  0  0  0  0  0  0  0  0
    0.6921   -6.3931    0.8665 C   0  0  0  0  0  0  0  0  0  0  0  0
    0.5808   -7.5598    0.1389 C   0  0  0  0  0  0  0  0  0  0  0  0
    0.7136   -7.5395   -1.2452 C   0  0  0  0  0  0  0  0  0  0  0  0
    0.5605   -9.0663   -2.1309 S   0  0  0  0  0  0  0  0  0  0  0  0
    1.7804   -8.8492   -3.4651 C   0  0  0  0  0  0  0  0  0  0  0  0
    0.9392   -6.3365   -1.8991 C   0  0  0  0  0  0  0  0  0  0  0  0
    1.0405   -5.1696   -1.1725 C   0  0  0  0  0  0  0  0  0  0  0  0
    1.9109   -3.8423    2.0169 C   0  0  0  0  0  0  0  0  0  0  0  0
    1.7478   -2.7690    2.8904 C   0  0  0  0  0  0  0  0  0  0  0  0
    2.6334   -2.5592    3.9284 C   0  0  0  0  0  0  0  0  0  0  0  0
    3.6987   -3.4281    4.1160 C   0  0  0  0  0  0  0  0  0  0  0  0
    4.8942   -3.2543    5.4091 S   0  0  0  0  0  0  0  0  0  0  0  0
    4.6463   -1.5506    5.9878 C   0  0  0  0  0  0  0  0  0  0  0  0
    3.8452   -4.5238    3.2690 C   0  0  0  0  0  0  0  0  0  0  0  0
    2.9659   -4.7303    2.2307 C   0  0  0  0  0  0  0  0  0  0  0  0
    1.2561   -1.7087   -0.0673 C   0  0  0  0  0  0  0  0  0  0  0  0
    2.8420   -1.1226    0.2664 S   0  0  0  0  0  0  0  0  0  0  0  0
    2.5258    0.3431   -0.6749 C   0  0  0  0  0  0  0  0  0  0  0  0
    1.2350    0.3646   -1.1977 C   0  0  0  0  0  0  0  0  0  0  0  0
    0.6244    1.3819   -1.9016 N   0  0  0  0  0  0  0  0  0  0  0  0
   -0.3745    1.0556   -2.8379 C   0  0  0  0  0  0  0  0  0  0  0  0
   -0.1850    0.0203   -3.7475 C   0  0  0  0  0  0  0  0  0  0  0  0
   -1.1540   -0.2761   -4.6873 C   0  0  0  0  0  0  0  0  0  0  0  0
   -2.3350    0.4521   -4.7193 C   0  0  0  0  0  0  0  0  0  0  0  0
   -3.6160    0.1916   -5.9027 S   0  0  0  0  0  0  0  0  0  0  0  0
   -3.1464   -1.3443   -6.7483 C   0  0  0  0  0  0  0  0  0  0  0  0
   -2.5350    1.4807   -3.7999 C   0  0  0  0  0  0  0  0  0  0  0  0
   -1.5634    1.7842   -2.8739 C   0  0  0  0  0  0  0  0  0  0  0  0
    0.9791    2.7259   -1.7382 C   0  0  0  0  0  0  0  0  0  0  0  0
    1.3166    3.2410   -0.4891 C   0  0  0  0  0  0  0  0  0  0  0  0
    1.7960    4.5311   -0.3650 C   0  0  0  0  0  0  0  0  0  0  0  0
    1.9239    5.3354   -1.4900 C   0  0  0  0  0  0  0  0  0  0  0  0
    2.6159    6.9549   -1.4907 S   0  0  0  0  0  0  0  0  0  0  0  0
    2.8907    7.3235    0.2609 C   0  0  0  0  0  0  0  0  0  0  0  0
    1.5088    4.8491   -2.7294 C   0  0  0  0  0  0  0  0  0  0  0  0
    1.0430    3.5621   -2.8551 C   0  0  0  0  0  0  0  0  0  0  0  0
    0.5339   -0.8169   -0.8443 C   0  0  0  0  0  0  0  0  0  0  0  0
   -1.0792   -1.3765   -1.1338 S   0  0  0  0  0  0  0  0  0  0  0  0
    3.5958    1.2805   -0.7003 C   0  0  0  0  0  0  0  0  0  0  0  0
    3.8944    2.4187   -1.9920 S   0  0  0  0  0  0  0  0  0  0  0  0
    5.2509    3.0701   -1.1402 C   0  0  0  0  0  0  0  0  0  0  0  0
    6.1452    4.0957   -1.5139 C   0  0  0  0  0  0  0  0  0  0  0  0
    7.3888    4.1375   -0.8758 C   0  0  0  0  0  0  0  0  0  0  0  0
    7.7259    3.2727    0.1040 O   0  0  0  0  0  0  0  0  0  0  0  0
    6.6184    2.8535    0.9310 C   0  0  0  0  0  0  0  0  0  0  0  0
    6.1765    4.0369    1.7833 C   0  0  0  0  0  0  0  0  0  0  0  0
    4.8479    4.2433    2.1271 C   0  0  0  0  0  0  0  0  0  0  0  0
    4.4918    5.3255    2.9127 C   0  0  0  0  0  0  0  0  0  0  0  0
    5.4465    6.2262    3.3658 C   0  0  0  0  0  0  0  0  0  0  0  0
    5.0621    7.4175    4.1948 C   0  0  0  0  0  0  0  0  0  0  0  0
    4.7600    8.6229    3.3024 C   0  0  0  0  0  0  0  0  0  0  0  0
    6.7720    6.0173    3.0088 C   0  0  0  0  0  0  0  0  0  0  0  0
    7.1354    4.9341    2.2342 C   0  0  0  0  0  0  0  0  0  0  0  0
    7.0990    1.6822    1.7661 C   0  0  0  0  0  0  0  0  0  0  0  0
    7.8031    0.6592    1.1451 C   0  0  0  0  0  0  0  0  0  0  0  0
    8.1843   -0.4609    1.8585 C   0  0  0  0  0  0  0  0  0  0  0  0
    7.8654   -0.5922    3.2041 C   0  0  0  0  0  0  0  0  0  0  0  0
    8.2952   -1.7993    3.9861 C   0  0  0  0  0  0  0  0  0  0  0  0
    9.6044   -1.5217    4.7267 C   0  0  0  0  0  0  0  0  0  0  0  0
    7.1736    0.4423    3.8205 C   0  0  0  0  0  0  0  0  0  0  0  0
    6.7895    1.5672    3.1135 C   0  0  0  0  0  0  0  0  0  0  0  0
    5.4899    2.3898    0.0427 C   0  0  0  0  0  0  0  0  0  0  0  0
    4.5644    1.3798    0.2820 C   0  0  0  0  0  0  0  0  0  0  0  0
    8.2364    5.1045   -1.4101 C   0  0  0  0  0  0  0  0  0  0  0  0
    7.6258    5.8797   -2.3794 C   0  0  0  0  0  0  0  0  0  0  0  0
    5.9873    5.3411   -2.6870 S   0  0  0  0  0  0  0  0  0  0  0  0
    8.2170    6.9365   -3.1079 C   0  0  0  0  0  0  0  0  0  0  0  0
    7.6041    7.9974   -3.6995 C   0  0  0  0  0  0  0  0  0  0  0  0
    8.2859    8.7467   -4.7895 C   0  0  0  0  0  0  0  0  0  0  0  0
    9.4510    8.6589   -5.1073 O   0  0  0  0  0  0  0  0  0  0  0  0
    7.2317    9.5671   -5.4167 C   0  0  0  0  0  0  0  0  0  0  0  0
    7.3324   10.3373   -6.5738 C   0  0  0  0  0  0  0  0  0  0  0  0
    6.1643   10.9682   -6.9289 C   0  0  0  0  0  0  0  0  0  0  0  0
    4.9746   10.8352   -6.1997 C   0  0  0  0  0  0  0  0  0  0  0  0
    4.8599   10.0819   -5.0554 C   0  0  0  0  0  0  0  0  0  0  0  0
    6.0423    9.4469   -4.6685 C   0  0  0  0  0  0  0  0  0  0  0  0
    6.3050    8.6002   -3.5075 C   0  0  0  0  0  0  0  0  0  0  0  0
    5.5945    8.6440   -2.3353 C   0  0  0  0  0  0  0  0  0  0  0  0
    4.4850    9.4884   -2.1288 C   0  0  0  0  0  0  0  0  0  0  0  0
    3.6090   10.1878   -1.8783 N   0  0  0  0  0  0  0  0  0  0  0  0
    5.9744    7.9916   -1.1457 C   0  0  0  0  0  0  0  0  0  0  0  0
    6.2432    7.5264   -0.1299 N   0  0  0  0  0  0  0  0  0  0  0  0
    4.2061   11.7333   -7.1370 C   0  0  0  0  0  0  0  0  0  0  0  0
    3.9371   13.1710   -6.6444 C   0  0  0  0  0  0  0  0  0  0  0  0
    3.6194   13.9338   -7.9101 C   0  0  0  0  0  0  0  0  0  0  0  0
    4.7474   14.0645   -8.5965 C   0  0  0  0  0  0  0  0  0  0  0  0
    5.8466   13.3916   -7.8063 C   0  0  0  0  0  0  0  0  0  0  0  0
    5.3602   13.6793   -6.3801 C   0  0  0  0  0  0  0  0  0  0  0  0
    5.5337   11.8865   -7.9464 C   0  0  0  0  0  0  0  0  0  0  0  0
   -6.4405   -6.5588    3.6832 H   0  0  0  0  0  0  0  0  0  0  0  0
  -10.8735   -5.1458   -0.5309 H   0  0  0  0  0  0  0  0  0  0  0  0
  -11.7394   -8.0058    3.5586 H   0  0  0  0  0  0  0  0  0  0  0  0
  -14.3615   -8.2274    1.3705 H   0  0  0  0  0  0  0  0  0  0  0  0
  -15.0633   -6.6334    3.3859 H   0  0  0  0  0  0  0  0  0  0  0  0
  -17.1302   -6.9130    1.7877 H   0  0  0  0  0  0  0  0  0  0  0  0
  -16.7185   -5.4144   -0.3669 H   0  0  0  0  0  0  0  0  0  0  0  0
  -14.3984   -4.2113   -0.0951 H   0  0  0  0  0  0  0  0  0  0  0  0
  -15.1311   -4.1588    2.4473 H   0  0  0  0  0  0  0  0  0  0  0  0
  -13.4526   -4.7416    2.3628 H   0  0  0  0  0  0  0  0  0  0  0  0
  -13.9588   -6.7593   -0.7417 H   0  0  0  0  0  0  0  0  0  0  0  0
   -2.4869   -4.4445    5.8302 H   0  0  0  0  0  0  0  0  0  0  0  0
   -0.1317   -4.9594    6.2134 H   0  0  0  0  0  0  0  0  0  0  0  0
    3.3280   -6.0678    6.2572 H   0  0  0  0  0  0  0  0  0  0  0  0
    1.7726   -6.0595    7.1207 H   0  0  0  0  0  0  0  0  0  0  0  0
    2.1274   -4.8238    5.8641 H   0  0  0  0  0  0  0  0  0  0  0  0
   -0.3481   -8.0926    3.3079 H   0  0  0  0  0  0  0  0  0  0  0  0
   -2.7079   -7.5150    2.8699 H   0  0  0  0  0  0  0  0  0  0  0  0
   -4.1222   -7.0499    6.2242 H   0  0  0  0  0  0  0  0  0  0  0  0
   -5.6407   -6.7744    8.1409 H   0  0  0  0  0  0  0  0  0  0  0  0
   -9.4933   -4.2141    7.2756 H   0  0  0  0  0  0  0  0  0  0  0  0
   -8.6477   -2.8700    8.1115 H   0  0  0  0  0  0  0  0  0  0  0  0
   -9.7788   -3.9089    9.0031 H   0  0  0  0  0  0  0  0  0  0  0  0
   -7.4892   -3.4469    6.1874 H   0  0  0  0  0  0  0  0  0  0  0  0
   -5.9714   -3.7037    4.3055 H   0  0  0  0  0  0  0  0  0  0  0  0
   -3.8751   -1.2748   -0.0235 H   0  0  0  0  0  0  0  0  0  0  0  0
   -5.1990    0.7010   -0.6530 H   0  0  0  0  0  0  0  0  0  0  0  0
   -7.6232    2.1651   -4.9311 H   0  0  0  0  0  0  0  0  0  0  0  0
   -6.2613    1.0919   -5.3298 H   0  0  0  0  0  0  0  0  0  0  0  0
   -7.8079    0.4103   -4.7214 H   0  0  0  0  0  0  0  0  0  0  0  0
   -6.0044   -1.0614   -4.4627 H   0  0  0  0  0  0  0  0  0  0  0  0
   -4.6878   -3.0099   -3.8429 H   0  0  0  0  0  0  0  0  0  0  0  0
   -3.0351   -5.9619   -1.4354 H   0  0  0  0  0  0  0  0  0  0  0  0
   -1.8962   -7.3864   -3.0454 H   0  0  0  0  0  0  0  0  0  0  0  0
   -1.0725   -8.9215   -6.3214 H   0  0  0  0  0  0  0  0  0  0  0  0
   -1.0572   -8.8729   -4.5451 H   0  0  0  0  0  0  0  0  0  0  0  0
   -2.4501   -8.2054   -5.4498 H   0  0  0  0  0  0  0  0  0  0  0  0
   -0.9854   -3.9663   -5.4423 H   0  0  0  0  0  0  0  0  0  0  0  0
   -2.1254   -2.5139   -3.7824 H   0  0  0  0  0  0  0  0  0  0  0  0
    0.6051   -6.4049    1.9409 H   0  0  0  0  0  0  0  0  0  0  0  0
    0.3965   -8.4986    0.6380 H   0  0  0  0  0  0  0  0  0  0  0  0
    1.9243   -9.8332   -3.9001 H   0  0  0  0  0  0  0  0  0  0  0  0
    1.4127   -8.1621   -4.2217 H   0  0  0  0  0  0  0  0  0  0  0  0
    2.7104   -8.4902   -3.0359 H   0  0  0  0  0  0  0  0  0  0  0  0
    1.0449   -6.2993   -2.9712 H   0  0  0  0  0  0  0  0  0  0  0  0
    1.2216   -4.2387   -1.6892 H   0  0  0  0  0  0  0  0  0  0  0  0
    0.9152   -2.0947    2.7540 H   0  0  0  0  0  0  0  0  0  0  0  0
    2.4774   -1.7171    4.5840 H   0  0  0  0  0  0  0  0  0  0  0  0
    5.4712   -1.3461    6.6636 H   0  0  0  0  0  0  0  0  0  0  0  0
    3.7070   -1.4665    6.5271 H   0  0  0  0  0  0  0  0  0  0  0  0
    4.6787   -0.8726    5.1398 H   0  0  0  0  0  0  0  0  0  0  0  0
    4.6669   -5.2048    3.4278 H   0  0  0  0  0  0  0  0  0  0  0  0
    3.1056   -5.5708    1.5692 H   0  0  0  0  0  0  0  0  0  0  0  0
    0.7362   -0.5441   -3.7321 H   0  0  0  0  0  0  0  0  0  0  0  0
   -0.9628   -1.0623   -5.4001 H   0  0  0  0  0  0  0  0  0  0  0  0
   -2.2341   -1.1952   -7.3184 H   0  0  0  0  0  0  0  0  0  0  0  0
   -3.9659   -1.5667   -7.4249 H   0  0  0  0  0  0  0  0  0  0  0  0
   -3.0380   -2.1456   -6.0236 H   0  0  0  0  0  0  0  0  0  0  0  0
   -3.4590    2.0371   -3.8221 H   0  0  0  0  0  0  0  0  0  0  0  0
   -1.7164    2.5872   -2.1691 H   0  0  0  0  0  0  0  0  0  0  0  0
    1.2323    2.6150    0.3874 H   0  0  0  0  0  0  0  0  0  0  0  0
    2.0835    4.8918    0.6093 H   0  0  0  0  0  0  0  0  0  0  0  0
    3.1908    8.3670    0.2862 H   0  0  0  0  0  0  0  0  0  0  0  0
    1.9632    7.1928    0.8108 H   0  0  0  0  0  0  0  0  0  0  0  0
    3.6892    6.7002    0.6565 H   0  0  0  0  0  0  0  0  0  0  0  0
    1.5878    5.4889   -3.5942 H   0  0  0  0  0  0  0  0  0  0  0  0
    0.7561    3.1799   -3.8228 H   0  0  0  0  0  0  0  0  0  0  0  0
    4.0892    3.5517    1.7883 H   0  0  0  0  0  0  0  0  0  0  0  0
    3.4544    5.4685    3.1846 H   0  0  0  0  0  0  0  0  0  0  0  0
    4.1825    7.1853    4.7994 H   0  0  0  0  0  0  0  0  0  0  0  0
    5.8829    7.6691    4.8695 H   0  0  0  0  0  0  0  0  0  0  0  0
    4.5908    9.5108    3.9072 H   0  0  0  0  0  0  0  0  0  0  0  0
    3.8725    8.4378    2.7025 H   0  0  0  0  0  0  0  0  0  0  0  0
    5.5919    8.8102    2.6277 H   0  0  0  0  0  0  0  0  0  0  0  0
    7.5299    6.7084    3.3471 H   0  0  0  0  0  0  0  0  0  0  0  0
    8.1710    4.7750    1.9737 H   0  0  0  0  0  0  0  0  0  0  0  0
    8.0509    0.7480    0.0980 H   0  0  0  0  0  0  0  0  0  0  0  0
    8.7291   -1.2503    1.3608 H   0  0  0  0  0  0  0  0  0  0  0  0
    8.4353   -2.6454    3.3111 H   0  0  0  0  0  0  0  0  0  0  0  0
    7.5233   -2.0697    4.7091 H   0  0  0  0  0  0  0  0  0  0  0  0
    9.9090   -2.3948    5.2989 H   0  0  0  0  0  0  0  0  0  0  0  0
    9.4847   -0.6829    5.4089 H   0  0  0  0  0  0  0  0  0  0  0  0
   10.3939   -1.2758    4.0200 H   0  0  0  0  0  0  0  0  0  0  0  0
    6.9306    0.3680    4.8712 H   0  0  0  0  0  0  0  0  0  0  0  0
    6.2447    2.3556    3.6120 H   0  0  0  0  0  0  0  0  0  0  0  0
    4.5685    0.7583    1.1602 H   0  0  0  0  0  0  0  0  0  0  0  0
    9.2420    5.2706   -1.0713 H   0  0  0  0  0  0  0  0  0  0  0  0
    9.2867    6.8569   -3.2774 H   0  0  0  0  0  0  0  0  0  0  0  0
    8.2622   10.4061   -7.1163 H   0  0  0  0  0  0  0  0  0  0  0  0
    3.9390    9.9676   -4.5068 H   0  0  0  0  0  0  0  0  0  0  0  0
    3.3457   11.2828   -7.6282 H   0  0  0  0  0  0  0  0  0  0  0  0
    3.2192   13.2462   -5.8323 H   0  0  0  0  0  0  0  0  0  0  0  0
    2.6298   14.2413   -8.1933 H   0  0  0  0  0  0  0  0  0  0  0  0
    4.8884   14.5026   -9.5672 H   0  0  0  0  0  0  0  0  0  0  0  0
    6.8676   13.6695   -8.0538 H   0  0  0  0  0  0  0  0  0  0  0  0
    5.8922   13.1261   -5.6086 H   0  0  0  0  0  0  0  0  0  0  0  0
    5.3805   14.7423   -6.1454 H   0  0  0  0  0  0  0  0  0  0  0  0
    5.5581   11.5414   -8.9785 H   0  0  0  0  0  0  0  0  0  0  0  0
  1  2  2  0  0  0  0
  2  3  1  0  0  0  0
  3  4  2  0  0  0  0
  3  5  1  0  0  0  0
  5  6  2  0  0  0  0
  6  7  1  0  0  0  0
  7  8  2  0  0  0  0
  8  9  1  0  0  0  0
  9 10  2  0  0  0  0
 10 11  1  0  0  0  0
 11 12  2  0  0  0  0
 12 13  1  0  0  0  0
 13 14  3  0  0  0  0
 12 15  1  0  0  0  0
 15 16  3  0  0  0  0
  8 17  1  0  0  0  0
 17 18  1  0  0  0  0
 18 19  1  0  0  0  0
 19 20  2  0  0  0  0
 20 21  1  0  0  0  0
 21 22  1  0  0  0  0
 21 23  1  0  0  0  0
  1 24  1  0  0  0  0
 24 25  2  0  0  0  0
 25 26  1  0  0  0  0
 26 27  1  0  0  0  0
 27 28  2  0  0  0  0
 28 29  1  0  0  0  0
 29 30  2  0  0  0  0
 30 31  1  0  0  0  0
 31 32  1  0  0  0  0
 30 33  1  0  0  0  0
 33 34  2  0  0  0  0
 26 35  1  0  0  0  0
 35 36  2  0  0  0  0
 36 37  1  0  0  0  0
 37 38  2  0  0  0  0
 38 39  1  0  0  0  0
 39 40  1  0  0  0  0
 38 41  1  0  0  0  0
 41 42  2  0  0  0  0
 25 43  1  0  0  0  0
 43 44  1  0  0  0  0
 44 45  1  0  0  0  0
 45 46  2  0  0  0  0
 46 47  1  0  0  0  0
 47 48  1  0  0  0  0
 48 49  2  0  0  0  0
 49 50  1  0  0  0  0
 50 51  2  0  0  0  0
 51 52  1  0  0  0  0
 52 53  1  0  0  0  0
 51 54  1  0  0  0  0
 54 55  2  0  0  0  0
 47 56  1  0  0  0  0
 56 57  2  0  0  0  0
 57 58  1  0  0  0  0
 58 59  2  0  0  0  0
 59 60  1  0  0  0  0
 60 61  1  0  0  0  0
 59 62  1  0  0  0  0
 62 63  2  0  0  0  0
 46 64  1  0  0  0  0
 64 65  1  0  0  0  0
 45 66  1  0  0  0  0
 66 67  2  0  0  0  0
 67 68  1  0  0  0  0
 68 69  1  0  0  0  0
 69 70  2  0  0  0  0
 70 71  1  0  0  0  0
 71 72  2  0  0  0  0
 72 73  1  0  0  0  0
 73 74  1  0  0  0  0
 72 75  1  0  0  0  0
 75 76  2  0  0  0  0
 68 77  1  0  0  0  0
 77 78  2  0  0  0  0
 78 79  1  0  0  0  0
 79 80  2  0  0  0  0
 80 81  1  0  0  0  0
 81 82  1  0  0  0  0
 80 83  1  0  0  0  0
 83 84  2  0  0  0  0
 67 85  1  0  0  0  0
 85 86  1  0  0  0  0
 86 87  1  0  0  0  0
 87 88  2  0  0  0  0
 88 89  1  0  0  0  0
 89 90  1  0  0  0  0
 90 91  2  0  0  0  0
 91 92  1  0  0  0  0
 92 93  2  0  0  0  0
 93 94  1  0  0  0  0
 94 95  1  0  0  0  0
 93 96  1  0  0  0  0
 96 97  2  0  0  0  0
 89 98  1  0  0  0  0
 98 99  2  0  0  0  0
 99100  1  0  0  0  0
100101  2  0  0  0  0
101102  1  0  0  0  0
102103  1  0  0  0  0
101104  1  0  0  0  0
104105  2  0  0  0  0
 88106  1  0  0  0  0
106107  1  0  0  0  0
 87108  1  0  0  0  0
108109  1  0  0  0  0
109110  1  0  0  0  0
110111  1  0  0  0  0
111112  2  0  0  0  0
112113  1  0  0  0  0
113114  1  0  0  0  0
114115  1  0  0  0  0
115116  2  0  0  0  0
116117  1  0  0  0  0
117118  2  0  0  0  0
118119  1  0  0  0  0
119120  1  0  0  0  0
118121  1  0  0  0  0
121122  2  0  0  0  0
114123  1  0  0  0  0
123124  2  0  0  0  0
124125  1  0  0  0  0
125126  2  0  0  0  0
126127  1  0  0  0  0
127128  1  0  0  0  0
126129  1  0  0  0  0
129130  2  0  0  0  0
114131  1  0  0  0  0
131132  1  0  0  0  0
112133  1  0  0  0  0
133134  2  0  0  0  0
134135  1  0  0  0  0
134136  1  0  0  0  0
136137  2  0  0  0  0
137138  1  0  0  0  0
138139  2  0  0  0  0
138140  1  0  0  0  0
140141  2  0  0  0  0
141142  1  0  0  0  0
142143  2  0  0  0  0
143144  1  0  0  0  0
144145  2  0  0  0  0
145146  1  0  0  0  0
146147  2  0  0  0  0
147148  1  0  0  0  0
148149  3  0  0  0  0
147150  1  0  0  0  0
150151  3  0  0  0  0
143152  1  0  0  0  0
152153  1  0  0  0  0
153154  1  0  0  0  0
154155  2  0  0  0  0
155156  1  0  0  0  0
156157  1  0  0  0  0
156158  1  0  0  0  0
 11  2  1  0  0  0  0
 23 17  1  0  0  0  0
 65 24  1  0  0  0  0
107 66  1  0  0  0  0
132108  2  0  0  0  0
146137  1  0  0  0  0
158152  1  0  0  0  0
 10  5  1  0  0  0  0
 22 18  1  0  0  0  0
 34 27  1  0  0  0  0
 42 35  1  0  0  0  0
 64 43  2  0  0  0  0
 76 69  1  0  0  0  0
 84 77  1  0  0  0  0
106 85  2  0  0  0  0
131110  2  0  0  0  0
145140  1  0  0  0  0
157153  1  0  0  0  0
 23  7  1  0  0  0  0
 55 48  1  0  0  0  0
 63 56  1  0  0  0  0
 97 90  1  0  0  0  0
105 98  1  0  0  0  0
135111  1  0  0  0  0
158142  1  0  0  0  0
122115  1  0  0  0  0
130123  1  0  0  0  0
  1159  1  0  0  0  0
  6160  1  0  0  0  0
  9161  1  0  0  0  0
 17162  1  0  0  0  0
 18163  1  0  0  0  0
 19164  1  0  0  0  0
 20165  1  0  0  0  0
 21166  1  0  0  0  0
 22167  1  0  0  0  0
 22168  1  0  0  0  0
 23169  1  0  0  0  0
 28170  1  0  0  0  0
 29171  1  0  0  0  0
 32172  1  0  0  0  0
 32173  1  0  0  0  0
 32174  1  0  0  0  0
 33175  1  0  0  0  0
 34176  1  0  0  0  0
 36177  1  0  0  0  0
 37178  1  0  0  0  0
 40179  1  0  0  0  0
 40180  1  0  0  0  0
 40181  1  0  0  0  0
 41182  1  0  0  0  0
 42183  1  0  0  0  0
 49184  1  0  0  0  0
 50185  1  0  0  0  0
 53186  1  0  0  0  0
 53187  1  0  0  0  0
 53188  1  0  0  0  0
 54189  1  0  0  0  0
 55190  1  0  0  0  0
 57191  1  0  0  0  0
 58192  1  0  0  0  0
 61193  1  0  0  0  0
 61194  1  0  0  0  0
 61195  1  0  0  0  0
 62196  1  0  0  0  0
 63197  1  0  0  0  0
 70198  1  0  0  0  0
 71199  1  0  0  0  0
 74200  1  0  0  0  0
 74201  1  0  0  0  0
 74202  1  0  0  0  0
 75203  1  0  0  0  0
 76204  1  0  0  0  0
 78205  1  0  0  0  0
 79206  1  0  0  0  0
 82207  1  0  0  0  0
 82208  1  0  0  0  0
 82209  1  0  0  0  0
 83210  1  0  0  0  0
 84211  1  0  0  0  0
 91212  1  0  0  0  0
 92213  1  0  0  0  0
 95214  1  0  0  0  0
 95215  1  0  0  0  0
 95216  1  0  0  0  0
 96217  1  0  0  0  0
 97218  1  0  0  0  0
 99219  1  0  0  0  0
100220  1  0  0  0  0
103221  1  0  0  0  0
103222  1  0  0  0  0
103223  1  0  0  0  0
104224  1  0  0  0  0
105225  1  0  0  0  0
116226  1  0  0  0  0
117227  1  0  0  0  0
119228  1  0  0  0  0
119229  1  0  0  0  0
120230  1  0  0  0  0
120231  1  0  0  0  0
120232  1  0  0  0  0
121233  1  0  0  0  0
122234  1  0  0  0  0
124235  1  0  0  0  0
125236  1  0  0  0  0
127237  1  0  0  0  0
127238  1  0  0  0  0
128239  1  0  0  0  0
128240  1  0  0  0  0
128241  1  0  0  0  0
129242  1  0  0  0  0
130243  1  0  0  0  0
132244  1  0  0  0  0
133245  1  0  0  0  0
136246  1  0  0  0  0
141247  1  0  0  0  0
144248  1  0  0  0  0
152249  1  0  0  0  0
153250  1  0  0  0  0
154251  1  0  0  0  0
155252  1  0  0  0  0
156253  1  0  0  0  0
157254  1  0  0  0  0
157255  1  0  0  0  0
158256  1  0  0  0  0
M  END
