265

C         -0.33810       -0.45650       -8.85560
C         -0.54160        0.78920       -9.40650
C         -1.06700        1.95230       -8.67220
O         -1.39300        2.00140       -7.49910
C         -1.23910        3.01780       -9.68200
C         -1.66880        4.32320       -9.46370
C         -1.68580        5.10430      -10.59530
C         -1.33270        4.61650      -11.85920
C         -0.91730        3.32690      -12.09110
C         -0.86730        2.52560      -10.94830
C         -0.41260        1.14730      -10.79190
C          0.20640        0.39060      -11.75750
C          0.39980        0.79310      -13.09140
N          0.61550        1.05610      -14.18940
C          0.82380       -0.85180      -11.51230
N          1.40200       -1.83620      -11.37980
C         -1.58270        5.94390      -12.53170
C         -0.33410        6.77100      -12.90290
C         -0.86490        8.17590      -13.07260
C         -1.17610        8.63780      -11.86830
C         -0.86380        7.55100      -10.86470
C          0.35590        6.91110      -11.54060
C         -1.95910        6.49260      -11.11800
C         -0.11470       -0.72880       -7.50440
C          0.35660        0.08060       -6.44960
N          0.98040        1.28800       -6.54610
C          1.53260        1.81570       -7.72180
C          2.19800        1.02990       -8.65900
C          2.67160        1.58140       -9.83420
C          2.48940        2.93460      -10.09540
S          2.94400        3.73370      -11.59500
C          3.71730        2.42880      -12.58870
C          1.89040        3.73800       -9.12480
C          1.42020        3.18920       -7.95540
C          1.17460        2.05900       -5.37360
C          2.47010        2.42160       -5.01130
C          2.68820        3.10350       -3.83580
C          1.61900        3.43410       -3.00590
S          2.01250        4.23160       -1.47910
C          0.63330        3.74290       -0.40240
C          0.32130        3.14210       -3.40540
C          0.09970        2.45700       -4.58670
C          0.21690       -0.61180       -5.21780
S          0.40750       -0.17330       -3.55910
C         -0.09560       -1.77860       -3.03230
C         -0.35510       -2.61550       -4.09260
N         -0.65030       -3.96960       -4.02910
C          0.03620       -4.82550       -4.90290
C          1.31720       -4.49940       -5.34920
C          1.99640       -5.34220       -6.19860
C          1.43080       -6.54750       -6.60180
S          2.41760       -7.58310       -7.63770
C          1.58860       -9.19340       -7.52870
C          0.14620       -6.86570       -6.18350
C         -0.54670       -6.00650       -5.35430
C         -1.51840       -4.46570       -3.05320
C         -1.29950       -5.71070       -2.46720
C         -2.16270       -6.20110       -1.51060
C         -3.26260       -5.45230       -1.11410
S         -4.42640       -6.03970        0.08370
C         -3.43500       -7.14950        1.12090
C         -3.49550       -4.21450       -1.70500
C         -2.63570       -3.72740       -2.66600
C         -0.20120       -1.92710       -5.32860
S         -0.48230       -2.37830       -6.96600
C         -0.22110       -1.88760       -1.59390
C          0.83000       -1.98260       -0.71470
N          2.14010       -2.29190       -1.09170
C          2.40850       -3.53000       -1.67650
C          3.38810       -3.67370       -2.65610
C          3.63750       -4.90450       -3.23300
C          2.91440       -6.01960       -2.83410
S          3.10030       -7.63390       -3.52410
C          4.57250       -7.50460       -4.57500
C          1.94960       -5.88450       -1.83940
C          1.68720       -4.65610       -1.27750
C          3.12460       -1.33360       -0.83770
C          2.79930        0.02240       -0.87320
C          3.75200        0.98670       -0.61820
C          5.05720        0.60950       -0.33810
S          6.33670        1.79370       -0.02510
C          5.82180        3.19400       -1.06570
C          5.38720       -0.74070       -0.27930
C          4.43140       -1.70410       -0.51910
C          0.44560       -1.62440        0.60190
S          1.30280       -1.42650        2.08310
C         -0.13340       -0.74000        2.84010
C         -1.21040       -0.68020        1.98110
N         -2.44050       -0.11230        2.28860
C         -2.46160        1.15510        2.90260
C         -1.67430        2.19130        2.40250
C         -1.68940        3.43240        3.00160
C         -2.48650        3.66560        4.11970
S         -2.40060        5.27860        4.83630
C         -3.79870        5.32900        5.98910
C         -3.28680        2.64260        4.61110
C         -3.28070        1.40410        3.99960
C         -3.63060       -0.68660        1.83630
C         -4.76640        0.10430        1.64670
C         -5.95780       -0.46360        1.25750
C         -6.04630       -1.83440        1.02520
S         -7.64310       -2.45280        0.58200
C         -7.38220       -4.22720        0.31840
C         -4.91230       -2.62030        1.17060
C         -3.72020       -2.05250        1.57900
C         -0.87250       -1.22080        0.71000
S         -1.70440       -1.36350       -0.79900
C          0.04070       -0.18380        4.16430
C          0.02770       -0.82970        5.38100
N         -0.24550       -2.17970        5.56670
C          0.50340       -2.85450        6.54330
C          1.86490       -2.59200        6.66690
C          2.61620       -3.20040        7.65320
C          2.01620       -4.09140        8.53100
S          2.87150       -4.92890        9.82890
C          4.47410       -4.07860        9.90620
C          0.65920       -4.37510        8.39590
C         -0.09120       -3.76310        7.41820
C         -1.41500       -2.74940        5.05240
C         -1.42750       -4.08510        4.65010
C         -2.60260       -4.67180        4.23600
C         -3.78800       -3.94000        4.20470
S         -5.24430       -4.80330        3.70330
C         -6.59440       -3.67610        4.14670
C         -3.77070       -2.59850        4.56030
C         -2.59360       -2.01340        4.98410
C          0.35010        0.05500        6.44450
S          0.36890       -0.09070        8.16640
C          0.72590        1.63580        8.31800
C          0.78190        2.27480        7.05880
N          0.95240        3.61880        6.82350
C          1.68050        3.96410        5.66760
C          1.20500        4.90690        4.75850
C          1.92530        5.18640        3.61830
C          3.13220        4.53790        3.36500
S          3.97790        4.94690        1.87190
C          5.70440        4.53270        2.26090
C          3.61030        3.60000        4.27120
C          2.89070        3.32210        5.41510
C          0.24860        4.60160        7.53080
C          0.76040        5.89550        7.63040
C          0.05820        6.86860        8.30430
C         -1.15800        6.57100        8.91350
S         -1.97510        7.89440        9.74750
C         -3.22520        7.05550       10.76520
C         -1.67120        5.28400        8.81810
C         -0.97880        4.31300        8.12330
C          0.61590        1.34570        6.01870
S          0.52360        1.50320        4.30290
C          0.99790        2.30640        9.51260
C          0.99300        1.86060       10.81040
C          0.63000        0.51080       11.27610
O          0.32280       -0.45460       10.60110
C          0.70250        0.57470       12.74110
C          1.07420        1.85850       13.11780
S          1.19530        2.07650       14.82580
C          0.74120        0.41570       15.05710
C          0.55820       -0.39790       16.19030
C          0.19790       -1.65880       15.83100
S          0.07040       -1.89870       14.12160
C          0.51100       -0.25730       13.84980
C          1.28730        2.68970       11.96410
C          1.69580        4.00330       12.01200
C          2.00280        4.81340       10.90610
N          2.30030        5.51920       10.04840
C          1.87740        4.65400       13.24850
N          2.01480        5.19590       14.25130
H         -0.38610       -1.32390       -9.50320
H         -1.94360        4.66000       -8.47620
H         -0.65280        2.96090      -13.06920
H         -2.34450        5.94660      -13.30900
H          0.25430        6.36510      -13.72070
H         -1.00650        8.65390      -14.02420
H         -1.63050        9.57740      -11.61320
H         -0.75910        7.85900       -9.82750
H          1.20890        7.58650      -11.57810
H          0.66410        5.96120      -11.10870
H         -2.96540        6.87570      -10.95670
H          2.34350       -0.02450       -8.47860
H          3.16700        0.93750      -10.54330
H          4.57790        2.02390      -12.06470
H          4.03800        2.91610      -13.50420
H          2.99270        1.65550      -12.82530
H          1.78210        4.79520       -9.31140
H          0.93340        3.81300       -7.22170
H          3.29930        2.14300       -5.64470
H          3.68860        3.37440       -3.53640
H          0.98790        3.88770        0.61410
H          0.40470        2.69570       -0.57570
H         -0.23550        4.36900       -0.58460
H         -0.52160        3.44040       -2.80250
H         -0.90280        2.23070       -4.91660
H          1.79100       -3.59010       -5.01260
H          2.98230       -5.07720       -6.55030
H          2.26600       -9.90610       -7.98870
H          0.65120       -9.17330       -8.07710
H          1.43240       -9.44680       -6.48430
H         -0.33330       -7.77570       -6.50570
H         -1.55280       -6.25590       -5.05230
H         -0.44810       -6.29760       -2.77170
H         -1.97220       -7.17210       -1.08090
H         -2.47900       -6.68080        1.33270
H         -3.30360       -8.11180        0.63400
H         -4.00410       -7.27220        2.03760
H         -4.35310       -3.63080       -1.41050
H         -2.83230       -2.77060       -3.12660
H          3.95170       -2.80920       -2.97580
H          4.39080       -4.97730       -4.00070
H          5.40660       -7.12640       -3.99160
H          4.36360       -6.87440       -5.43390
H          4.78280       -8.51590       -4.90910
H          1.41970       -6.76260       -1.50300
H          0.92960       -4.56180       -0.51330
H          1.79050        0.32400       -1.11530
H          3.47250        2.02740       -0.64610
H          5.56390        2.81740       -2.05040
H          6.68420        3.84980       -1.13230
H          4.98560        3.72530       -0.62000
H          6.39970       -1.02700       -0.03870
H          4.69110       -2.75040       -0.46190
H         -1.04640        2.01400        1.54210
H         -1.07750        4.23250        2.61540
H         -4.71990        5.10230        5.46010
H         -3.62990        4.64050        6.81130
H         -3.82480        6.34720        6.36510
H         -3.91850        2.79550        5.47150
H         -3.92330        0.62110        4.37250
H         -4.71240        1.17050        1.80580
H         -6.83560        0.15030        1.12480
H         -6.98960       -4.69140        1.21760
H         -6.71130       -4.38750       -0.51980
H         -8.36260       -4.63280        0.08890
H         -4.94640       -3.68170        0.99450
H         -2.85770       -2.68710        1.71670
H          2.33990       -1.90380        5.98260
H          3.66780       -2.97200        7.72000
H          4.97900       -4.48200       10.77850
H          5.05760       -4.29090        9.01490
H          4.31420       -3.01160       10.02990
H          0.19790       -5.06870        9.08180
H         -1.14720       -3.97250        7.33940
H         -0.51440       -4.66000        4.69030
H         -2.61940       -5.71100        3.94470
H         -6.57940       -2.79890        3.50550
H         -6.51020       -3.40340        5.19450
H         -7.51110       -4.23480        3.98360
H         -4.67100       -2.00560        4.52770
H         -2.58390       -0.97980        5.29550
H          0.26880        5.40880        4.94520
H          1.55990        5.91360        2.90930
H          5.86900        3.46190        2.18210
H          5.94300        4.89990        3.25400
H          6.30760        5.04860        1.52060
H          4.53670        3.07860        4.09150
H          3.26540        2.59590        6.12180
H          1.71540        6.12890        7.18800
H          0.45590        7.86760        8.38490
H         -4.02080        6.65760       10.14140
H         -2.75270        6.27260       11.35080
H         -3.62590        7.81920       11.42430
H         -2.61660        5.02850        9.27110
H         -1.39420        3.31890        8.03880
H          1.25750        3.34910        9.37370
H          0.68660       -0.06710       17.20390
H         -0.00600       -2.48680       16.48080
