246

C          4.93160        4.18440        4.27250
C          5.53680        5.22080        3.59480
C          5.34530        5.47360        2.15960
O          4.70440        4.80690        1.36640
C          5.96350        6.78960        1.89660
C          6.01380        7.46360        0.68000
C          6.63700        8.68760        0.74320
C          7.15850        9.21010        1.93260
C          7.11560        8.55320        3.14130
C          6.49700        7.30110        3.09460
C          6.27800        6.31700        4.15430
C          6.81890        6.35790        5.41630
C          7.62000        7.40830        5.90110
N          8.27850        8.24120        6.33990
C          6.69030        5.31470        6.35390
N          6.64230        4.48800        7.15020
C          7.60430       10.49060        1.26970
C          6.71920       11.73240        1.50680
C          7.10550       12.67150        0.38680
C          6.61760       12.17470       -0.74260
C          5.89280       10.89190       -0.40480
C          5.35840       11.24980        0.98800
C          7.02750        9.90480       -0.05910
C          4.48420        2.99200        3.69670
C          4.90500        2.29940        2.54050
N          6.03450        2.53410        1.81190
C          6.11380        2.07950        0.47630
C          7.22270        1.34840        0.06610
C          7.32740        0.90940       -1.23980
C          6.32220        1.20230       -2.15250
S          6.38570        0.74430       -3.85250
C          7.64460       -0.55970       -3.90820
C          5.21360        1.94070       -1.74230
C          5.10680        2.37630       -0.44030
C          7.12970        3.24470        2.32050
C          7.76880        4.19290        1.52490
C          8.79200        4.96790        2.03650
C          9.19910        4.79960        3.35330
S         10.42690        5.78800        4.13760
C         10.56920        7.23070        3.04480
C          8.61610        3.79330        4.12660
C          7.59230        3.02810        3.62000
C          4.03700        1.22020        2.27110
S          3.96130        0.03190        1.00740
C          2.49720       -0.63200        1.70550
C          2.17020       -0.03660        2.91790
N          1.16360       -0.56970        3.72450
C          1.38120       -1.89370        4.13420
C          0.36420       -2.84610        4.10740
C          0.61750       -4.14090        4.50800
C          1.89030       -4.51040        4.93350
S          2.14520       -6.19510        5.41610
C          3.55190       -6.07470        6.56210
C          2.91540       -3.57480        4.93040
C          2.65880       -2.27910        4.53650
C          0.04020        0.16620        4.09110
C         -0.39270        1.23070        3.29930
C         -1.53760        1.91900        3.62660
C         -2.27700        1.57020        4.75460
S         -3.75610        2.49100        5.04100
C         -4.45060        1.75170        6.54560
C         -1.82530        0.54420        5.57170
C         -0.67520       -0.14700        5.24320
C          3.03240        1.03200        3.21640
S          3.13700        2.16920        4.50480
C          1.61620       -1.40800        0.91400
C          1.92650       -2.04410       -0.28180
N          3.22460       -2.41990       -0.58240
C          3.90580       -3.16140        0.39710
C          3.20760       -4.10250        1.15210
C          3.84810       -4.84460        2.11980
C          5.20270       -4.65170        2.35260
S          6.06640       -5.56860        3.59940
C          5.30820       -7.21670        3.43560
C          5.90390       -3.70490        1.61410
C          5.26400       -2.96750        0.63830
C          3.70340       -2.28940       -1.88840
C          3.26900       -1.22630       -2.67590
C          3.67040       -1.10970       -3.99060
C          4.53790       -2.04610       -4.53540
S          5.12420       -2.00130       -6.19890
C          4.30730       -0.54600       -6.90700
C          5.00330       -3.09150       -3.74030
C          4.58700       -3.21960       -2.43400
C          0.76740       -2.25500       -1.06340
S          0.47100       -2.74340       -2.68970
C         -1.23210       -2.32650       -2.53620
C         -1.54700       -1.84740       -1.26790
N         -2.74370       -1.27900       -0.86520
C         -3.11380       -1.37440        0.48080
C         -2.83050       -2.53170        1.20770
C         -3.18650       -2.63600        2.53810
C         -3.82880       -1.58020        3.16750
S         -4.37370       -1.64750        4.84910
C         -3.20990       -2.80340        5.63100
C         -4.11640       -0.42260        2.45030
C         -3.76270       -0.31880        1.12300
C         -3.50150       -0.52400       -1.77330
C         -2.87270        0.25810       -2.73920
C         -3.60100        0.87360       -3.73720
C         -4.98280        0.73810       -3.77390
S         -5.99980        1.34970       -5.07580
C         -4.85180        2.30410       -6.10900
C         -5.62470        0.05070       -2.74470
C         -4.89520       -0.57420       -1.75810
C         -0.39990       -1.83330       -0.44270
S         -0.11710       -1.23530        1.15500
C         -2.07300       -2.32360       -3.70530
C         -1.59830       -1.88160       -4.93450
F         -0.30850       -1.51900       -5.07550
C         -2.42770       -1.71490       -6.04230
F         -1.88020       -1.25680       -7.18120
C         -3.78720       -1.97480       -5.99890
C         -4.30980       -2.42240       -4.75260
N         -5.63030       -2.47530       -4.56400
C         -6.11550       -2.98050       -3.46110
C         -7.54660       -2.83390       -3.19970
C         -8.44150       -2.76260       -4.26150
C         -9.79900       -2.65980       -4.01570
C        -10.27520       -2.62130       -2.72140
C         -9.38470       -2.66130       -1.64440
O         -9.93710       -2.61380       -0.40700
C         -9.09370       -2.72480        0.72440
C         -9.97790       -2.75810        1.96060
C         -8.02240       -2.75300       -1.89070
C         -5.21670       -3.62760       -2.54160
N         -3.93680       -3.37220       -2.60420
C         -3.44960       -2.68970       -3.65230
C         -5.74390       -4.56750       -1.54830
C         -6.67830       -5.52090       -1.95850
C         -7.25490       -6.35360       -1.02400
C         -6.94460       -6.23670        0.32240
C         -6.00860       -5.29410        0.73800
O         -5.64400       -5.08140        2.02890
C         -6.35400       -5.75340        3.05290
C         -5.82440       -5.25880        4.38850
C         -5.39400       -4.47590       -0.21100
C         -4.65320       -1.67110       -7.10270
C         -5.78520       -2.35620       -7.38530
C         -6.11790       -3.72410       -6.87020
O         -5.38490       -4.49970       -6.29630
C         -7.47820       -3.97980       -7.35590
C         -7.87170       -2.94820       -8.18800
S         -9.45600       -3.14640       -8.83420
C         -9.61830       -4.65900       -7.95930
C        -10.73050       -5.48540       -7.95910
C        -10.68960       -6.63780       -7.19980
C         -9.55930       -6.96850       -6.44950
C         -8.44950       -6.15550       -6.44610
C         -8.46560       -4.98530       -7.20770
C         -6.86050       -1.92980       -8.27350
C         -6.96660       -0.77390       -9.00120
C         -8.09830       -0.51810       -9.80490
N         -9.00600       -0.29850      -10.47130
C         -6.01440        0.26150       -9.03830
N         -5.28980        1.14980       -9.10490
H          4.71480        4.31020        5.32660
H          5.59110        7.02970       -0.21290
H          7.51070        8.97100        4.05290
H          8.66920       10.71130        1.32390
H          6.75750       12.13250        2.51640
H          7.72040       13.54230        0.51930
H          6.74340       12.54750       -1.74230
H          5.17800       10.52610       -1.13710
H          4.62330       12.05220        0.95310
H          4.94800       10.40410        1.53660
H          7.70930        9.73140       -0.89020
H          8.00810        1.12760        0.77440
H          8.19930        0.34800       -1.53520
H          7.57090       -0.99660       -4.89950
H          7.41460       -1.31120       -3.15880
H          8.63470       -0.13750       -3.76270
H          4.44590        2.17640       -2.46270
H          4.26820        2.97490       -0.12220
H          7.44420        4.33580        0.50500
H          9.25150        5.70970        1.40340
H          9.57910        7.62260        2.82870
H         11.09890        6.96670        2.13380
H         11.14180        7.96240        3.60590
H          8.96490        3.63680        5.13550
H          7.13550        2.26840        4.23570
H         -0.61520       -2.56030        3.75380
H         -0.16630       -4.88310        4.48820
H          3.35160       -5.29370        7.28910
H          4.47490       -5.87860        6.02380
H          3.61280       -7.03910        7.05680
H          3.91510       -3.84270        5.23140
H          3.45850       -1.55390        4.54510
H          0.16760        1.50240        2.41730
H         -1.88110        2.73110        3.00460
H         -5.37660        2.28680        6.73200
H         -4.65880        0.69940        6.37440
H         -3.76840        1.89620        7.37830
H         -2.35700        0.27200        6.46870
H         -0.31980       -0.93350        5.89340
H          2.15450       -4.26010        0.97240
H          3.28760       -5.57450        2.68090
H          5.94720       -7.89520        3.99190
H          5.29240       -7.49340        2.38620
H          4.30580       -7.22880        3.85300
H          6.95430       -3.55400        1.81040
H          5.80800       -2.23700        0.05840
H          2.61290       -0.48220       -2.24990
H          3.30620       -0.28080       -4.57330
H          4.62650        0.34590       -6.37520
H          3.22970       -0.67430       -6.86660
H          4.63570       -0.49980       -7.94070
H          5.68280       -3.81330       -4.16790
H          4.93220       -4.04920       -1.83540
H         -2.34280       -3.36320        0.72020
H         -2.97930       -3.55420        3.06380
H         -3.39130       -3.81750        5.29090
H         -3.40020       -2.73930        6.69780
H         -2.19470       -2.48930        5.41340
H         -4.61100        0.39880        2.94510
H         -3.97630        0.58850        0.57870
H         -1.79860        0.36910       -2.72130
H         -3.07680        1.44930       -4.48230
H         -5.44920        2.70110       -6.92360
H         -4.42430        3.11700       -5.52960
H         -4.08130        1.65620       -6.51550
H         -6.70190       -0.01650       -2.75140
H         -5.39840       -1.13220       -0.98250
H         -8.05880       -2.79830       -5.26680
H        -10.49270       -2.61490       -4.84200
H        -11.33080       -2.55180       -2.51260
H         -8.41040       -1.86540        0.77290
H         -8.49450       -3.64430        0.65660
H        -10.64290       -3.61660        1.92020
H        -10.58110       -1.85580        2.00830
H         -9.36090       -2.82160        2.85240
H         -7.31980       -2.74740       -1.07490
H         -6.93840       -5.60140       -3.00270
H         -7.97310       -7.09680       -1.33600
H         -7.43530       -6.88420        1.03150
H         -6.20860       -6.83910        2.96770
H         -7.42760       -5.53380        2.96710
H         -5.89400       -4.17500        4.43440
H         -6.40520       -5.68860        5.19940
H         -4.78510       -5.55480        4.50420
H         -4.67820       -3.74160        0.12080
H         -4.38370       -0.80740       -7.69740
H        -11.60340       -5.22830       -8.53850
H        -11.54630       -7.29410       -7.18590
H         -9.56100       -7.87710       -5.86660
H         -7.56580       -6.39800       -5.87700
