162

C         -4.47540       -3.93140        2.84930
C         -4.73300       -4.47060        1.62490
C         -3.86910       -4.30890        0.42670
O         -2.78530       -3.76900        0.34150
C         -4.65870       -4.83150       -0.70450
C         -4.27250       -4.86180       -2.04230
C         -5.22040       -5.38460       -2.88810
C         -6.47040       -5.83140       -2.43930
C         -6.86820       -5.79870       -1.12410
C         -5.91210       -5.28120       -0.24500
C         -5.97100       -5.09340        1.20130
C         -6.98900       -5.50660        2.02200
C         -6.99670       -5.38120        3.42700
N         -7.08360       -5.32510        4.57110
C         -8.16680       -6.14170        1.57850
N         -9.15290       -6.65470        1.28940
C         -6.91560       -6.22700       -3.82520
C         -6.89670       -7.73290       -4.18580
C         -5.84520       -8.36910       -3.31120
C         -4.65980       -7.95050       -3.73390
C         -4.88850       -7.02380       -4.90230
C         -6.13760       -7.67130       -5.52090
C         -5.52110       -5.73340       -4.32440
C         -3.19860       -3.44170        3.25920
C         -3.07760       -2.26410        3.99240
C         -1.85040       -1.66150        4.19520
F         -1.83960       -0.46540        4.82840
C         -0.62920       -2.18510        3.75590
C         -0.71730       -3.46280        3.13420
C         -1.98890       -4.08910        2.89890
N         -1.85640       -5.28540        2.33700
S         -0.29830       -5.55880        2.05480
N          0.29270       -4.18660        2.66570
C          0.57450       -1.46160        3.76380
C          1.89700       -1.74770        3.46030
N          2.68410       -2.83010        3.60540
C          3.98290       -2.81730        3.04720
C          5.08300       -3.09040        3.85750
C          6.35400       -3.04620        3.33060
C          6.54710       -2.73680        1.98560
S          8.20750       -2.69780        1.39800
C          8.10460       -1.57000       -0.02130
C          5.44680       -2.50710        1.16920
C          4.17170       -2.53660        1.69980
C          2.30540       -3.94270        4.37220
C          1.50350       -3.81320        5.50650
C          1.13090       -4.92840        6.22030
C          1.55410       -6.19890        5.82870
S          0.98660       -7.54720        6.80690
C          1.70790       -9.00870        6.00740
C          2.38380       -6.32640        4.72080
C          2.75940       -5.20810        4.00610
C          2.28110       -0.41890        3.00640
S          6.05700        0.98260        2.02130
C          4.78830        1.50690        1.09160
C          3.54240        0.74990        1.09090
N          2.75910        0.74230       -0.07220
C          1.37750        0.43680        0.12100
C          0.53360        1.42970        0.59400
C         -0.79350        1.15210        0.86020
C         -1.28240       -0.13500        0.67490
S         -2.94440       -0.60900        1.01760
C         -3.57280        0.77650        2.01690
C         -0.44080       -1.12950        0.17730
C          0.87860       -0.84370       -0.10310
C          3.31990        0.44700       -1.32380
C          4.62160       -0.02750       -1.47250
C          5.13770       -0.26320       -2.72790
C          4.36680       -0.04050       -3.86610
S          5.13800       -0.39370       -5.41480
C          3.85930       -0.00560       -6.64210
C          3.07030        0.43630       -3.72390
C          2.55650        0.68350       -2.46650
C          3.11120        0.07960        2.15270
S          0.73890        0.33140        3.67660
C          4.83790        2.70760        0.33370
C          5.94450        3.54130        0.22910
C          5.75560        4.71680       -0.48030
C          6.86640        5.71060       -0.62770
C          6.76770        6.80340        0.44080
C          4.44570        4.90510       -0.97370
Se         3.35250        3.43290       -0.54040
C          4.08200        6.05670       -1.69080
C          2.87570        6.44460       -2.21890
C          1.62580        5.69420       -2.14600
O          1.45340        4.59560       -1.63110
C          0.60150        6.50600       -2.81410
C         -0.74530        6.18930       -2.98270
C         -1.46480        7.15100       -3.65010
C         -0.88700        8.33940       -4.11670
C          0.44130        8.66100       -3.96170
C          1.19350        7.69720       -3.28360
C          2.61420        7.68130       -2.93430
C          3.51670        8.66520       -3.24560
C          3.20060        9.84700       -3.94950
N          3.02230       10.83040       -4.51430
C          4.89090        8.65860       -2.92510
N          6.01710        8.73470       -2.71030
C         -2.19070        8.84570       -4.68120
C         -2.92460        9.92620       -3.85860
C         -4.34390        9.87220       -4.37670
C         -4.89130        8.74620       -3.93720
C         -3.85140        8.02020       -3.11460
C         -3.10980        9.21920       -2.50960
C         -2.83450        7.51970       -4.16260
H         -5.29030       -3.79150        3.54880
H         -3.30340       -4.49760       -2.34600
H         -7.83730       -6.13560       -0.79580
H         -7.80100       -5.72070       -4.20470
H         -7.87330       -8.20930       -4.18600
H         -6.06750       -8.99190       -2.46460
H         -3.69350       -8.15340       -3.31040
H         -4.03630       -6.85540       -5.55580
H         -6.62490       -7.04680       -6.26870
H         -5.93840       -8.65720       -5.93830
H         -5.49630       -4.90670       -5.03220
H         -3.96340       -1.75210        4.33640
H          4.93270       -3.31800        4.90230
H          7.21320       -3.23590        3.95440
H          7.57440       -0.67230        0.28420
H          9.12990       -1.32440       -0.27930
H          7.62080       -2.05460       -0.86440
H          5.57330       -2.32410        0.11450
H          3.31350       -2.37760        1.06500
H          1.18050       -2.83810        5.83490
H          0.50690       -4.83110        7.09540
H          1.37040       -9.85670        6.59530
H          1.33890       -9.09580        4.98970
H          2.79210       -8.95140        6.03420
H          2.73860       -7.29180        4.39880
H          3.38890       -5.31690        3.13630
H          0.92520        2.42630        0.74760
H         -1.42840        1.94230        1.22450
H         -2.89830        0.96610        2.84610
H         -3.69970        1.66170        1.40090
H         -4.53930        0.45210        2.39000
H         -0.83970       -2.12210        0.03230
H          1.53070       -1.61480       -0.48850
H          5.23240       -0.21280       -0.60350
H          6.14780       -0.62680       -2.84190
H          3.59530        1.04640       -6.58430
H          2.99200       -0.64120       -6.48920
H          4.30800       -0.22010       -7.60720
H          2.45010        0.63080       -4.58370
H          1.55370        1.06900       -2.35920
H          6.88820        3.27800        0.67910
H          7.81710        5.18750       -0.51020
H          6.86050        6.17050       -1.61750
H          6.80610        6.36480        1.43550
H          5.83660        7.35750        0.34480
H          7.59390        7.50070        0.33320
H          4.89740        6.75320       -1.83410
H         -1.14630        5.26010       -2.60930
H          0.86730        9.57780       -4.33300
H         -2.19870        9.04680       -5.75060
H         -2.44200       10.89950       -3.85300
H         -4.77120       10.60740       -5.03270
H         -5.86740        8.35280       -4.15280
H         -4.21350        7.25720       -2.43090
H         -3.73840        9.79070       -1.82890
H         -2.17700        8.95960       -2.01210
H         -3.27120        6.83440       -4.88660
