221

C         -7.54700       -2.43090        0.50540
C         -8.08200       -3.32520       -0.37840
C         -9.51220       -3.21400       -0.75340
O        -10.38360       -2.63280       -0.14210
C         -9.61900       -3.90800       -2.05440
C        -10.71010       -3.92700       -2.91900
C        -10.48870       -4.61650       -4.08820
C         -9.27790       -5.26060       -4.37360
C         -8.19580       -5.26020       -3.52640
C         -8.39350       -4.54650       -2.34430
C         -7.47930       -4.31870       -1.23030
C         -6.37940       -5.08120       -0.91590
C         -5.73750       -4.99090        0.33600
N         -5.23930       -4.97300        1.37120
C         -5.82220       -6.05100       -1.76260
N         -5.30710       -6.82860       -2.43540
C         -9.75330       -5.73300       -5.72420
C         -9.23030       -4.97770       -6.97050
C         -8.88860       -3.58220       -6.50980
C        -10.02770       -2.95790       -6.24170
C        -11.15870       -3.91860       -6.51680
C        -10.56090       -4.70960       -7.69110
C        -11.09840       -5.00410       -5.41240
C         -6.20400       -2.03240        0.62540
C         -5.60760       -1.29930        1.66330
N         -6.25480       -0.87490        2.80160
C         -5.67700       -1.11750        4.05280
C         -5.87840       -0.22960        5.10930
C         -5.34180       -0.49890        6.34790
C         -4.58990       -1.65380        6.55750
S         -3.96000       -1.89400        8.19030
C         -3.12510       -3.50380        8.10830
C         -4.37580       -2.53160        5.50350
C         -4.91820       -2.26630        4.26190
C         -7.53550       -0.31230        2.69600
C         -7.79420        0.61770        1.68730
C         -9.06230        1.12670        1.52260
C        -10.09780        0.71860        2.36060
S        -11.69780        1.39550        2.05760
C        -12.79990        0.10390        2.70490
C         -9.83380       -0.17410        3.39250
C         -8.56250       -0.68630        3.55880
C         -4.23600       -1.07100        1.41130
S         -2.96220       -0.24130        2.25210
C         -1.88260       -0.50460        0.89090
C         -2.43000       -1.35370       -0.07370
N         -1.74050       -1.98330       -1.07960
C         -2.47400       -2.49390       -2.16910
C         -3.32420       -1.65970       -2.89360
C         -4.12000       -2.18380       -3.88920
C         -4.08060       -3.54620       -4.17970
S         -5.20940       -4.12510       -5.40230
C         -4.81310       -5.88820       -5.57610
C         -3.19210       -4.36820       -3.49760
C         -2.39560       -3.84290       -2.50060
C         -0.42350       -2.44330       -0.89870
C          0.43850       -2.48590       -1.99540
C          1.70600       -3.00590       -1.86390
C          2.13660       -3.51580       -0.63920
S          3.74830       -4.22730       -0.61150
C          4.00480       -4.68660        1.12790
C          1.28500       -3.46180        0.45720
C          0.02030       -2.91930        0.33050
C         -3.79580       -1.59540        0.20580
S         -5.06060       -2.37050       -0.66860
C         -0.66220        0.23420        0.82970
C         -0.04370        0.59540       -0.36010
F         -0.60450        0.30410       -1.54830
C          1.13940        1.33750       -0.38030
F          1.69620        1.59720       -1.57530
C          1.73520        1.82520        0.76470
C          1.07710        1.57620        1.99160
N          1.52630        2.14230        3.12540
C          0.89570        1.90800        4.25030
C          1.39630        2.66350        5.44380
C          0.45910        3.82320        5.78540
C         -0.22230        1.02640        4.29830
N         -0.68520        0.50220        3.18820
C         -0.08760        0.76830        2.02240
C         -0.93080        0.66010        5.56580
C         -1.35670       -0.80370        5.58070
C          3.02910        2.50000        0.64990
C          4.23100        1.83370        0.69900
N          4.36440        0.48350        1.00070
C          3.86280        0.01480        2.21540
C          3.05410       -1.11850        2.27010
C          2.56040       -1.55780        3.47890
C          2.87610       -0.88260        4.65540
S          2.19750       -1.51950        6.16060
C          3.26690       -0.80270        7.44180
C          3.67140        0.25280        4.60400
C          4.15300        0.70130        3.39170
C          4.95450       -0.35060        0.03970
C          5.74440       -1.42860        0.42340
C          6.35730       -2.22320       -0.52630
C          6.19310       -1.94870       -1.87760
S          6.88200       -2.91650       -3.17690
C          8.10980       -3.95330       -2.33520
C          5.40720       -0.86530       -2.26250
C          4.79360       -0.07520       -1.31810
C          5.29680        2.66750        0.29800
S          6.97300        2.38130        0.05060
C          7.16520        4.00230       -0.62320
C          5.95660        4.72410       -0.60870
N          5.79550        5.97890       -1.12330
C          4.80790        6.82260       -0.59390
C          4.04920        7.64300       -1.42930
C          3.08890        8.47100       -0.89570
C          2.85980        8.50020        0.48030
S          1.60250        9.59900        1.04350
C          1.47390        9.24250        2.81920
C          3.62200        7.69410        1.31520
C          4.58950        6.86680        0.78060
C          6.54620        6.41460       -2.23700
C          6.76340        5.56200       -3.31940
C          7.52510        5.98790       -4.38290
C          8.07710        7.26910       -4.39390
S          9.04860        7.69770       -5.79950
C          9.90770        9.21130       -5.28020
C          7.82920        8.12960       -3.33250
C          7.06850        7.70240       -2.26110
C          4.90680        3.94640       -0.06450
S          3.19640        4.16090        0.14880
C          8.42490        4.49820       -0.98500
C          9.60100        3.81800       -1.15960
C         10.88120        4.55290       -1.04730
O         11.03150        5.75370       -1.05320
C         11.90920        3.49690       -0.88000
C         13.26530        3.58570       -0.62720
F         13.87210        4.77370       -0.52080
C         14.02390        2.43100       -0.47520
C         13.41450        1.19300       -0.57890
C         12.05550        1.07520       -0.84420
C         11.30610        2.22860       -0.99530
C          9.89160        2.41850       -1.32300
C          9.08490        1.48480       -1.93150
C          7.89880        1.84650       -2.60220
N          6.98010        2.14890       -3.22170
C          9.38770        0.11550       -2.00910
N          9.58230       -1.01670       -2.03560
H         -8.27380       -1.90470        1.11340
H        -11.63100       -3.42630       -2.66320
H         -7.26330       -5.74570       -3.75730
H         -9.78170       -6.81120       -5.87010
H         -8.45670       -5.50120       -7.52590
H         -7.88310       -3.23070       -6.37190
H        -10.16550       -1.97240       -5.83670
H        -12.14110       -3.47580       -6.66030
H        -11.11560       -5.61590       -7.93140
H        -10.43900       -4.10400       -8.58790
H        -12.00660       -5.60250       -5.36940
H         -6.45990        0.66610        4.95090
H         -5.49750        0.18240        7.17030
H         -3.83710       -4.27500        7.82970
H         -2.29410       -3.45930        7.41020
H         -2.75420       -3.69020        9.11150
H         -3.79940       -3.43240        5.63420
H         -4.77440       -2.96990        3.45530
H         -6.99510        0.91920        1.02650
H         -9.26980        1.83710        0.73770
H        -12.83190        0.13600        3.79020
H        -12.45940       -0.86200        2.34480
H        -13.78390        0.32620        2.30400
H        -10.61640       -0.48610        4.06510
H         -8.36400       -1.39660        4.34760
H         -3.35710       -0.60590       -2.66260
H         -4.79170       -1.54670       -4.44390
H         -3.79730       -6.00010       -5.94400
H         -5.51590       -6.27340       -6.30850
H         -4.94780       -6.39840       -4.62520
H         -3.13010       -5.42250       -3.70940
H         -1.72580       -4.48990       -1.95370
H          0.10040       -2.10600       -2.94710
H          2.37810       -3.03380       -2.70760
H          3.95430       -3.80420        1.75920
H          3.27780       -5.43460        1.42980
H          5.00310       -5.11090        1.16940
H          1.58380       -3.86080        1.41310
H         -0.63500       -2.89710        1.18870
H          2.38250        3.05630        5.19420
H          1.48630        1.99860        6.30440
H          0.37170        4.49330        4.93340
H          0.85150        4.38480        6.62970
H         -0.53270        3.46000        6.04160
H         -1.82430        1.28570        5.65140
H         -0.29280        0.86320        6.42530
H         -1.85120       -1.02170        6.52220
H         -0.48690       -1.44850        5.48270
H         -2.04100       -1.00620        4.76340
H          2.80340       -1.62760        1.35160
H          1.91550       -2.42230        3.52790
H          3.02680       -1.33510        8.35680
H          4.30740       -0.96550        7.17820
H          3.05640        0.25550        7.56910
H          3.92110        0.79630        5.50090
H          4.76400        1.59020        3.35010
H          5.87960       -1.64130        1.47470
H          6.96330       -3.05240       -0.19960
H          7.61400       -4.66650       -1.68270
H          8.63670       -4.48080       -3.12400
H          8.79780       -3.31240       -1.79310
H          5.28220       -0.65010       -3.31210
H          4.18560        0.75790       -1.63500
H          4.21310        7.61630       -2.49560
H          2.49500        9.10210       -1.53850
H          2.38950        9.53130        3.32730
H          1.25200        8.18990        2.96800
H          0.64850        9.84870        3.17920
H          3.48300        7.70640        2.38380
H          5.19220        6.25760        1.43810
H          6.35140        4.56430       -3.31730
H          7.70180        5.33050       -5.21970
H         10.40970        9.03600       -4.33350
H          9.20860       10.03990       -5.21280
H         10.63960        9.41270       -6.05620
H          8.22730        9.13090       -3.32150
H          6.88840        8.36860       -1.43000
H          8.52030        5.57790       -1.03320
H         15.08040        2.51930       -0.27710
H         14.00830        0.30050       -0.45350
H         11.60180        0.10070       -0.91940
