
  xtb     02042213573D
 energy: -317.089123338869 gnorm: 0.000404166826 xtb: 6.4.1 (unknown)
190209  0     0  0            999 V2000
    5.7187   -5.8670   -0.2988 C   0  0  0  0  0  0  0  0  0  0  0  0
    6.5127   -6.4545    0.6314 C   0  0  0  0  0  0  0  0  0  0  0  0
    7.1608   -7.7601    0.3298 C   0  0  0  0  0  0  0  0  0  0  0  0
    7.2277   -8.3086   -0.7465 O   0  0  0  0  0  0  0  0  0  0  0  0
    7.6530   -8.2618    1.6288 C   0  0  0  0  0  0  0  0  0  0  0  0
    8.2542   -9.4927    1.8798 C   0  0  0  0  0  0  0  0  0  0  0  0
    8.6229   -9.6809    3.1902 C   0  0  0  0  0  0  0  0  0  0  0  0
    8.4155   -8.7125    4.1816 C   0  0  0  0  0  0  0  0  0  0  0  0
    7.8286   -7.4924    3.9477 C   0  0  0  0  0  0  0  0  0  0  0  0
    7.4341   -7.2841    2.6222 C   0  0  0  0  0  0  0  0  0  0  0  0
    6.8230   -6.1136    1.9994 C   0  0  0  0  0  0  0  0  0  0  0  0
    6.7338   -4.8591    2.5484 C   0  0  0  0  0  0  0  0  0  0  0  0
    6.4493   -3.7117    1.7840 C   0  0  0  0  0  0  0  0  0  0  0  0
    6.2837   -2.7451    1.1871 N   0  0  0  0  0  0  0  0  0  0  0  0
    6.9500   -4.5681    3.9046 C   0  0  0  0  0  0  0  0  0  0  0  0
    7.0509   -4.2965    5.0174 N   0  0  0  0  0  0  0  0  0  0  0  0
    9.0517   -9.5597    5.2549 C   0  0  0  0  0  0  0  0  0  0  0  0
   10.4933   -9.2012    5.6933 C   0  0  0  0  0  0  0  0  0  0  0  0
   11.1439   -8.5203    4.5146 C   0  0  0  0  0  0  0  0  0  0  0  0
   11.3421   -9.4366    3.5765 C   0  0  0  0  0  0  0  0  0  0  0  0
   10.8283  -10.7537    4.1037 C   0  0  0  0  0  0  0  0  0  0  0  0
   11.1464  -10.5893    5.5985 C   0  0  0  0  0  0  0  0  0  0  0  0
    9.2844  -10.6382    4.1500 C   0  0  0  0  0  0  0  0  0  0  0  0
    4.7309   -4.8398   -0.1529 C   0  0  0  0  0  0  0  0  0  0  0  0
    4.4596   -3.9854   -1.2206 C   0  0  0  0  0  0  0  0  0  0  0  0
    5.1844   -4.1198   -2.3451 F   0  0  0  0  0  0  0  0  0  0  0  0
    3.5331   -2.9626   -1.1775 C   0  0  0  0  0  0  0  0  0  0  0  0
    2.7507   -2.7593   -0.0470 C   0  0  0  0  0  0  0  0  0  0  0  0
    2.8903   -3.6896    1.0247 C   0  0  0  0  0  0  0  0  0  0  0  0
    1.9871   -3.6731    2.0254 N   0  0  0  0  0  0  0  0  0  0  0  0
    2.0936   -4.5431    2.9814 C   0  0  0  0  0  0  0  0  0  0  0  0
    3.1541   -5.4891    3.0010 C   0  0  0  0  0  0  0  0  0  0  0  0
    3.2131   -6.3256    4.0315 O   0  0  0  0  0  0  0  0  0  0  0  0
    4.2765   -7.2730    4.0513 C   0  0  0  0  0  0  0  0  0  0  0  0
    3.9505   -8.3416    5.0782 C   0  0  0  0  0  0  0  0  0  0  0  0
    4.0230   -5.5565    2.0195 N   0  0  0  0  0  0  0  0  0  0  0  0
    3.8992   -4.6867    0.9944 C   0  0  0  0  0  0  0  0  0  0  0  0
    1.7715   -1.7172   -0.0210 C   0  0  0  0  0  0  0  0  0  0  0  0
    1.2019   -1.0304    1.0473 C   0  0  0  0  0  0  0  0  0  0  0  0
    1.6233   -1.0344    2.3597 N   0  0  0  0  0  0  0  0  0  0  0  0
    2.9811   -1.0453    2.6994 C   0  0  0  0  0  0  0  0  0  0  0  0
    3.9296   -0.4311    1.8802 C   0  0  0  0  0  0  0  0  0  0  0  0
    5.2467   -0.3635    2.2701 C   0  0  0  0  0  0  0  0  0  0  0  0
    5.6558   -0.9080    3.4869 C   0  0  0  0  0  0  0  0  0  0  0  0
    7.3554   -0.7189    3.9051 S   0  0  0  0  0  0  0  0  0  0  0  0
    7.4215   -1.1624    5.6659 C   0  0  0  0  0  0  0  0  0  0  0  0
    4.7257   -1.5590    4.2864 C   0  0  0  0  0  0  0  0  0  0  0  0
    3.4027   -1.6218    3.8952 C   0  0  0  0  0  0  0  0  0  0  0  0
    0.6485   -0.9063    3.3571 C   0  0  0  0  0  0  0  0  0  0  0  0
    0.8406   -0.0621    4.4516 C   0  0  0  0  0  0  0  0  0  0  0  0
   -0.1522    0.0858    5.3931 C   0  0  0  0  0  0  0  0  0  0  0  0
   -1.3588   -0.6004    5.2651 C   0  0  0  0  0  0  0  0  0  0  0  0
   -2.5622   -0.3243    6.5288 S   0  0  0  0  0  0  0  0  0  0  0  0
   -4.0903   -1.0010    5.8183 C   0  0  0  0  0  0  0  0  0  0  0  0
   -1.5463   -1.4580    4.1898 C   0  0  0  0  0  0  0  0  0  0  0  0
   -0.5493   -1.6082    3.2459 C   0  0  0  0  0  0  0  0  0  0  0  0
    0.1652   -0.1731    0.5977 C   0  0  0  0  0  0  0  0  0  0  0  0
   -0.9453    0.8731    1.4034 S   0  0  0  0  0  0  0  0  0  0  0  0
   -1.6079    1.4040   -0.1435 C   0  0  0  0  0  0  0  0  0  0  0  0
   -1.0199    0.7520   -1.2252 C   0  0  0  0  0  0  0  0  0  0  0  0
   -1.3675    0.8578   -2.5565 N   0  0  0  0  0  0  0  0  0  0  0  0
   -0.3682    0.6586   -3.5255 C   0  0  0  0  0  0  0  0  0  0  0  0
    0.8977    1.2131   -3.3639 C   0  0  0  0  0  0  0  0  0  0  0  0
    1.8903    0.9895   -4.2988 C   0  0  0  0  0  0  0  0  0  0  0  0
    1.6271    0.2102   -5.4167 C   0  0  0  0  0  0  0  0  0  0  0  0
    2.8127   -0.1520   -6.6717 S   0  0  0  0  0  0  0  0  0  0  0  0
    4.3840    0.4153   -5.9612 C   0  0  0  0  0  0  0  0  0  0  0  0
    0.3510   -0.3236   -5.5956 C   0  0  0  0  0  0  0  0  0  0  0  0
   -0.6353   -0.1052   -4.6617 C   0  0  0  0  0  0  0  0  0  0  0  0
   -2.6638    1.1784   -2.9769 C   0  0  0  0  0  0  0  0  0  0  0  0
   -2.8476    1.9940   -4.0910 C   0  0  0  0  0  0  0  0  0  0  0  0
   -4.1087    2.4174   -4.4560 C   0  0  0  0  0  0  0  0  0  0  0  0
   -5.2114    2.0420   -3.7024 C   0  0  0  0  0  0  0  0  0  0  0  0
   -6.8458    2.6461   -3.9894 S   0  0  0  0  0  0  0  0  0  0  0  0
   -6.7262    3.5013   -5.5863 C   0  0  0  0  0  0  0  0  0  0  0  0
   -5.0429    1.1682   -2.6302 C   0  0  0  0  0  0  0  0  0  0  0  0
   -3.7861    0.7276   -2.2802 C   0  0  0  0  0  0  0  0  0  0  0  0
   -0.0077   -0.1376   -0.7750 C   0  0  0  0  0  0  0  0  0  0  0  0
    1.0984   -1.2017   -1.5689 S   0  0  0  0  0  0  0  0  0  0  0  0
   -2.6610    2.3577   -0.0781 C   0  0  0  0  0  0  0  0  0  0  0  0
   -3.5790    2.4277    0.9579 C   0  0  0  0  0  0  0  0  0  0  0  0
   -4.5729    3.3696    0.7490 C   0  0  0  0  0  0  0  0  0  0  0  0
   -5.7100    3.5495    1.6591 C   0  0  0  0  0  0  0  0  0  0  0  0
   -5.4628    3.9229    2.9867 C   0  0  0  0  0  0  0  0  0  0  0  0
   -4.1542    4.1491    3.2843 O   0  0  0  0  0  0  0  0  0  0  0  0
   -3.7483    4.2654    4.6335 C   0  0  0  0  0  0  0  0  0  0  0  0
   -3.7536    2.9202    5.3523 C   0  0  0  0  0  0  0  0  0  0  0  0
   -6.5314    4.0754    3.8629 C   0  0  0  0  0  0  0  0  0  0  0  0
   -7.8191    3.8650    3.4079 C   0  0  0  0  0  0  0  0  0  0  0  0
   -8.0760    3.4786    2.1059 C   0  0  0  0  0  0  0  0  0  0  0  0
   -7.0195    3.3065    1.2196 C   0  0  0  0  0  0  0  0  0  0  0  0
   -7.1251    2.8538   -0.0610 O   0  0  0  0  0  0  0  0  0  0  0  0
   -8.3982    2.5856   -0.6146 C   0  0  0  0  0  0  0  0  0  0  0  0
   -9.1160    3.8454   -1.0849 C   0  0  0  0  0  0  0  0  0  0  0  0
   -4.4017    4.0872   -0.4482 C   0  0  0  0  0  0  0  0  0  0  0  0
   -2.9684    3.5553   -1.2892 S   0  0  0  0  0  0  0  0  0  0  0  0
   -5.2945    5.0754   -0.8655 C   0  0  0  0  0  0  0  0  0  0  0  0
   -5.3597    5.7721   -2.0473 C   0  0  0  0  0  0  0  0  0  0  0  0
   -4.4332    5.6473   -3.1715 C   0  0  0  0  0  0  0  0  0  0  0  0
   -3.3894    5.0168   -3.2183 O   0  0  0  0  0  0  0  0  0  0  0  0
   -4.9977    6.4606   -4.2657 C   0  0  0  0  0  0  0  0  0  0  0  0
   -4.4763    6.6219   -5.5474 C   0  0  0  0  0  0  0  0  0  0  0  0
   -5.2261    7.4407   -6.3580 C   0  0  0  0  0  0  0  0  0  0  0  0
   -6.4042    8.0590   -5.9208 C   0  0  0  0  0  0  0  0  0  0  0  0
   -6.9249    7.9136   -4.6563 C   0  0  0  0  0  0  0  0  0  0  0  0
   -6.1806    7.0808   -3.8170 C   0  0  0  0  0  0  0  0  0  0  0  0
   -6.4045    6.6978   -2.4215 C   0  0  0  0  0  0  0  0  0  0  0  0
   -7.4219    7.1664   -1.6271 C   0  0  0  0  0  0  0  0  0  0  0  0
   -7.6191    6.8608   -0.2646 C   0  0  0  0  0  0  0  0  0  0  0  0
   -7.8679    6.6859    0.8442 N   0  0  0  0  0  0  0  0  0  0  0  0
   -8.4288    8.0523   -2.0606 C   0  0  0  0  0  0  0  0  0  0  0  0
   -9.2865    8.7636   -2.3403 N   0  0  0  0  0  0  0  0  0  0  0  0
   -6.6334    8.7398   -7.2470 C   0  0  0  0  0  0  0  0  0  0  0  0
   -7.7065    8.1450   -8.1913 C   0  0  0  0  0  0  0  0  0  0  0  0
   -7.8066    6.6775   -7.8576 C   0  0  0  0  0  0  0  0  0  0  0  0
   -6.6929    6.0905   -8.2750 C   0  0  0  0  0  0  0  0  0  0  0  0
   -5.8181    7.1511   -8.8955 C   0  0  0  0  0  0  0  0  0  0  0  0
   -6.8936    8.0718   -9.4940 C   0  0  0  0  0  0  0  0  0  0  0  0
   -5.3211    8.0490   -7.7352 C   0  0  0  0  0  0  0  0  0  0  0  0
    5.8186   -6.2721   -1.3026 H   0  0  0  0  0  0  0  0  0  0  0  0
    8.4069  -10.2064    1.0854 H   0  0  0  0  0  0  0  0  0  0  0  0
    7.6862   -6.7538    4.7198 H   0  0  0  0  0  0  0  0  0  0  0  0
    8.4151   -9.8220    6.0980 H   0  0  0  0  0  0  0  0  0  0  0  0
   10.5590   -8.6803    6.6448 H   0  0  0  0  0  0  0  0  0  0  0  0
   11.3350   -7.4644    4.4635 H   0  0  0  0  0  0  0  0  0  0  0  0
   11.7317   -9.2993    2.5849 H   0  0  0  0  0  0  0  0  0  0  0  0
   11.1993  -11.6469    3.6082 H   0  0  0  0  0  0  0  0  0  0  0  0
   12.2160  -10.5660    5.8011 H   0  0  0  0  0  0  0  0  0  0  0  0
   10.6687  -11.3380    6.2290 H   0  0  0  0  0  0  0  0  0  0  0  0
    8.7998  -11.6053    4.2712 H   0  0  0  0  0  0  0  0  0  0  0  0
    3.4348   -2.3136   -2.0341 H   0  0  0  0  0  0  0  0  0  0  0  0
    1.3444   -4.5373    3.7596 H   0  0  0  0  0  0  0  0  0  0  0  0
    5.2015   -6.7517    4.3193 H   0  0  0  0  0  0  0  0  0  0  0  0
    4.3970   -7.7014    3.0501 H   0  0  0  0  0  0  0  0  0  0  0  0
    4.7613   -9.0635    5.1169 H   0  0  0  0  0  0  0  0  0  0  0  0
    3.8265   -7.8902    6.0587 H   0  0  0  0  0  0  0  0  0  0  0  0
    3.0296   -8.8528    4.8113 H   0  0  0  0  0  0  0  0  0  0  0  0
    3.6245    0.0175    0.9472 H   0  0  0  0  0  0  0  0  0  0  0  0
    5.9765    0.1247    1.6445 H   0  0  0  0  0  0  0  0  0  0  0  0
    7.2712   -2.2320    5.7852 H   0  0  0  0  0  0  0  0  0  0  0  0
    6.6796   -0.5887    6.2129 H   0  0  0  0  0  0  0  0  0  0  0  0
    8.4194   -0.8916    5.9963 H   0  0  0  0  0  0  0  0  0  0  0  0
    5.0200   -2.0265    5.2124 H   0  0  0  0  0  0  0  0  0  0  0  0
    2.6835   -2.1216    4.5272 H   0  0  0  0  0  0  0  0  0  0  0  0
    1.7646    0.4877    4.5467 H   0  0  0  0  0  0  0  0  0  0  0  0
   -0.0128    0.7471    6.2345 H   0  0  0  0  0  0  0  0  0  0  0  0
   -4.8866   -0.6936    6.4889 H   0  0  0  0  0  0  0  0  0  0  0  0
   -4.2525   -0.5782    4.8315 H   0  0  0  0  0  0  0  0  0  0  0  0
   -4.0424   -2.0855    5.7806 H   0  0  0  0  0  0  0  0  0  0  0  0
   -2.4598   -2.0201    4.0790 H   0  0  0  0  0  0  0  0  0  0  0  0
   -0.6868   -2.2843    2.4156 H   0  0  0  0  0  0  0  0  0  0  0  0
    1.1030    1.8305   -2.5018 H   0  0  0  0  0  0  0  0  0  0  0  0
    2.8598    1.4346   -4.1449 H   0  0  0  0  0  0  0  0  0  0  0  0
    4.5395   -0.0533   -4.9942 H   0  0  0  0  0  0  0  0  0  0  0  0
    4.3937    1.4987   -5.8839 H   0  0  0  0  0  0  0  0  0  0  0  0
    5.1524    0.0908   -6.6561 H   0  0  0  0  0  0  0  0  0  0  0  0
    0.1521   -0.9222   -6.4712 H   0  0  0  0  0  0  0  0  0  0  0  0
   -1.6182   -0.5311   -4.7970 H   0  0  0  0  0  0  0  0  0  0  0  0
   -1.9904    2.3360   -4.6494 H   0  0  0  0  0  0  0  0  0  0  0  0
   -4.2091    3.0722   -5.3057 H   0  0  0  0  0  0  0  0  0  0  0  0
   -6.3536    2.8139   -6.3401 H   0  0  0  0  0  0  0  0  0  0  0  0
   -6.0922    4.3795   -5.5001 H   0  0  0  0  0  0  0  0  0  0  0  0
   -7.7383    3.8071   -5.8325 H   0  0  0  0  0  0  0  0  0  0  0  0
   -5.9049    0.8563   -2.0614 H   0  0  0  0  0  0  0  0  0  0  0  0
   -3.6664    0.0567   -1.4428 H   0  0  0  0  0  0  0  0  0  0  0  0
   -3.5512    1.7674    1.8070 H   0  0  0  0  0  0  0  0  0  0  0  0
   -4.3626    4.9997    5.1676 H   0  0  0  0  0  0  0  0  0  0  0  0
   -2.7272    4.6515    4.5726 H   0  0  0  0  0  0  0  0  0  0  0  0
   -3.0985    2.2251    4.8326 H   0  0  0  0  0  0  0  0  0  0  0  0
   -4.7578    2.5027    5.3771 H   0  0  0  0  0  0  0  0  0  0  0  0
   -3.3963    3.0390    6.3710 H   0  0  0  0  0  0  0  0  0  0  0  0
   -6.3761    4.3708    4.8876 H   0  0  0  0  0  0  0  0  0  0  0  0
   -8.6465    4.0023    4.0875 H   0  0  0  0  0  0  0  0  0  0  0  0
   -9.0958    3.3193    1.7981 H   0  0  0  0  0  0  0  0  0  0  0  0
   -8.1878    1.9477   -1.4779 H   0  0  0  0  0  0  0  0  0  0  0  0
   -9.0165    2.0217    0.0942 H   0  0  0  0  0  0  0  0  0  0  0  0
  -10.0855    3.5811   -1.4977 H   0  0  0  0  0  0  0  0  0  0  0  0
   -9.2565    4.5449   -0.2645 H   0  0  0  0  0  0  0  0  0  0  0  0
   -8.5263    4.3279   -1.8605 H   0  0  0  0  0  0  0  0  0  0  0  0
   -6.0738    5.2749   -0.1412 H   0  0  0  0  0  0  0  0  0  0  0  0
   -3.5584    6.1335   -5.8375 H   0  0  0  0  0  0  0  0  0  0  0  0
   -7.8298    8.4027   -4.3371 H   0  0  0  0  0  0  0  0  0  0  0  0
   -6.6582    9.8274   -7.2250 H   0  0  0  0  0  0  0  0  0  0  0  0
   -8.6427    8.6960   -8.2148 H   0  0  0  0  0  0  0  0  0  0  0  0
   -8.6277    6.2419   -7.3187 H   0  0  0  0  0  0  0  0  0  0  0  0
   -6.3984    5.0638   -8.1578 H   0  0  0  0  0  0  0  0  0  0  0  0
   -5.0348    6.7979   -9.5612 H   0  0  0  0  0  0  0  0  0  0  0  0
   -6.5068    9.0368   -9.8184 H   0  0  0  0  0  0  0  0  0  0  0  0
   -7.4437    7.6032  -10.3087 H   0  0  0  0  0  0  0  0  0  0  0  0
   -4.4906    8.6866   -8.0324 H   0  0  0  0  0  0  0  0  0  0  0  0
  1  2  2  0  0  0  0
  2  3  1  0  0  0  0
  3  4  2  0  0  0  0
  3  5  1  0  0  0  0
  5  6  2  0  0  0  0
  6  7  1  0  0  0  0
  7  8  2  0  0  0  0
  8  9  1  0  0  0  0
  9 10  2  0  0  0  0
 10 11  1  0  0  0  0
 11 12  2  0  0  0  0
 12 13  1  0  0  0  0
 13 14  3  0  0  0  0
 12 15  1  0  0  0  0
 15 16  3  0  0  0  0
  8 17  1  0  0  0  0
 17 18  1  0  0  0  0
 18 19  1  0  0  0  0
 19 20  2  0  0  0  0
 20 21  1  0  0  0  0
 21 22  1  0  0  0  0
 21 23  1  0  0  0  0
  1 24  1  0  0  0  0
 24 25  2  0  0  0  0
 25 26  1  0  0  0  0
 25 27  1  0  0  0  0
 27 28  2  0  0  0  0
 28 29  1  0  0  0  0
 29 30  2  0  0  0  0
 30 31  1  0  0  0  0
 31 32  2  0  0  0  0
 32 33  1  0  0  0  0
 33 34  1  0  0  0  0
 34 35  1  0  0  0  0
 32 36  1  0  0  0  0
 36 37  2  0  0  0  0
 28 38  1  0  0  0  0
 38 39  2  0  0  0  0
 39 40  1  0  0  0  0
 40 41  1  0  0  0  0
 41 42  2  0  0  0  0
 42 43  1  0  0  0  0
 43 44  2  0  0  0  0
 44 45  1  0  0  0  0
 45 46  1  0  0  0  0
 44 47  1  0  0  0  0
 47 48  2  0  0  0  0
 40 49  1  0  0  0  0
 49 50  2  0  0  0  0
 50 51  1  0  0  0  0
 51 52  2  0  0  0  0
 52 53  1  0  0  0  0
 53 54  1  0  0  0  0
 52 55  1  0  0  0  0
 55 56  2  0  0  0  0
 39 57  1  0  0  0  0
 57 58  1  0  0  0  0
 58 59  1  0  0  0  0
 59 60  2  0  0  0  0
 60 61  1  0  0  0  0
 61 62  1  0  0  0  0
 62 63  2  0  0  0  0
 63 64  1  0  0  0  0
 64 65  2  0  0  0  0
 65 66  1  0  0  0  0
 66 67  1  0  0  0  0
 65 68  1  0  0  0  0
 68 69  2  0  0  0  0
 61 70  1  0  0  0  0
 70 71  2  0  0  0  0
 71 72  1  0  0  0  0
 72 73  2  0  0  0  0
 73 74  1  0  0  0  0
 74 75  1  0  0  0  0
 73 76  1  0  0  0  0
 76 77  2  0  0  0  0
 60 78  1  0  0  0  0
 78 79  1  0  0  0  0
 59 80  1  0  0  0  0
 80 81  2  0  0  0  0
 81 82  1  0  0  0  0
 82 83  1  0  0  0  0
 83 84  2  0  0  0  0
 84 85  1  0  0  0  0
 85 86  1  0  0  0  0
 86 87  1  0  0  0  0
 84 88  1  0  0  0  0
 88 89  2  0  0  0  0
 89 90  1  0  0  0  0
 90 91  2  0  0  0  0
 91 92  1  0  0  0  0
 92 93  1  0  0  0  0
 93 94  1  0  0  0  0
 82 95  2  0  0  0  0
 95 96  1  0  0  0  0
 95 97  1  0  0  0  0
 97 98  2  0  0  0  0
 98 99  1  0  0  0  0
 99100  2  0  0  0  0
 99101  1  0  0  0  0
101102  2  0  0  0  0
102103  1  0  0  0  0
103104  2  0  0  0  0
104105  1  0  0  0  0
105106  2  0  0  0  0
106107  1  0  0  0  0
107108  2  0  0  0  0
108109  1  0  0  0  0
109110  3  0  0  0  0
108111  1  0  0  0  0
111112  3  0  0  0  0
104113  1  0  0  0  0
113114  1  0  0  0  0
114115  1  0  0  0  0
115116  2  0  0  0  0
116117  1  0  0  0  0
117118  1  0  0  0  0
117119  1  0  0  0  0
 11  2  1  0  0  0  0
 23 17  1  0  0  0  0
 37 24  1  0  0  0  0
 79 38  1  0  0  0  0
 96 80  1  0  0  0  0
107 98  1  0  0  0  0
119113  1  0  0  0  0
 10  5  1  0  0  0  0
 22 18  1  0  0  0  0
 37 29  1  0  0  0  0
 48 41  1  0  0  0  0
 56 49  1  0  0  0  0
 78 57  2  0  0  0  0
 91 83  1  0  0  0  0
106101  1  0  0  0  0
118114  1  0  0  0  0
 23  7  1  0  0  0  0
 69 62  1  0  0  0  0
 77 70  1  0  0  0  0
119103  1  0  0  0  0
  1120  1  0  0  0  0
  6121  1  0  0  0  0
  9122  1  0  0  0  0
 17123  1  0  0  0  0
 18124  1  0  0  0  0
 19125  1  0  0  0  0
 20126  1  0  0  0  0
 21127  1  0  0  0  0
 22128  1  0  0  0  0
 22129  1  0  0  0  0
 23130  1  0  0  0  0
 27131  1  0  0  0  0
 31132  1  0  0  0  0
 34133  1  0  0  0  0
 34134  1  0  0  0  0
 35135  1  0  0  0  0
 35136  1  0  0  0  0
 35137  1  0  0  0  0
 42138  1  0  0  0  0
 43139  1  0  0  0  0
 46140  1  0  0  0  0
 46141  1  0  0  0  0
 46142  1  0  0  0  0
 47143  1  0  0  0  0
 48144  1  0  0  0  0
 50145  1  0  0  0  0
 51146  1  0  0  0  0
 54147  1  0  0  0  0
 54148  1  0  0  0  0
 54149  1  0  0  0  0
 55150  1  0  0  0  0
 56151  1  0  0  0  0
 63152  1  0  0  0  0
 64153  1  0  0  0  0
 67154  1  0  0  0  0
 67155  1  0  0  0  0
 67156  1  0  0  0  0
 68157  1  0  0  0  0
 69158  1  0  0  0  0
 71159  1  0  0  0  0
 72160  1  0  0  0  0
 75161  1  0  0  0  0
 75162  1  0  0  0  0
 75163  1  0  0  0  0
 76164  1  0  0  0  0
 77165  1  0  0  0  0
 81166  1  0  0  0  0
 86167  1  0  0  0  0
 86168  1  0  0  0  0
 87169  1  0  0  0  0
 87170  1  0  0  0  0
 87171  1  0  0  0  0
 88172  1  0  0  0  0
 89173  1  0  0  0  0
 90174  1  0  0  0  0
 93175  1  0  0  0  0
 93176  1  0  0  0  0
 94177  1  0  0  0  0
 94178  1  0  0  0  0
 94179  1  0  0  0  0
 97180  1  0  0  0  0
102181  1  0  0  0  0
105182  1  0  0  0  0
113183  1  0  0  0  0
114184  1  0  0  0  0
115185  1  0  0  0  0
116186  1  0  0  0  0
117187  1  0  0  0  0
118188  1  0  0  0  0
118189  1  0  0  0  0
119190  1  0  0  0  0
M  END
