
  xtb     02062204383D
 energy: -345.521463033976 gnorm: 0.000186712493 xtb: 6.4.1 (unknown)
201220  0     0  0            999 V2000
    2.3250    0.2027    5.5359 C   0  0  0  0  0  0  0  0  0  0  0  0
    2.7930   -1.0828    5.5978 C   0  0  0  0  0  0  0  0  0  0  0  0
    3.2847   -1.6432    6.8775 C   0  0  0  0  0  0  0  0  0  0  0  0
    3.4851   -1.0345    7.9079 O   0  0  0  0  0  0  0  0  0  0  0  0
    3.4129   -3.0973    6.6445 C   0  0  0  0  0  0  0  0  0  0  0  0
    3.7493   -4.0795    7.5733 C   0  0  0  0  0  0  0  0  0  0  0  0
    3.7734   -5.3544    7.0586 C   0  0  0  0  0  0  0  0  0  0  0  0
    3.4864   -5.6387    5.7171 C   0  0  0  0  0  0  0  0  0  0  0  0
    3.1621   -4.6805    4.7863 C   0  0  0  0  0  0  0  0  0  0  0  0
    3.1290   -3.3790    5.2916 C   0  0  0  0  0  0  0  0  0  0  0  0
    2.8686   -2.1207    4.5995 C   0  0  0  0  0  0  0  0  0  0  0  0
    2.9480   -1.9335    3.2387 C   0  0  0  0  0  0  0  0  0  0  0  0
    3.0265   -0.6614    2.6439 C   0  0  0  0  0  0  0  0  0  0  0  0
    3.1492    0.3576    2.1262 N   0  0  0  0  0  0  0  0  0  0  0  0
    3.0391   -2.9491    2.2717 C   0  0  0  0  0  0  0  0  0  0  0  0
    3.0763   -3.7062    1.4073 N   0  0  0  0  0  0  0  0  0  0  0  0
    3.6898   -7.1216    5.9030 C   0  0  0  0  0  0  0  0  0  0  0  0
    2.4156   -7.9866    6.0024 C   0  0  0  0  0  0  0  0  0  0  0  0
    2.8963   -9.2657    6.6486 C   0  0  0  0  0  0  0  0  0  0  0  0
    3.1701   -8.9976    7.9190 C   0  0  0  0  0  0  0  0  0  0  0  0
    2.8784   -7.5328    8.1528 C   0  0  0  0  0  0  0  0  0  0  0  0
    1.6955   -7.3431    7.1945 C   0  0  0  0  0  0  0  0  0  0  0  0
    4.0118   -6.8053    7.3987 C   0  0  0  0  0  0  0  0  0  0  0  0
    1.4493    0.7050    4.5531 C   0  0  0  0  0  0  0  0  0  0  0  0
    1.4328    1.9615    3.9231 C   0  0  0  0  0  0  0  0  0  0  0  0
    2.1162    3.0665    4.3277 N   0  0  0  0  0  0  0  0  0  0  0  0
    2.4717    4.0664    3.3913 C   0  0  0  0  0  0  0  0  0  0  0  0
    3.2298    3.7511    2.2708 C   0  0  0  0  0  0  0  0  0  0  0  0
    3.6021    4.7465    1.3857 C   0  0  0  0  0  0  0  0  0  0  0  0
    3.2054    6.0592    1.6053 C   0  0  0  0  0  0  0  0  0  0  0  0
    3.6031    7.4016    0.5386 S   0  0  0  0  0  0  0  0  0  0  0  0
    4.8164    6.7091   -0.6143 C   0  0  0  0  0  0  0  0  0  0  0  0
    2.4411    6.3698    2.7302 C   0  0  0  0  0  0  0  0  0  0  0  0
    2.0843    5.3846    3.6218 C   0  0  0  0  0  0  0  0  0  0  0  0
    2.4527    3.2934    5.6701 C   0  0  0  0  0  0  0  0  0  0  0  0
    3.6657    3.9067    5.9853 C   0  0  0  0  0  0  0  0  0  0  0  0
    4.0234    4.0983    7.3007 C   0  0  0  0  0  0  0  0  0  0  0  0
    3.1825    3.6806    8.3309 C   0  0  0  0  0  0  0  0  0  0  0  0
    3.7470    3.9142    9.9835 S   0  0  0  0  0  0  0  0  0  0  0  0
    2.8125    2.6573   10.9051 C   0  0  0  0  0  0  0  0  0  0  0  0
    1.9501    3.1189    8.0203 C   0  0  0  0  0  0  0  0  0  0  0  0
    1.5884    2.9314    6.7013 C   0  0  0  0  0  0  0  0  0  0  0  0
    0.6348    1.9078    2.7480 C   0  0  0  0  0  0  0  0  0  0  0  0
    0.4306    2.9186    1.3544 S   0  0  0  0  0  0  0  0  0  0  0  0
   -0.6538    1.7517    0.6364 C   0  0  0  0  0  0  0  0  0  0  0  0
   -0.8543    0.6429    1.4394 C   0  0  0  0  0  0  0  0  0  0  0  0
   -1.7003   -0.4324    1.1418 N   0  0  0  0  0  0  0  0  0  0  0  0
   -1.4771   -1.1920   -0.0132 C   0  0  0  0  0  0  0  0  0  0  0  0
   -2.5439   -1.6586   -0.7856 C   0  0  0  0  0  0  0  0  0  0  0  0
   -2.3102   -2.3293   -1.9638 C   0  0  0  0  0  0  0  0  0  0  0  0
   -1.0090   -2.5771   -2.3927 C   0  0  0  0  0  0  0  0  0  0  0  0
   -0.8370   -3.3987   -3.9526 S   0  0  0  0  0  0  0  0  0  0  0  0
    0.9175   -3.1996   -4.3710 C   0  0  0  0  0  0  0  0  0  0  0  0
    0.0520   -2.1783   -1.5951 C   0  0  0  0  0  0  0  0  0  0  0  0
   -0.1786   -1.4717   -0.4288 C   0  0  0  0  0  0  0  0  0  0  0  0
   -2.8056   -0.6161    1.9755 C   0  0  0  0  0  0  0  0  0  0  0  0
   -3.4067   -1.8642    2.1243 C   0  0  0  0  0  0  0  0  0  0  0  0
   -4.4984   -2.0291    2.9533 C   0  0  0  0  0  0  0  0  0  0  0  0
   -5.0026   -0.9528    3.6703 C   0  0  0  0  0  0  0  0  0  0  0  0
   -6.3819   -1.0568    4.7706 S   0  0  0  0  0  0  0  0  0  0  0  0
   -7.2055   -2.5927    4.2676 C   0  0  0  0  0  0  0  0  0  0  0  0
   -4.3890    0.2898    3.5491 C   0  0  0  0  0  0  0  0  0  0  0  0
   -3.3140    0.4603    2.7061 C   0  0  0  0  0  0  0  0  0  0  0  0
   -0.0867    0.7319    2.6150 C   0  0  0  0  0  0  0  0  0  0  0  0
    0.2754   -0.4111    3.8456 S   0  0  0  0  0  0  0  0  0  0  0  0
   -1.1371    1.8040   -0.7155 C   0  0  0  0  0  0  0  0  0  0  0  0
   -0.3581    1.8122   -1.8566 C   0  0  0  0  0  0  0  0  0  0  0  0
    0.9742    2.2512   -1.8909 N   0  0  0  0  0  0  0  0  0  0  0  0
    2.0454    1.3834   -1.6279 C   0  0  0  0  0  0  0  0  0  0  0  0
    2.1128    0.1182   -2.1932 C   0  0  0  0  0  0  0  0  0  0  0  0
    3.1698   -0.7260   -1.9006 C   0  0  0  0  0  0  0  0  0  0  0  0
    4.1757   -0.3145   -1.0397 C   0  0  0  0  0  0  0  0  0  0  0  0
    5.5632   -1.3088   -0.5883 S   0  0  0  0  0  0  0  0  0  0  0  0
    5.1095   -2.9766   -1.1417 C   0  0  0  0  0  0  0  0  0  0  0  0
    4.1263    0.9678   -0.4957 C   0  0  0  0  0  0  0  0  0  0  0  0
    3.0727    1.8025   -0.7824 C   0  0  0  0  0  0  0  0  0  0  0  0
    1.2134    3.6179   -2.0702 C   0  0  0  0  0  0  0  0  0  0  0  0
    2.3553    4.0232   -2.7668 C   0  0  0  0  0  0  0  0  0  0  0  0
    2.6068    5.3587   -2.9790 C   0  0  0  0  0  0  0  0  0  0  0  0
    1.7311    6.3320   -2.4984 C   0  0  0  0  0  0  0  0  0  0  0  0
    2.1537    8.0152   -2.8348 S   0  0  0  0  0  0  0  0  0  0  0  0
    1.0721    8.9552   -1.7229 C   0  0  0  0  0  0  0  0  0  0  0  0
    0.5893    5.9359   -1.8196 C   0  0  0  0  0  0  0  0  0  0  0  0
    0.3314    4.5930   -1.6139 C   0  0  0  0  0  0  0  0  0  0  0  0
   -1.0966    1.3396   -2.9621 C   0  0  0  0  0  0  0  0  0  0  0  0
   -0.6366    0.7904   -4.5318 S   0  0  0  0  0  0  0  0  0  0  0  0
   -2.2521    0.1207   -4.7787 C   0  0  0  0  0  0  0  0  0  0  0  0
   -3.1562    0.5335   -3.7814 C   0  0  0  0  0  0  0  0  0  0  0  0
   -4.5200    0.4754   -3.8457 N   0  0  0  0  0  0  0  0  0  0  0  0
   -5.2527    0.6137   -5.0283 C   0  0  0  0  0  0  0  0  0  0  0  0
   -4.7021    1.1923   -6.1702 C   0  0  0  0  0  0  0  0  0  0  0  0
   -5.4457    1.3336   -7.3250 C   0  0  0  0  0  0  0  0  0  0  0  0
   -6.7652    0.9044   -7.3652 C   0  0  0  0  0  0  0  0  0  0  0  0
   -7.8087    1.0219   -8.7805 S   0  0  0  0  0  0  0  0  0  0  0  0
   -6.7149    1.6577  -10.0824 C   0  0  0  0  0  0  0  0  0  0  0  0
   -7.3302    0.3507   -6.2172 C   0  0  0  0  0  0  0  0  0  0  0  0
   -6.5900    0.2085   -5.0670 C   0  0  0  0  0  0  0  0  0  0  0  0
   -5.2388    0.3576   -2.6171 C   0  0  0  0  0  0  0  0  0  0  0  0
   -5.5106   -0.9056   -2.1036 C   0  0  0  0  0  0  0  0  0  0  0  0
   -6.1729   -1.0321   -0.9025 C   0  0  0  0  0  0  0  0  0  0  0  0
   -6.5753    0.1008   -0.1971 C   0  0  0  0  0  0  0  0  0  0  0  0
   -7.3911   -0.1882    1.3338 S   0  0  0  0  0  0  0  0  0  0  0  0
   -7.4291    1.4400    2.1278 C   0  0  0  0  0  0  0  0  0  0  0  0
   -6.3421    1.3609   -0.7326 C   0  0  0  0  0  0  0  0  0  0  0  0
   -5.6792    1.4863   -1.9410 C   0  0  0  0  0  0  0  0  0  0  0  0
   -2.4410    1.1074   -2.7000 C   0  0  0  0  0  0  0  0  0  0  0  0
   -2.8163    1.4393   -1.0428 S   0  0  0  0  0  0  0  0  0  0  0  0
   -2.3670   -0.9046   -5.7514 C   0  0  0  0  0  0  0  0  0  0  0  0
   -3.3435   -1.8955   -5.8373 C   0  0  0  0  0  0  0  0  0  0  0  0
   -4.3805   -1.9142   -4.9785 F   0  0  0  0  0  0  0  0  0  0  0  0
   -3.2644   -2.9985   -6.6980 C   0  0  0  0  0  0  0  0  0  0  0  0
   -4.2804   -3.8720   -6.6335 F   0  0  0  0  0  0  0  0  0  0  0  0
   -2.1770   -3.2953   -7.5132 C   0  0  0  0  0  0  0  0  0  0  0  0
   -1.1788   -2.2872   -7.5029 C   0  0  0  0  0  0  0  0  0  0  0  0
   -1.2919   -1.1217   -6.6638 C   0  0  0  0  0  0  0  0  0  0  0  0
   -0.2381   -0.3704   -6.8914 N   0  0  0  0  0  0  0  0  0  0  0  0
    0.4845   -1.0042   -7.8130 O   0  0  0  0  0  0  0  0  0  0  0  0
   -0.0666   -2.1556   -8.1953 N   0  0  0  0  0  0  0  0  0  0  0  0
   -2.0988   -4.5289   -8.2257 C   0  0  0  0  0  0  0  0  0  0  0  0
   -0.9871   -5.1951   -8.6114 C   0  0  0  0  0  0  0  0  0  0  0  0
    0.6849   -4.8066   -8.2934 S   0  0  0  0  0  0  0  0  0  0  0  0
    1.2344   -6.3710   -8.9790 C   0  0  0  0  0  0  0  0  0  0  0  0
    2.3763   -6.7262   -9.0078 O   0  0  0  0  0  0  0  0  0  0  0  0
    0.1532   -7.0636   -9.4444 N   0  0  0  0  0  0  0  0  0  0  0  0
    0.3253   -8.3505  -10.0989 C   0  0  0  0  0  0  0  0  0  0  0  0
    0.7206   -8.1763  -11.5590 C   0  0  0  0  0  0  0  0  0  0  0  0
   -1.0970   -6.4953   -9.2919 C   0  0  0  0  0  0  0  0  0  0  0  0
   -2.1217   -7.0188   -9.6599 O   0  0  0  0  0  0  0  0  0  0  0  0
    2.6337    0.8517    6.3478 H   0  0  0  0  0  0  0  0  0  0  0  0
    3.9722   -3.8226    8.5970 H   0  0  0  0  0  0  0  0  0  0  0  0
    2.9415   -4.9044    3.7550 H   0  0  0  0  0  0  0  0  0  0  0  0
    4.4649   -7.5746    5.2876 H   0  0  0  0  0  0  0  0  0  0  0  0
    1.8592   -8.0858    5.0743 H   0  0  0  0  0  0  0  0  0  0  0  0
    3.0367  -10.1896    6.1188 H   0  0  0  0  0  0  0  0  0  0  0  0
    3.5849   -9.6529    8.6622 H   0  0  0  0  0  0  0  0  0  0  0  0
    2.7428   -7.2197    9.1846 H   0  0  0  0  0  0  0  0  0  0  0  0
    0.8205   -7.9129    7.5032 H   0  0  0  0  0  0  0  0  0  0  0  0
    1.4155   -6.3034    7.0352 H   0  0  0  0  0  0  0  0  0  0  0  0
    5.0017   -7.0483    7.7803 H   0  0  0  0  0  0  0  0  0  0  0  0
    3.5301    2.7274    2.1037 H   0  0  0  0  0  0  0  0  0  0  0  0
    4.2120    4.4914    0.5342 H   0  0  0  0  0  0  0  0  0  0  0  0
    4.3566    5.9284   -1.2132 H   0  0  0  0  0  0  0  0  0  0  0  0
    5.1094    7.5347   -1.2556 H   0  0  0  0  0  0  0  0  0  0  0  0
    5.6759    6.3396   -0.0626 H   0  0  0  0  0  0  0  0  0  0  0  0
    2.1408    7.3931    2.8948 H   0  0  0  0  0  0  0  0  0  0  0  0
    1.5058    5.6255    4.5013 H   0  0  0  0  0  0  0  0  0  0  0  0
    4.3327    4.2075    5.1919 H   0  0  0  0  0  0  0  0  0  0  0  0
    4.9698    4.5533    7.5480 H   0  0  0  0  0  0  0  0  0  0  0  0
    2.8589    1.7140   10.3692 H   0  0  0  0  0  0  0  0  0  0  0  0
    1.7859    2.9788   11.0558 H   0  0  0  0  0  0  0  0  0  0  0  0
    3.3103    2.5650   11.8653 H   0  0  0  0  0  0  0  0  0  0  0  0
    1.2637    2.8245    8.7975 H   0  0  0  0  0  0  0  0  0  0  0  0
    0.6273    2.4974    6.4674 H   0  0  0  0  0  0  0  0  0  0  0  0
   -3.5564   -1.4586   -0.4717 H   0  0  0  0  0  0  0  0  0  0  0  0
   -3.1326   -2.6695   -2.5727 H   0  0  0  0  0  0  0  0  0  0  0  0
    1.5333   -3.7734   -3.6849 H   0  0  0  0  0  0  0  0  0  0  0  0
    1.1812   -2.1457   -4.3575 H   0  0  0  0  0  0  0  0  0  0  0  0
    1.0259   -3.5966   -5.3769 H   0  0  0  0  0  0  0  0  0  0  0  0
    1.0659   -2.4185   -1.8625 H   0  0  0  0  0  0  0  0  0  0  0  0
    0.6620   -1.1383    0.1631 H   0  0  0  0  0  0  0  0  0  0  0  0
   -3.0087   -2.7158    1.5938 H   0  0  0  0  0  0  0  0  0  0  0  0
   -4.9395   -3.0088    3.0422 H   0  0  0  0  0  0  0  0  0  0  0  0
   -7.3654   -2.5748    3.1937 H   0  0  0  0  0  0  0  0  0  0  0  0
   -8.1589   -2.5999    4.7864 H   0  0  0  0  0  0  0  0  0  0  0  0
   -6.6169   -3.4537    4.5712 H   0  0  0  0  0  0  0  0  0  0  0  0
   -4.7712    1.1230    4.1197 H   0  0  0  0  0  0  0  0  0  0  0  0
   -2.8685    1.4389    2.6040 H   0  0  0  0  0  0  0  0  0  0  0  0
    1.3368   -0.1983   -2.8726 H   0  0  0  0  0  0  0  0  0  0  0  0
    3.2114   -1.6990   -2.3645 H   0  0  0  0  0  0  0  0  0  0  0  0
    5.0455   -3.0112   -2.2255 H   0  0  0  0  0  0  0  0  0  0  0  0
    4.1781   -3.2752   -0.6679 H   0  0  0  0  0  0  0  0  0  0  0  0
    5.9144   -3.6218   -0.8034 H   0  0  0  0  0  0  0  0  0  0  0  0
    4.9179    1.2867    0.1642 H   0  0  0  0  0  0  0  0  0  0  0  0
    3.0170    2.7868   -0.3469 H   0  0  0  0  0  0  0  0  0  0  0  0
    3.0376    3.2770   -3.1451 H   0  0  0  0  0  0  0  0  0  0  0  0
    3.4782    5.6666   -3.5378 H   0  0  0  0  0  0  0  0  0  0  0  0
    1.4119    9.9842   -1.7845 H   0  0  0  0  0  0  0  0  0  0  0  0
    0.0399    8.8886   -2.0550 H   0  0  0  0  0  0  0  0  0  0  0  0
    1.1924    8.5857   -0.7088 H   0  0  0  0  0  0  0  0  0  0  0  0
   -0.1133    6.6621   -1.4438 H   0  0  0  0  0  0  0  0  0  0  0  0
   -0.5669    4.3072   -1.0869 H   0  0  0  0  0  0  0  0  0  0  0  0
   -3.6862    1.5562   -6.1625 H   0  0  0  0  0  0  0  0  0  0  0  0
   -4.9794    1.7885   -8.1840 H   0  0  0  0  0  0  0  0  0  0  0  0
   -7.3204    1.6864  -10.9830 H   0  0  0  0  0  0  0  0  0  0  0  0
   -5.8762    0.9823  -10.2235 H   0  0  0  0  0  0  0  0  0  0  0  0
   -6.3793    2.6603   -9.8335 H   0  0  0  0  0  0  0  0  0  0  0  0
   -8.3587    0.0258   -6.2436 H   0  0  0  0  0  0  0  0  0  0  0  0
   -7.0435   -0.2326   -4.1939 H   0  0  0  0  0  0  0  0  0  0  0  0
   -5.2103   -1.7799   -2.6569 H   0  0  0  0  0  0  0  0  0  0  0  0
   -6.3830   -2.0084   -0.4930 H   0  0  0  0  0  0  0  0  0  0  0  0
   -7.7400    1.2563    3.1518 H   0  0  0  0  0  0  0  0  0  0  0  0
   -6.4305    1.8659    2.1156 H   0  0  0  0  0  0  0  0  0  0  0  0
   -8.1475    2.0856    1.6307 H   0  0  0  0  0  0  0  0  0  0  0  0
   -6.6724    2.2509   -0.2221 H   0  0  0  0  0  0  0  0  0  0  0  0
   -5.5000    2.4660   -2.3581 H   0  0  0  0  0  0  0  0  0  0  0  0
   -3.0372   -5.0350   -8.4234 H   0  0  0  0  0  0  0  0  0  0  0  0
   -0.6323   -8.8697  -10.0169 H   0  0  0  0  0  0  0  0  0  0  0  0
    1.0989   -8.8995   -9.5571 H   0  0  0  0  0  0  0  0  0  0  0  0
    1.6660   -7.6436  -11.6309 H   0  0  0  0  0  0  0  0  0  0  0  0
   -0.0448   -7.6180  -12.0931 H   0  0  0  0  0  0  0  0  0  0  0  0
    0.8322   -9.1509  -12.0253 H   0  0  0  0  0  0  0  0  0  0  0  0
  1  2  2  0  0  0  0
  2  3  1  0  0  0  0
  3  4  2  0  0  0  0
  3  5  1  0  0  0  0
  5  6  2  0  0  0  0
  6  7  1  0  0  0  0
  7  8  2  0  0  0  0
  8  9  1  0  0  0  0
  9 10  2  0  0  0  0
 10 11  1  0  0  0  0
 11 12  2  0  0  0  0
 12 13  1  0  0  0  0
 13 14  3  0  0  0  0
 12 15  1  0  0  0  0
 15 16  3  0  0  0  0
  8 17  1  0  0  0  0
 17 18  1  0  0  0  0
 18 19  1  0  0  0  0
 19 20  2  0  0  0  0
 20 21  1  0  0  0  0
 21 22  1  0  0  0  0
 21 23  1  0  0  0  0
  1 24  1  0  0  0  0
 24 25  2  0  0  0  0
 25 26  1  0  0  0  0
 26 27  1  0  0  0  0
 27 28  2  0  0  0  0
 28 29  1  0  0  0  0
 29 30  2  0  0  0  0
 30 31  1  0  0  0  0
 31 32  1  0  0  0  0
 30 33  1  0  0  0  0
 33 34  2  0  0  0  0
 26 35  1  0  0  0  0
 35 36  2  0  0  0  0
 36 37  1  0  0  0  0
 37 38  2  0  0  0  0
 38 39  1  0  0  0  0
 39 40  1  0  0  0  0
 38 41  1  0  0  0  0
 41 42  2  0  0  0  0
 25 43  1  0  0  0  0
 43 44  1  0  0  0  0
 44 45  1  0  0  0  0
 45 46  2  0  0  0  0
 46 47  1  0  0  0  0
 47 48  1  0  0  0  0
 48 49  2  0  0  0  0
 49 50  1  0  0  0  0
 50 51  2  0  0  0  0
 51 52  1  0  0  0  0
 52 53  1  0  0  0  0
 51 54  1  0  0  0  0
 54 55  2  0  0  0  0
 47 56  1  0  0  0  0
 56 57  2  0  0  0  0
 57 58  1  0  0  0  0
 58 59  2  0  0  0  0
 59 60  1  0  0  0  0
 60 61  1  0  0  0  0
 59 62  1  0  0  0  0
 62 63  2  0  0  0  0
 46 64  1  0  0  0  0
 64 65  1  0  0  0  0
 45 66  1  0  0  0  0
 66 67  2  0  0  0  0
 67 68  1  0  0  0  0
 68 69  1  0  0  0  0
 69 70  2  0  0  0  0
 70 71  1  0  0  0  0
 71 72  2  0  0  0  0
 72 73  1  0  0  0  0
 73 74  1  0  0  0  0
 72 75  1  0  0  0  0
 75 76  2  0  0  0  0
 68 77  1  0  0  0  0
 77 78  2  0  0  0  0
 78 79  1  0  0  0  0
 79 80  2  0  0  0  0
 80 81  1  0  0  0  0
 81 82  1  0  0  0  0
 80 83  1  0  0  0  0
 83 84  2  0  0  0  0
 67 85  1  0  0  0  0
 85 86  1  0  0  0  0
 86 87  1  0  0  0  0
 87 88  2  0  0  0  0
 88 89  1  0  0  0  0
 89 90  1  0  0  0  0
 90 91  2  0  0  0  0
 91 92  1  0  0  0  0
 92 93  2  0  0  0  0
 93 94  1  0  0  0  0
 94 95  1  0  0  0  0
 93 96  1  0  0  0  0
 96 97  2  0  0  0  0
 89 98  1  0  0  0  0
 98 99  2  0  0  0  0
 99100  1  0  0  0  0
100101  2  0  0  0  0
101102  1  0  0  0  0
102103  1  0  0  0  0
101104  1  0  0  0  0
104105  2  0  0  0  0
 88106  1  0  0  0  0
106107  1  0  0  0  0
 87108  1  0  0  0  0
108109  2  0  0  0  0
109110  1  0  0  0  0
109111  1  0  0  0  0
111112  1  0  0  0  0
111113  2  0  0  0  0
113114  1  0  0  0  0
114115  1  0  0  0  0
115116  2  0  0  0  0
116117  1  0  0  0  0
117118  1  0  0  0  0
113119  1  0  0  0  0
119120  2  0  0  0  0
120121  1  0  0  0  0
121122  1  0  0  0  0
122123  2  0  0  0  0
122124  1  0  0  0  0
124125  1  0  0  0  0
125126  1  0  0  0  0
124127  1  0  0  0  0
127128  2  0  0  0  0
 11  2  1  0  0  0  0
 23 17  1  0  0  0  0
 65 24  1  0  0  0  0
107 66  1  0  0  0  0
115108  1  0  0  0  0
127120  1  0  0  0  0
 10  5  1  0  0  0  0
 22 18  1  0  0  0  0
 34 27  1  0  0  0  0
 42 35  1  0  0  0  0
 64 43  2  0  0  0  0
 76 69  1  0  0  0  0
 84 77  1  0  0  0  0
106 85  2  0  0  0  0
118114  2  0  0  0  0
 23  7  1  0  0  0  0
 55 48  1  0  0  0  0
 63 56  1  0  0  0  0
 97 90  1  0  0  0  0
105 98  1  0  0  0  0
  1129  1  0  0  0  0
  6130  1  0  0  0  0
  9131  1  0  0  0  0
 17132  1  0  0  0  0
 18133  1  0  0  0  0
 19134  1  0  0  0  0
 20135  1  0  0  0  0
 21136  1  0  0  0  0
 22137  1  0  0  0  0
 22138  1  0  0  0  0
 23139  1  0  0  0  0
 28140  1  0  0  0  0
 29141  1  0  0  0  0
 32142  1  0  0  0  0
 32143  1  0  0  0  0
 32144  1  0  0  0  0
 33145  1  0  0  0  0
 34146  1  0  0  0  0
 36147  1  0  0  0  0
 37148  1  0  0  0  0
 40149  1  0  0  0  0
 40150  1  0  0  0  0
 40151  1  0  0  0  0
 41152  1  0  0  0  0
 42153  1  0  0  0  0
 49154  1  0  0  0  0
 50155  1  0  0  0  0
 53156  1  0  0  0  0
 53157  1  0  0  0  0
 53158  1  0  0  0  0
 54159  1  0  0  0  0
 55160  1  0  0  0  0
 57161  1  0  0  0  0
 58162  1  0  0  0  0
 61163  1  0  0  0  0
 61164  1  0  0  0  0
 61165  1  0  0  0  0
 62166  1  0  0  0  0
 63167  1  0  0  0  0
 70168  1  0  0  0  0
 71169  1  0  0  0  0
 74170  1  0  0  0  0
 74171  1  0  0  0  0
 74172  1  0  0  0  0
 75173  1  0  0  0  0
 76174  1  0  0  0  0
 78175  1  0  0  0  0
 79176  1  0  0  0  0
 82177  1  0  0  0  0
 82178  1  0  0  0  0
 82179  1  0  0  0  0
 83180  1  0  0  0  0
 84181  1  0  0  0  0
 91182  1  0  0  0  0
 92183  1  0  0  0  0
 95184  1  0  0  0  0
 95185  1  0  0  0  0
 95186  1  0  0  0  0
 96187  1  0  0  0  0
 97188  1  0  0  0  0
 99189  1  0  0  0  0
100190  1  0  0  0  0
103191  1  0  0  0  0
103192  1  0  0  0  0
103193  1  0  0  0  0
104194  1  0  0  0  0
105195  1  0  0  0  0
119196  1  0  0  0  0
125197  1  0  0  0  0
125198  1  0  0  0  0
126199  1  0  0  0  0
126200  1  0  0  0  0
126201  1  0  0  0  0
M  END
