
  xtb     02142222593D
 energy: -227.838843045561 gnorm: 0.000322334550 xtb: 6.4.1 (unknown)
136152  0     0  0            999 V2000
   -3.7137    1.6427   -7.7139 C   0  0  0  0  0  0  0  0  0  0  0  0
   -4.9617    1.0848   -7.6212 C   0  0  0  0  0  0  0  0  0  0  0  0
   -5.7514    0.9040   -6.3959 C   0  0  0  0  0  0  0  0  0  0  0  0
   -5.5227    1.3565   -5.2885 O   0  0  0  0  0  0  0  0  0  0  0  0
   -6.8997    0.0600   -6.7657 C   0  0  0  0  0  0  0  0  0  0  0  0
   -7.8751   -0.4441   -5.9094 C   0  0  0  0  0  0  0  0  0  0  0  0
   -8.8092   -1.2358   -6.5325 C   0  0  0  0  0  0  0  0  0  0  0  0
   -8.7754   -1.5052   -7.9073 C   0  0  0  0  0  0  0  0  0  0  0  0
   -7.8196   -1.0107   -8.7630 C   0  0  0  0  0  0  0  0  0  0  0  0
   -6.8591   -0.2010   -8.1499 C   0  0  0  0  0  0  0  0  0  0  0  0
   -5.6917    0.4734   -8.7165 C   0  0  0  0  0  0  0  0  0  0  0  0
   -5.3760    0.5227  -10.0504 C   0  0  0  0  0  0  0  0  0  0  0  0
   -4.2629    1.1846  -10.6091 C   0  0  0  0  0  0  0  0  0  0  0  0
   -3.3847    1.6964  -11.1457 N   0  0  0  0  0  0  0  0  0  0  0  0
   -6.1429   -0.0719  -11.0742 C   0  0  0  0  0  0  0  0  0  0  0  0
   -6.7142   -0.5254  -11.9611 N   0  0  0  0  0  0  0  0  0  0  0  0
  -10.0089   -2.3713   -7.8478 C   0  0  0  0  0  0  0  0  0  0  0  0
  -11.3429   -1.7651   -8.3487 C   0  0  0  0  0  0  0  0  0  0  0  0
  -11.2285   -0.2715   -8.1702 C   0  0  0  0  0  0  0  0  0  0  0  0
  -11.2603   -0.0154   -6.8693 C   0  0  0  0  0  0  0  0  0  0  0  0
  -11.3963   -1.3316   -6.1443 C   0  0  0  0  0  0  0  0  0  0  0  0
  -12.2496   -2.1119   -7.1568 C   0  0  0  0  0  0  0  0  0  0  0  0
  -10.0461   -2.0704   -6.3162 C   0  0  0  0  0  0  0  0  0  0  0  0
   -2.8627    2.1568   -6.7235 C   0  0  0  0  0  0  0  0  0  0  0  0
   -1.5284    2.5117   -6.9826 C   0  0  0  0  0  0  0  0  0  0  0  0
   -0.8376    2.4359   -8.3054 C   0  0  0  0  0  0  0  0  0  0  0  0
   -0.2884    1.0279   -8.5527 C   0  0  0  0  0  0  0  0  0  0  0  0
   -0.8748    2.8702   -5.8082 C   0  0  0  0  0  0  0  0  0  0  0  0
   -1.6852    2.8462   -4.6649 C   0  0  0  0  0  0  0  0  0  0  0  0
   -3.2919    2.3448   -5.0222 S   0  0  0  0  0  0  0  0  0  0  0  0
   -0.9967    3.1442   -3.4888 C   0  0  0  0  0  0  0  0  0  0  0  0
    0.3430    3.3731   -3.7127 C   0  0  0  0  0  0  0  0  0  0  0  0
    0.7635    3.2618   -5.4098 S   0  0  0  0  0  0  0  0  0  0  0  0
    1.3375    3.5408   -2.6845 C   0  0  0  0  0  0  0  0  0  0  0  0
    2.6622    3.1735   -2.8503 C   0  0  0  0  0  0  0  0  0  0  0  0
    3.1152    2.7929   -4.0575 F   0  0  0  0  0  0  0  0  0  0  0  0
    3.5585    3.0764   -1.7769 C   0  0  0  0  0  0  0  0  0  0  0  0
    4.7850    2.6022   -2.0574 F   0  0  0  0  0  0  0  0  0  0  0  0
    3.1871    3.3404   -0.4742 C   0  0  0  0  0  0  0  0  0  0  0  0
    1.8779    3.8667   -0.2907 C   0  0  0  0  0  0  0  0  0  0  0  0
    1.4900    4.2451    0.9405 N   0  0  0  0  0  0  0  0  0  0  0  0
    0.3001    4.7584    1.1221 C   0  0  0  0  0  0  0  0  0  0  0  0
   -0.0706    5.0792    2.5386 C   0  0  0  0  0  0  0  0  0  0  0  0
   -0.8673    3.9235    3.1500 C   0  0  0  0  0  0  0  0  0  0  0  0
   -0.5758    4.9529    0.0181 C   0  0  0  0  0  0  0  0  0  0  0  0
   -0.2280    4.5537   -1.1799 N   0  0  0  0  0  0  0  0  0  0  0  0
    0.9741    3.9893   -1.3776 C   0  0  0  0  0  0  0  0  0  0  0  0
   -1.8860    5.6735    0.1164 C   0  0  0  0  0  0  0  0  0  0  0  0
   -1.6646    7.1790   -0.0537 C   0  0  0  0  0  0  0  0  0  0  0  0
    4.0267    2.9753    0.6694 C   0  0  0  0  0  0  0  0  0  0  0  0
    3.4167    2.3185    1.7326 C   0  0  0  0  0  0  0  0  0  0  0  0
    4.2127    1.8412    2.7583 C   0  0  0  0  0  0  0  0  0  0  0  0
    3.8553    1.1091    3.8602 N   0  0  0  0  0  0  0  0  0  0  0  0
    2.5153    0.7489    4.2384 C   0  0  0  0  0  0  0  0  0  0  0  0
    1.8847    1.8188    5.1287 C   0  0  0  0  0  0  0  0  0  0  0  0
    4.9938    0.7826    4.5504 C   0  0  0  0  0  0  0  0  0  0  0  0
    6.1239    1.3318    3.8885 C   0  0  0  0  0  0  0  0  0  0  0  0
    5.6206    2.0187    2.7403 C   0  0  0  0  0  0  0  0  0  0  0  0
    6.2094    2.7202    1.6918 C   0  0  0  0  0  0  0  0  0  0  0  0
    5.4149    3.1868    0.6684 C   0  0  0  0  0  0  0  0  0  0  0  0
    7.3982    1.1126    4.4087 C   0  0  0  0  0  0  0  0  0  0  0  0
    7.5318    0.3232    5.5253 C   0  0  0  0  0  0  0  0  0  0  0  0
    6.4136   -0.2786    6.1438 C   0  0  0  0  0  0  0  0  0  0  0  0
    5.1275    0.0044    5.6843 C   0  0  0  0  0  0  0  0  0  0  0  0
    6.6431   -1.1898    7.2319 C   0  0  0  0  0  0  0  0  0  0  0  0
    5.9384   -2.3146    7.5262 C   0  0  0  0  0  0  0  0  0  0  0  0
    4.9570   -3.0079    6.6466 C   0  0  0  0  0  0  0  0  0  0  0  0
    4.3750   -2.5868    5.6695 O   0  0  0  0  0  0  0  0  0  0  0  0
    4.8538   -4.3801    7.1767 C   0  0  0  0  0  0  0  0  0  0  0  0
    4.1215   -5.4269    6.6204 C   0  0  0  0  0  0  0  0  0  0  0  0
    4.2092   -6.6046    7.3212 C   0  0  0  0  0  0  0  0  0  0  0  0
    4.9728   -6.7359    8.4898 C   0  0  0  0  0  0  0  0  0  0  0  0
    5.6940   -5.7104    9.0527 C   0  0  0  0  0  0  0  0  0  0  0  0
    5.6159   -4.5005    8.3553 C   0  0  0  0  0  0  0  0  0  0  0  0
    6.2319   -3.2100    8.6373 C   0  0  0  0  0  0  0  0  0  0  0  0
    6.8898   -2.8666    9.7872 C   0  0  0  0  0  0  0  0  0  0  0  0
    7.3712   -1.5718   10.0790 C   0  0  0  0  0  0  0  0  0  0  0  0
    7.7663   -0.5425   10.3996 N   0  0  0  0  0  0  0  0  0  0  0  0
    7.1277   -3.7487   10.8620 C   0  0  0  0  0  0  0  0  0  0  0  0
    7.3568   -4.4172   11.7667 N   0  0  0  0  0  0  0  0  0  0  0  0
    4.6207   -8.1938    8.6496 C   0  0  0  0  0  0  0  0  0  0  0  0
    5.6847   -9.2428    8.2414 C   0  0  0  0  0  0  0  0  0  0  0  0
    6.5503   -8.5914    7.1915 C   0  0  0  0  0  0  0  0  0  0  0  0
    5.8244   -8.4659    6.0886 C   0  0  0  0  0  0  0  0  0  0  0  0
    4.4543   -9.0303    6.3729 C   0  0  0  0  0  0  0  0  0  0  0  0
    4.8229  -10.1549    7.3535 C   0  0  0  0  0  0  0  0  0  0  0  0
    3.7667   -8.0457    7.3510 C   0  0  0  0  0  0  0  0  0  0  0  0
   -3.2673    1.6402   -8.6993 H   0  0  0  0  0  0  0  0  0  0  0  0
   -7.8581   -0.2156   -4.8552 H   0  0  0  0  0  0  0  0  0  0  0  0
   -7.8050   -1.2356   -9.8163 H   0  0  0  0  0  0  0  0  0  0  0  0
   -9.8797   -3.4055   -8.1610 H   0  0  0  0  0  0  0  0  0  0  0  0
  -11.6535   -2.1087   -9.3316 H   0  0  0  0  0  0  0  0  0  0  0  0
  -11.0825    0.4184   -8.9806 H   0  0  0  0  0  0  0  0  0  0  0  0
  -11.1459    0.9315   -6.3750 H   0  0  0  0  0  0  0  0  0  0  0  0
  -11.7560   -1.2809   -5.1198 H   0  0  0  0  0  0  0  0  0  0  0  0
  -13.2551   -1.7072   -7.2607 H   0  0  0  0  0  0  0  0  0  0  0  0
  -12.3023   -3.1796   -6.9479 H   0  0  0  0  0  0  0  0  0  0  0  0
   -9.9413   -2.9084   -5.6295 H   0  0  0  0  0  0  0  0  0  0  0  0
   -1.5123    2.7121   -9.1170 H   0  0  0  0  0  0  0  0  0  0  0  0
   -0.0058    3.1432   -8.2975 H   0  0  0  0  0  0  0  0  0  0  0  0
   -1.0933    0.2963   -8.5588 H   0  0  0  0  0  0  0  0  0  0  0  0
    0.4210    0.7567   -7.7742 H   0  0  0  0  0  0  0  0  0  0  0  0
    0.2178    0.9926   -9.5133 H   0  0  0  0  0  0  0  0  0  0  0  0
   -1.4388    3.1629   -2.5120 H   0  0  0  0  0  0  0  0  0  0  0  0
    0.8526    5.2172    3.1028 H   0  0  0  0  0  0  0  0  0  0  0  0
   -0.6543    5.9982    2.5865 H   0  0  0  0  0  0  0  0  0  0  0  0
   -0.2844    3.0067    3.1130 H   0  0  0  0  0  0  0  0  0  0  0  0
   -1.1053    4.1415    4.1881 H   0  0  0  0  0  0  0  0  0  0  0  0
   -1.7964    3.7591    2.6084 H   0  0  0  0  0  0  0  0  0  0  0  0
   -2.5310    5.3188   -0.6883 H   0  0  0  0  0  0  0  0  0  0  0  0
   -2.3689    5.4750    1.0727 H   0  0  0  0  0  0  0  0  0  0  0  0
   -2.6137    7.7052    0.0069 H   0  0  0  0  0  0  0  0  0  0  0  0
   -1.2160    7.3799   -1.0234 H   0  0  0  0  0  0  0  0  0  0  0  0
   -1.0023    7.5659    0.7182 H   0  0  0  0  0  0  0  0  0  0  0  0
    2.3520    2.1551    1.7247 H   0  0  0  0  0  0  0  0  0  0  0  0
    1.9216    0.6191    3.3297 H   0  0  0  0  0  0  0  0  0  0  0  0
    2.5514   -0.2112    4.7590 H   0  0  0  0  0  0  0  0  0  0  0  0
    1.8663    2.7740    4.6088 H   0  0  0  0  0  0  0  0  0  0  0  0
    2.4609    1.9359    6.0435 H   0  0  0  0  0  0  0  0  0  0  0  0
    0.8674    1.5399    5.3905 H   0  0  0  0  0  0  0  0  0  0  0  0
    7.2766    2.8797    1.6730 H   0  0  0  0  0  0  0  0  0  0  0  0
    5.8645    3.7260   -0.1502 H   0  0  0  0  0  0  0  0  0  0  0  0
    8.2642    1.5469    3.9329 H   0  0  0  0  0  0  0  0  0  0  0  0
    8.5138    0.1191    5.9256 H   0  0  0  0  0  0  0  0  0  0  0  0
    4.2684   -0.3680    6.2143 H   0  0  0  0  0  0  0  0  0  0  0  0
    7.5322   -0.9888    7.8196 H   0  0  0  0  0  0  0  0  0  0  0  0
    3.5490   -5.2830    5.7173 H   0  0  0  0  0  0  0  0  0  0  0  0
    6.2796   -5.8259    9.9496 H   0  0  0  0  0  0  0  0  0  0  0  0
    4.1069   -8.4616    9.5707 H   0  0  0  0  0  0  0  0  0  0  0  0
    6.2067   -9.7036    9.0756 H   0  0  0  0  0  0  0  0  0  0  0  0
    7.5524   -8.2479    7.3704 H   0  0  0  0  0  0  0  0  0  0  0  0
    6.0986   -7.9963    5.1620 H   0  0  0  0  0  0  0  0  0  0  0  0
    3.8559   -9.2978    5.5059 H   0  0  0  0  0  0  0  0  0  0  0  0
    5.3985  -10.9510    6.8838 H   0  0  0  0  0  0  0  0  0  0  0  0
    3.9633  -10.5784    7.8711 H   0  0  0  0  0  0  0  0  0  0  0  0
    2.6941   -8.2148    7.4246 H   0  0  0  0  0  0  0  0  0  0  0  0
  1  2  2  0  0  0  0
  2  3  1  0  0  0  0
  3  4  2  0  0  0  0
  3  5  1  0  0  0  0
  5  6  2  0  0  0  0
  6  7  1  0  0  0  0
  7  8  2  0  0  0  0
  8  9  1  0  0  0  0
  9 10  2  0  0  0  0
 10 11  1  0  0  0  0
 11 12  2  0  0  0  0
 12 13  1  0  0  0  0
 13 14  3  0  0  0  0
 12 15  1  0  0  0  0
 15 16  3  0  0  0  0
  8 17  1  0  0  0  0
 17 18  1  0  0  0  0
 18 19  1  0  0  0  0
 19 20  2  0  0  0  0
 20 21  1  0  0  0  0
 21 22  1  0  0  0  0
 21 23  1  0  0  0  0
  1 24  1  0  0  0  0
 24 25  2  0  0  0  0
 25 26  1  0  0  0  0
 26 27  1  0  0  0  0
 25 28  1  0  0  0  0
 28 29  2  0  0  0  0
 29 30  1  0  0  0  0
 29 31  1  0  0  0  0
 31 32  2  0  0  0  0
 32 33  1  0  0  0  0
 32 34  1  0  0  0  0
 34 35  2  0  0  0  0
 35 36  1  0  0  0  0
 35 37  1  0  0  0  0
 37 38  1  0  0  0  0
 37 39  2  0  0  0  0
 39 40  1  0  0  0  0
 40 41  2  0  0  0  0
 41 42  1  0  0  0  0
 42 43  1  0  0  0  0
 43 44  1  0  0  0  0
 42 45  2  0  0  0  0
 45 46  1  0  0  0  0
 46 47  2  0  0  0  0
 45 48  1  0  0  0  0
 48 49  1  0  0  0  0
 39 50  1  0  0  0  0
 50 51  2  0  0  0  0
 51 52  1  0  0  0  0
 52 53  1  0  0  0  0
 53 54  1  0  0  0  0
 54 55  1  0  0  0  0
 53 56  1  0  0  0  0
 56 57  2  0  0  0  0
 57 58  1  0  0  0  0
 58 59  1  0  0  0  0
 59 60  2  0  0  0  0
 57 61  1  0  0  0  0
 61 62  2  0  0  0  0
 62 63  1  0  0  0  0
 63 64  2  0  0  0  0
 63 65  1  0  0  0  0
 65 66  2  0  0  0  0
 66 67  1  0  0  0  0
 67 68  2  0  0  0  0
 67 69  1  0  0  0  0
 69 70  2  0  0  0  0
 70 71  1  0  0  0  0
 71 72  2  0  0  0  0
 72 73  1  0  0  0  0
 73 74  2  0  0  0  0
 74 75  1  0  0  0  0
 75 76  2  0  0  0  0
 76 77  1  0  0  0  0
 77 78  3  0  0  0  0
 76 79  1  0  0  0  0
 79 80  3  0  0  0  0
 72 81  1  0  0  0  0
 81 82  1  0  0  0  0
 82 83  1  0  0  0  0
 83 84  2  0  0  0  0
 84 85  1  0  0  0  0
 85 86  1  0  0  0  0
 85 87  1  0  0  0  0
 11  2  1  0  0  0  0
 23 17  1  0  0  0  0
 30 24  1  0  0  0  0
 47 34  1  0  0  0  0
 60 50  1  0  0  0  0
 75 66  1  0  0  0  0
 87 81  1  0  0  0  0
 10  5  1  0  0  0  0
 22 18  1  0  0  0  0
 33 28  1  0  0  0  0
 47 40  1  0  0  0  0
 58 52  2  0  0  0  0
 74 69  1  0  0  0  0
 86 82  1  0  0  0  0
 23  7  1  0  0  0  0
 64 56  1  0  0  0  0
 87 71  1  0  0  0  0
  1 88  1  0  0  0  0
  6 89  1  0  0  0  0
  9 90  1  0  0  0  0
 17 91  1  0  0  0  0
 18 92  1  0  0  0  0
 19 93  1  0  0  0  0
 20 94  1  0  0  0  0
 21 95  1  0  0  0  0
 22 96  1  0  0  0  0
 22 97  1  0  0  0  0
 23 98  1  0  0  0  0
 26 99  1  0  0  0  0
 26100  1  0  0  0  0
 27101  1  0  0  0  0
 27102  1  0  0  0  0
 27103  1  0  0  0  0
 31104  1  0  0  0  0
 43105  1  0  0  0  0
 43106  1  0  0  0  0
 44107  1  0  0  0  0
 44108  1  0  0  0  0
 44109  1  0  0  0  0
 48110  1  0  0  0  0
 48111  1  0  0  0  0
 49112  1  0  0  0  0
 49113  1  0  0  0  0
 49114  1  0  0  0  0
 51115  1  0  0  0  0
 54116  1  0  0  0  0
 54117  1  0  0  0  0
 55118  1  0  0  0  0
 55119  1  0  0  0  0
 55120  1  0  0  0  0
 59121  1  0  0  0  0
 60122  1  0  0  0  0
 61123  1  0  0  0  0
 62124  1  0  0  0  0
 64125  1  0  0  0  0
 65126  1  0  0  0  0
 70127  1  0  0  0  0
 73128  1  0  0  0  0
 81129  1  0  0  0  0
 82130  1  0  0  0  0
 83131  1  0  0  0  0
 84132  1  0  0  0  0
 85133  1  0  0  0  0
 86134  1  0  0  0  0
 86135  1  0  0  0  0
 87136  1  0  0  0  0
M  END
