202

C         -9.57410       -4.53540        1.74380
C        -10.17670       -4.56070        2.96990
C         -9.70530       -3.88020        4.18850
O         -8.65370       -3.29180        4.35420
C        -10.77440       -4.04490        5.18790
C        -10.79810       -3.52110        6.47810
C        -11.93510       -3.82880        7.18520
C        -12.97550       -4.59750        6.64610
C        -12.96520       -5.11830        5.37390
C        -11.81330       -4.82330        4.63850
C        -11.44140       -5.20300        3.27730
C        -12.14550       -6.06040        2.47070
C        -13.36380       -6.67370        2.83050
N        -14.35670       -7.20640        3.05200
C        -11.75370       -6.49220        1.18620
N        -11.50900       -6.90810        0.14320
C        -13.79510       -4.51800        7.90960
C        -13.81630       -5.76140        8.83280
C        -12.52340       -6.49940        8.58850
C        -11.53900       -5.77190        9.09920
C        -12.14860       -4.52810        9.69760
C        -13.49540       -5.09120       10.17840
C        -12.63590       -3.66150        8.50990
C         -8.35940       -3.95170        1.33390
C         -7.93050       -4.01590        0.01940
C         -6.69780       -3.39480       -0.22030
C         -6.00480       -3.28710       -1.45740
C         -6.36180       -4.08490       -2.59940
C         -6.16680       -3.81000       -3.92950
C         -6.50580       -4.83290       -4.82960
C         -6.97350       -5.98480       -4.25340
S         -7.47820       -7.37840       -5.17930
C         -8.28440       -8.42950       -3.91880
C         -7.29430       -9.25550       -3.12280
Se        -7.01700       -5.84180       -2.38300
C         -4.91050       -2.42960       -1.45300
C         -4.42590       -1.80140       -0.27730
C         -5.00330       -2.05990        0.98370
C         -4.38660       -1.68050        2.23930
C         -4.41520       -2.44300        3.37960
C         -3.70520       -1.94970        4.48880
C         -3.09190       -0.74840        4.28650
S         -2.08660        0.17080        5.38300
C         -2.85910       -0.18980        7.00320
C         -4.28780        0.30820        7.07770
Se        -3.38520       -0.10310        2.55740
C         -6.17580       -2.81600        0.96500
S         -7.20670       -3.10420        2.33770
C         -3.26020       -1.05200       -0.53930
C         -2.81660       -1.11720       -1.82590
S         -3.88390       -2.07260       -2.82580
C         -1.55580       -0.57780       -2.22930
C         -0.43470       -0.59760       -1.40900
N         -0.32060       -1.35230       -0.24330
C         -0.92790       -2.61650       -0.23780
C         -1.66870       -3.08360        0.84830
C         -2.43190       -4.22450        0.72940
C         -2.47550       -4.92790       -0.47110
S         -3.62420       -6.26560       -0.57760
C         -3.53490       -6.76190       -2.32170
C         -1.64800       -4.53490       -1.51470
C         -0.87820       -3.39710       -1.39160
C          0.06980       -0.71610        0.94160
C          0.68580       -1.43550        1.96150
C          1.05260       -0.81550        3.13930
C          0.82080        0.54250        3.31620
S          1.26860        1.44200        4.76460
C          1.63770        0.14170        5.97580
C          0.21950        1.26970        2.29240
C         -0.15700        0.64940        1.12180
C          0.60510        0.18120       -1.96060
S          2.18310        0.62880       -1.42920
C          2.43440        1.57090       -2.89480
C          1.36040        1.47510       -3.77520
N          1.28400        2.01230       -5.05390
C          2.35320        1.93590       -5.94670
C          2.47930        2.87640       -6.96940
C          3.54960        2.83990       -7.84060
C          4.52630        1.86250       -7.70300
S          5.96150        1.74340       -8.72890
C          5.60020        2.86920      -10.10710
C          4.40610        0.91980       -6.68460
C          3.33490        0.95120       -5.82100
C          0.03030        2.49040       -5.47440
C         -0.73520        3.26770       -4.61020
C         -1.98590        3.71910       -4.98470
C         -2.48930        3.40310       -6.23880
S         -4.06740        3.92230       -6.83310
C         -4.86530        4.64850       -5.37320
C         -1.72000        2.63510       -7.11210
C         -0.47770        2.17880       -6.73560
C          0.31030        0.71390       -3.20660
S         -1.27980        0.26990       -3.73600
C          3.63630        2.32470       -2.99530
S          4.93560        1.97060       -1.85890
C          5.88920        3.23650       -2.53540
C          7.11200        3.88250       -2.38810
C          7.16550        4.88520       -3.38780
N          5.99880        4.87820       -4.10780
C          5.71470        5.68100       -5.26800
C          6.28290        5.04780       -6.53620
C          5.21830        3.87540       -3.60280
C          3.93930        3.36830       -3.84560
C          8.34680        5.61910       -3.37290
C          9.17700        5.24130       -2.33120
S          8.51850        3.89140       -1.40090
C         10.44340        5.79500       -2.03550
C         11.10790        5.78900       -0.84750
C         12.57800        5.99560       -0.79930
O         13.28460        6.39850       -1.69720
C         12.98890        5.55520        0.54940
C         14.28700        5.44570        1.04510
C         14.35640        4.98880        2.33940
C         13.22110        4.64620        3.08630
C         11.93460        4.75200        2.61440
C         11.84250        5.23310        1.30610
C         10.65990        5.53140        0.50320
C          9.41600        5.81880        1.00370
C          9.05760        5.67370        2.35780
N          8.71450        5.57050        3.44890
C          8.39320        6.40950        0.23310
N          7.56160        6.94880       -0.34690
C         14.03440        4.25880        4.29600
C         14.05870        5.27310        5.45900
C         15.27580        4.87460        6.26180
C         16.35010        5.20760        5.55780
C         15.87700        5.83660        4.26700
C         14.60090        6.52840        4.76350
C         15.29990        4.64900        3.46710
H        -10.09630       -5.02760        0.93180
H         -9.97600       -2.93010        6.85060
H        -13.77770       -5.70090        4.97350
H        -14.77540       -4.05520        7.81470
H        -14.72550       -6.35320        8.77150
H        -12.45380       -7.41790        8.03570
H        -10.48220       -5.96090        9.05820
H        -11.53980       -3.99660       10.42450
H        -13.38620       -5.80820       10.99060
H        -14.21160       -4.32090       10.46130
H        -12.85880       -2.63830        8.80630
H         -8.55010       -4.45770       -0.74390
H         -5.82750       -2.84840       -4.27440
H         -6.41920       -4.72340       -5.89670
H         -8.95790       -9.06870       -4.48910
H         -8.87260       -7.77110       -3.27410
H         -6.68900       -9.86960       -3.78560
H         -7.83090       -9.90380       -2.43370
H         -6.63360       -8.61220       -2.53980
H         -4.90350       -3.40100        3.42050
H         -3.64540       -2.49560        5.41470
H         -2.78890       -1.26200        7.18280
H         -2.21980        0.33240        7.71490
H         -4.69200        0.11980        8.07040
H         -4.91260       -0.20160        6.34660
H         -4.32590        1.37750        6.88220
H         -2.74450       -0.46390        0.19880
H         -1.68740       -2.52270        1.77130
H         -3.04090       -4.55530        1.55640
H         -2.55380       -7.16930       -2.54750
H         -4.28690       -7.53590       -2.44480
H         -3.76900       -5.91320       -2.95990
H         -1.60740       -5.09050       -2.43720
H         -0.26260       -3.08270       -2.22150
H          0.88070       -2.48910        1.82640
H          1.52830       -1.40250        3.90820
H          2.55180       -0.37880        5.70560
H          1.77460        0.65360        6.92310
H          0.79380       -0.53880        6.03850
H          0.04150        2.32460        2.43240
H         -0.63840        1.22220        0.34200
H          1.73500        3.65210       -7.07660
H          3.61540        3.58910       -8.61310
H          4.64190        2.61240      -10.54840
H          5.61650        3.90080       -9.76730
H          6.39470        2.70960      -10.82940
H          5.16370        0.15820       -6.58300
H          3.25050        0.20330       -5.04830
H         -0.34520        3.51880       -3.63430
H         -2.55120        4.31890       -4.29010
H         -4.88220        3.92270       -4.56560
H         -5.87960        4.88270       -5.68140
H         -4.35270        5.55940       -5.07780
H         -2.11950        2.39010       -8.08410
H          0.10250        1.56640       -7.40930
H          6.14720        6.67330       -5.11280
H          4.62990        5.78250       -5.35290
H          7.36250        4.94510       -6.45810
H          5.85230        4.06050       -6.68520
H          6.05240        5.67000       -7.39690
H          3.25680        3.76080       -4.57350
H          8.59230        6.42570       -4.03960
H         10.98520        6.22220       -2.87410
H         15.13740        5.70880        0.43560
H         11.06630        4.47760        3.19060
H         13.92840        3.22850        4.63050
H         13.12170        5.36560        6.00110
H         15.23150        4.35810        7.20280
H         17.38230        5.02470        5.79310
H         16.59790        6.44330        3.72570
H         14.81510        7.32960        5.46890
H         13.96130        6.90570        3.96790
H         16.04080        3.88060        3.25320
