203

C         -4.54170       -4.23570       -1.25090
C         -5.74530       -3.84980       -1.79640
C         -6.28970       -2.48870       -1.89520
O         -6.05080       -1.52780       -1.18250
C         -7.25120       -2.51260       -3.01140
C         -7.91010       -1.42580       -3.57990
C         -8.75550       -1.76460       -4.60930
C         -8.92930       -3.08440       -5.04590
C         -8.28160       -4.16590       -4.49530
C         -7.42150       -3.84320       -3.44390
C         -6.59130       -4.70220       -2.60250
C         -6.69790       -6.06700       -2.50270
C         -7.51200       -6.86470       -3.33060
N         -8.14060       -7.56970       -3.98400
C         -6.13020       -6.81930       -1.45960
N         -5.79250       -7.47640       -0.57920
C         -9.92620       -2.68660       -6.10530
C        -11.42450       -2.95150       -5.81720
C        -11.58050       -2.94200       -4.31670
C        -11.41780       -1.69310       -3.90090
C        -11.14850       -0.83550       -5.11260
C        -12.00330       -1.56910       -6.15840
C         -9.73420       -1.21610       -5.61680
C         -3.57180       -3.44880       -0.61890
C         -2.20820       -3.80030       -0.45830
N         -1.61070       -4.97880       -0.84080
C         -0.30220       -4.90070       -1.35590
C         -0.00530       -3.95810       -2.33580
C          1.27280       -3.84850       -2.84560
C          2.27540       -4.69000       -2.38420
S          3.93430       -4.65710       -2.97270
C          3.91160       -3.38980       -4.27610
C          1.98200       -5.63700       -1.40420
C          0.70760       -5.74390       -0.89470
C         -2.15950       -6.24130       -0.57770
C         -2.91210       -6.47180        0.57120
C         -3.41680       -7.72750        0.83530
C         -3.18120       -8.77530       -0.04830
S         -3.78010      -10.40930        0.20660
C         -5.20370      -10.14680        1.30290
C         -2.41730       -8.54940       -1.19140
C         -1.91270       -7.29670       -1.45650
C         -1.46520       -2.72130        0.05100
S          0.21760       -2.47130        0.42630
C         -0.12590       -0.81580        0.90110
C         -1.48220       -0.52660        0.85940
N         -1.99840        0.67750        1.33320
C         -3.09280        1.20510        0.63770
C         -4.22540        1.67630        1.29560
C         -5.33590        2.05570        0.56990
C         -5.33260        1.95820       -0.81420
S         -6.78760        2.33750       -1.75630
C         -8.00130        1.31810       -0.85820
C         -4.18230        1.55730       -1.47840
C         -3.06780        1.18980       -0.75670
C         -1.79100        0.93660        2.70130
C         -1.70840       -0.12110        3.60430
C         -1.48480        0.11150        4.94370
C         -1.33340        1.41270        5.40150
S         -1.00740        1.76180        7.10830
C         -2.00370        0.48930        7.94760
C         -1.40740        2.47440        4.50540
C         -1.64060        2.24140        3.16490
C         -2.23270       -1.60280        0.35130
S         -3.89210       -1.80520       -0.04890
C          0.90220        0.14410        1.03110
C          2.26610       -0.09560        1.15670
N          2.72580       -1.30720        1.66130
C          2.21810       -1.62960        2.93700
C          2.05140       -0.61220        3.87530
C          1.52950       -0.87780        5.12200
C          1.16420       -2.17550        5.45230
S          0.45830       -2.56850        7.02900
C          1.32160       -1.40520        8.13200
C          1.32290       -3.19640        4.52090
C          1.84990       -2.92980        3.27280
C          3.84590       -1.93400        1.12090
C          4.68660       -2.72130        1.90850
C          5.79120       -3.32470        1.35330
C          6.09750       -3.14720        0.00580
S          7.56150       -3.94580       -0.57120
C          7.53010       -3.68000       -2.36540
C          5.26870       -2.35930       -0.78000
C          4.14780       -1.77030       -0.22900
C          3.01830        1.06630        0.88360
S          4.70370        1.44950        0.85670
C          4.32590        3.12750        0.46810
C          2.95130        3.38380        0.45100
N          2.33160        4.60590        0.33520
C          1.03850        4.63600       -0.22160
C          0.79350        3.99140       -1.43480
C         -0.47210        3.99000       -1.97450
C         -1.52230        4.63250       -1.31960
S         -3.09000        4.57960       -2.11990
C         -4.24490        5.21080       -0.87440
C         -1.27690        5.28630       -0.11800
C         -0.00680        5.28780        0.42460
C          2.85680        5.76510        0.92750
C          3.62660        5.69600        2.08430
C          4.18060        6.83450        2.63110
C          3.97800        8.06660        2.02240
S          4.68310        9.56990        2.60650
C          5.91740        9.01480        3.81580
C          3.17000        8.14680        0.88910
C          2.61440        7.01090        0.34610
C          2.22920        2.18450        0.64080
S          0.53510        1.83190        0.72830
C          5.44520        3.95260        0.18880
C          5.40910        5.20440       -0.47320
N          6.47210        5.94750       -0.59050
C          7.64390        5.49890       -0.10570
C          7.71270        4.16290        0.34410
N          6.64430        3.42940        0.49360
C          8.78420        6.34330       -0.25850
C          9.98250        6.27630        0.38240
C         11.18440        6.90910       -0.22360
O         11.21500        7.68590       -1.14780
C         12.33320        6.33410        0.51580
C         13.68110        6.49790        0.27420
C         14.56420        5.82150        1.10620
Br        16.43290        6.00820        0.82230
C         14.11690        5.00810        2.13940
C         12.76000        4.85570        2.38070
C         11.85960        5.52580        1.56590
C         10.40090        5.59100        1.58630
C          9.60870        5.28910        2.66410
C         10.08600        4.70610        3.85490
N         10.42590        4.22290        4.83910
C          8.24600        5.63370        2.74520
N          7.15610        5.95880        2.90510
H         -4.24580       -5.26530       -1.42670
H         -7.73970       -0.42110       -3.22690
H         -8.41600       -5.17590       -4.84590
H         -9.65300       -2.92300       -7.13180
H        -11.83890       -3.81110       -6.33690
H        -11.73030       -3.82610       -3.72510
H        -11.40530       -1.32560       -2.89120
H        -11.31220        0.23220       -4.99190
H        -11.80160       -1.25450       -7.18140
H        -13.07080       -1.49770       -5.95520
H         -9.33670       -0.49030       -6.32360
H         -0.78560       -3.30610       -2.70130
H          1.46690       -3.10810       -3.60430
H          3.67280       -2.42000       -3.84900
H          4.91410       -3.37340       -4.69310
H          3.20110       -3.66740       -5.04890
H          2.76920       -6.28210       -1.04560
H          0.48540       -6.47610       -0.13340
H         -3.09470       -5.66060        1.26070
H         -3.98840       -7.88250        1.73490
H         -4.87070       -9.98190        2.32380
H         -5.77530       -9.30530        0.92530
H         -5.79170      -11.05770        1.25140
H         -2.23650       -9.36590       -1.87310
H         -1.33120       -7.12150       -2.34970
H         -4.24490        1.71290        2.37480
H         -6.21620        2.40400        1.08870
H         -8.87740        1.24630       -1.49530
H         -8.27140        1.78930        0.08210
H         -7.56410        0.33750       -0.69180
H         -4.17530        1.52300       -2.55610
H         -2.17260        0.86270       -1.26470
H         -1.82870       -1.13660        3.25750
H         -1.43540       -0.72580        5.62080
H         -1.54390       -0.49050        7.86010
H         -3.00190        0.48580        7.52150
H         -2.04330        0.78470        8.99130
H         -1.28040        3.48230        4.86980
H         -1.70490        3.06280        2.46680
H          2.34010        0.39860        3.62870
H          1.41470       -0.06990        5.82650
H          0.94290       -0.39460        8.00970
H          2.38610       -1.44650        7.92400
H          1.12440       -1.75170        9.14160
H          1.02930       -4.20110        4.78380
H          1.97950       -3.72360        2.55280
H          4.47700       -2.84740        2.95950
H          6.44230       -3.93230        1.96280
H          6.61360       -4.09610       -2.77290
H          7.62680       -2.62160       -2.58990
H          8.38790       -4.21850       -2.75590
H          5.48510       -2.19790       -1.82310
H          3.49530       -1.17280       -0.84930
H          1.60500        3.49300       -1.94470
H         -0.66680        3.49620       -2.91380
H         -4.08390        6.27290       -0.71400
H         -5.23430        5.04400       -1.28970
H         -4.13230        4.64360        0.04480
H         -2.06850        5.79760        0.40570
H          0.17990        5.79270        1.36100
H          3.79420        4.74420        2.56550
H          4.77270        6.74220        3.52470
H          6.51720        8.21960        3.38280
H          6.53690        9.88150        4.02500
H          5.42660        8.68540        4.72740
H          3.00060        9.10880        0.43100
H          2.00480        7.07590       -0.54320
H          4.51000        5.58360       -0.93390
H          8.66110        3.67250        0.52400
H          8.71270        7.07050       -1.06010
H         14.02600        7.12870       -0.53030
H         14.83350        4.49170        2.75940
H         12.42860        4.21620        3.18290
