
  xtb     02052219173D
 energy: -434.182385305188 gnorm: 0.000433948763 xtb: 6.4.1 (unknown)
260286  0     0  0            999 V2000
    4.8380   -4.7964   -5.2514 C   0  0  0  0  0  0  0  0  0  0  0  0
    6.0972   -5.2174   -5.6115 C   0  0  0  0  0  0  0  0  0  0  0  0
    7.3739   -4.6295   -5.2014 C   0  0  0  0  0  0  0  0  0  0  0  0
    7.5638   -3.7705   -4.3542 O   0  0  0  0  0  0  0  0  0  0  0  0
    8.4156   -5.2976   -5.9998 C   0  0  0  0  0  0  0  0  0  0  0  0
    9.7859   -5.0519   -5.9704 C   0  0  0  0  0  0  0  0  0  0  0  0
   10.5113   -5.8313   -6.8399 C   0  0  0  0  0  0  0  0  0  0  0  0
    9.9184   -6.7901   -7.6716 C   0  0  0  0  0  0  0  0  0  0  0  0
    8.5675   -7.0459   -7.7053 C   0  0  0  0  0  0  0  0  0  0  0  0
    7.8109   -6.2589   -6.8344 C   0  0  0  0  0  0  0  0  0  0  0  0
    6.3733   -6.2632   -6.5691 C   0  0  0  0  0  0  0  0  0  0  0  0
    5.4707   -7.1384   -7.1237 C   0  0  0  0  0  0  0  0  0  0  0  0
    5.7622   -8.0511   -8.1568 C   0  0  0  0  0  0  0  0  0  0  0  0
    5.8946   -8.7994   -9.0185 N   0  0  0  0  0  0  0  0  0  0  0  0
    4.1316   -7.2964   -6.7237 C   0  0  0  0  0  0  0  0  0  0  0  0
    3.0443   -7.5386   -6.4359 N   0  0  0  0  0  0  0  0  0  0  0  0
   11.2372   -7.1933   -8.2817 C   0  0  0  0  0  0  0  0  0  0  0  0
   11.5632   -6.6710   -9.7026 C   0  0  0  0  0  0  0  0  0  0  0  0
   10.7945   -5.3841   -9.8724 C   0  0  0  0  0  0  0  0  0  0  0  0
   11.3534   -4.4725   -9.0877 C   0  0  0  0  0  0  0  0  0  0  0  0
   12.5108   -5.1260   -8.3738 C   0  0  0  0  0  0  0  0  0  0  0  0
   12.9743   -6.1131   -9.4570 C   0  0  0  0  0  0  0  0  0  0  0  0
   11.8975   -6.1216   -7.3579 C   0  0  0  0  0  0  0  0  0  0  0  0
    4.4264   -3.7555   -4.4177 C   0  0  0  0  0  0  0  0  0  0  0  0
    3.0673   -3.4263   -4.1895 C   0  0  0  0  0  0  0  0  0  0  0  0
    1.9904   -3.9260   -4.8759 N   0  0  0  0  0  0  0  0  0  0  0  0
    0.7484   -4.0233   -4.2244 C   0  0  0  0  0  0  0  0  0  0  0  0
    0.6690   -4.5180   -2.9218 C   0  0  0  0  0  0  0  0  0  0  0  0
   -0.5497   -4.6109   -2.2877 C   0  0  0  0  0  0  0  0  0  0  0  0
   -1.7152   -4.2199   -2.9438 C   0  0  0  0  0  0  0  0  0  0  0  0
   -3.2250   -4.3779   -2.0456 S   0  0  0  0  0  0  0  0  0  0  0  0
   -4.5164   -4.0549   -3.2783 C   0  0  0  0  0  0  0  0  0  0  0  0
   -1.6418   -3.7319   -4.2417 C   0  0  0  0  0  0  0  0  0  0  0  0
   -0.4189   -3.6347   -4.8743 C   0  0  0  0  0  0  0  0  0  0  0  0
    2.0578   -4.2330   -6.2474 C   0  0  0  0  0  0  0  0  0  0  0  0
    2.8322   -3.4586   -7.1139 C   0  0  0  0  0  0  0  0  0  0  0  0
    2.9581   -3.8193   -8.4353 C   0  0  0  0  0  0  0  0  0  0  0  0
    2.2954   -4.9441   -8.9272 C   0  0  0  0  0  0  0  0  0  0  0  0
    2.5827   -5.3725  -10.6139 S   0  0  0  0  0  0  0  0  0  0  0  0
    2.1182   -7.1269  -10.6744 C   0  0  0  0  0  0  0  0  0  0  0  0
    1.4559   -5.6628   -8.0881 C   0  0  0  0  0  0  0  0  0  0  0  0
    1.3477   -5.3169   -6.7551 C   0  0  0  0  0  0  0  0  0  0  0  0
    2.9523   -2.4753   -3.1586 C   0  0  0  0  0  0  0  0  0  0  0  0
    1.6107   -1.6947   -2.3973 S   0  0  0  0  0  0  0  0  0  0  0  0
    2.7093   -0.7625   -1.3805 C   0  0  0  0  0  0  0  0  0  0  0  0
    4.0351   -1.0208   -1.6537 C   0  0  0  0  0  0  0  0  0  0  0  0
    5.1012   -0.3914   -1.0398 N   0  0  0  0  0  0  0  0  0  0  0  0
    6.3199   -1.0720   -0.9151 C   0  0  0  0  0  0  0  0  0  0  0  0
    7.5353   -0.4063   -1.0660 C   0  0  0  0  0  0  0  0  0  0  0  0
    8.7205   -1.1090   -1.0342 C   0  0  0  0  0  0  0  0  0  0  0  0
    8.7136   -2.4879   -0.8691 C   0  0  0  0  0  0  0  0  0  0  0  0
   10.2475   -3.3680   -0.9476 S   0  0  0  0  0  0  0  0  0  0  0  0
    9.7442   -4.8041   -1.9493 C   0  0  0  0  0  0  0  0  0  0  0  0
    7.5124   -3.1475   -0.6628 C   0  0  0  0  0  0  0  0  0  0  0  0
    6.3263   -2.4446   -0.6775 C   0  0  0  0  0  0  0  0  0  0  0  0
    5.0223    0.9812   -0.7528 C   0  0  0  0  0  0  0  0  0  0  0  0
    5.6124    1.4931    0.4025 C   0  0  0  0  0  0  0  0  0  0  0  0
    5.5698    2.8436    0.6641 C   0  0  0  0  0  0  0  0  0  0  0  0
    4.9398    3.7168   -0.2212 C   0  0  0  0  0  0  0  0  0  0  0  0
    4.9714    5.4310    0.1899 S   0  0  0  0  0  0  0  0  0  0  0  0
    4.5605    6.2357   -1.3832 C   0  0  0  0  0  0  0  0  0  0  0  0
    4.3385    3.2103   -1.3642 C   0  0  0  0  0  0  0  0  0  0  0  0
    4.3872    1.8552   -1.6290 C   0  0  0  0  0  0  0  0  0  0  0  0
    4.1643   -2.0189   -2.6626 C   0  0  0  0  0  0  0  0  0  0  0  0
    5.5142   -2.7730   -3.4316 S   0  0  0  0  0  0  0  0  0  0  0  0
    2.0480    0.0394   -0.3730 C   0  0  0  0  0  0  0  0  0  0  0  0
    1.5187   -0.4978    0.7794 C   0  0  0  0  0  0  0  0  0  0  0  0
    1.7967   -1.7787    1.2554 N   0  0  0  0  0  0  0  0  0  0  0  0
    0.6997   -2.5810    1.6001 C   0  0  0  0  0  0  0  0  0  0  0  0
   -0.4253   -2.5916    0.7795 C   0  0  0  0  0  0  0  0  0  0  0  0
   -1.5247   -3.3661    1.0951 C   0  0  0  0  0  0  0  0  0  0  0  0
   -1.5141   -4.1484    2.2407 C   0  0  0  0  0  0  0  0  0  0  0  0
   -2.8409   -5.2142    2.7161 S   0  0  0  0  0  0  0  0  0  0  0  0
   -4.2061   -4.7254    1.6264 C   0  0  0  0  0  0  0  0  0  0  0  0
   -0.3961   -4.1322    3.0722 C   0  0  0  0  0  0  0  0  0  0  0  0
    0.6972   -3.3564    2.7600 C   0  0  0  0  0  0  0  0  0  0  0  0
    3.1031   -2.1376    1.5925 C   0  0  0  0  0  0  0  0  0  0  0  0
    3.4998   -3.4726    1.5579 C   0  0  0  0  0  0  0  0  0  0  0  0
    4.7751   -3.8443    1.9395 C   0  0  0  0  0  0  0  0  0  0  0  0
    5.6875   -2.8816    2.3501 C   0  0  0  0  0  0  0  0  0  0  0  0
    7.3471   -3.2127    2.8488 S   0  0  0  0  0  0  0  0  0  0  0  0
    7.4953   -5.0164    2.7162 C   0  0  0  0  0  0  0  0  0  0  0  0
    5.2990   -1.5442    2.3688 C   0  0  0  0  0  0  0  0  0  0  0  0
    4.0282   -1.1726    1.9939 C   0  0  0  0  0  0  0  0  0  0  0  0
    0.6062    0.3898    1.3955 C   0  0  0  0  0  0  0  0  0  0  0  0
   -0.4597    0.2550    2.7422 S   0  0  0  0  0  0  0  0  0  0  0  0
   -1.1625    1.8254    2.3690 C   0  0  0  0  0  0  0  0  0  0  0  0
   -0.5818    2.4111    1.2517 C   0  0  0  0  0  0  0  0  0  0  0  0
   -0.9618    3.6236    0.6688 N   0  0  0  0  0  0  0  0  0  0  0  0
   -2.2594    3.7673    0.1712 C   0  0  0  0  0  0  0  0  0  0  0  0
   -2.9640    2.6483   -0.2769 C   0  0  0  0  0  0  0  0  0  0  0  0
   -4.2646    2.7713   -0.7110 C   0  0  0  0  0  0  0  0  0  0  0  0
   -4.8963    4.0125   -0.7187 C   0  0  0  0  0  0  0  0  0  0  0  0
   -6.5665    4.0409   -1.2883 S   0  0  0  0  0  0  0  0  0  0  0  0
   -7.0449    5.7849   -1.1529 C   0  0  0  0  0  0  0  0  0  0  0  0
   -4.1991    5.1325   -0.2866 C   0  0  0  0  0  0  0  0  0  0  0  0
   -2.8984    5.0078    0.1549 C   0  0  0  0  0  0  0  0  0  0  0  0
   -0.0192    4.6522    0.5901 C   0  0  0  0  0  0  0  0  0  0  0  0
    0.9461    4.7999    1.5883 C   0  0  0  0  0  0  0  0  0  0  0  0
    1.7996    5.8803    1.5778 C   0  0  0  0  0  0  0  0  0  0  0  0
    1.7111    6.8418    0.5736 C   0  0  0  0  0  0  0  0  0  0  0  0
    2.7665    8.2505    0.7269 S   0  0  0  0  0  0  0  0  0  0  0  0
    2.1511    9.3870   -0.5514 C   0  0  0  0  0  0  0  0  0  0  0  0
    0.8135    6.6527   -0.4688 C   0  0  0  0  0  0  0  0  0  0  0  0
   -0.0353    5.5633   -0.4636 C   0  0  0  0  0  0  0  0  0  0  0  0
    0.4373    1.5851    0.7179 C   0  0  0  0  0  0  0  0  0  0  0  0
    1.4498    1.6661   -0.6824 S   0  0  0  0  0  0  0  0  0  0  0  0
   -2.2232    2.2655    3.2084 C   0  0  0  0  0  0  0  0  0  0  0  0
   -2.7076    1.5878    4.2961 C   0  0  0  0  0  0  0  0  0  0  0  0
   -3.8115    2.2119    4.9164 C   0  0  0  0  0  0  0  0  0  0  0  0
   -4.5755    1.7426    6.0017 C   0  0  0  0  0  0  0  0  0  0  0  0
   -4.2788    0.4470    6.6244 C   0  0  0  0  0  0  0  0  0  0  0  0
   -4.1622    0.3354    8.0276 C   0  0  0  0  0  0  0  0  0  0  0  0
   -3.8613   -0.8606    8.6100 C   0  0  0  0  0  0  0  0  0  0  0  0
   -3.6492   -2.0192    7.8294 C   0  0  0  0  0  0  0  0  0  0  0  0
   -3.3125   -3.2572    8.3958 C   0  0  0  0  0  0  0  0  0  0  0  0
   -3.0943   -4.3678    7.6066 C   0  0  0  0  0  0  0  0  0  0  0  0
   -2.7665   -5.5149    8.2563 O   0  0  0  0  0  0  0  0  0  0  0  0
   -2.5210   -6.6898    7.5079 C   0  0  0  0  0  0  0  0  0  0  0  0
   -2.1691   -7.7949    8.4913 C   0  0  0  0  0  0  0  0  0  0  0  0
   -3.2150   -4.2592    6.2059 C   0  0  0  0  0  0  0  0  0  0  0  0
   -3.5497   -3.0636    5.6362 C   0  0  0  0  0  0  0  0  0  0  0  0
   -3.7753   -1.9149    6.4183 C   0  0  0  0  0  0  0  0  0  0  0  0
   -4.1020   -0.6731    5.8463 C   0  0  0  0  0  0  0  0  0  0  0  0
   -5.6228    2.5517    6.4114 C   0  0  0  0  0  0  0  0  0  0  0  0
   -5.9834    3.7594    5.7480 C   0  0  0  0  0  0  0  0  0  0  0  0
   -5.2386    4.2088    4.6360 C   0  0  0  0  0  0  0  0  0  0  0  0
   -5.6403    5.3611    3.8244 C   0  0  0  0  0  0  0  0  0  0  0  0
   -4.7061    6.2617    3.3628 C   0  0  0  0  0  0  0  0  0  0  0  0
   -5.0644    7.3075    2.4971 C   0  0  0  0  0  0  0  0  0  0  0  0
   -4.1118    8.2103    1.9734 C   0  0  0  0  0  0  0  0  0  0  0  0
   -4.4852    9.1984    1.1152 C   0  0  0  0  0  0  0  0  0  0  0  0
   -5.8411    9.3616    0.7385 C   0  0  0  0  0  0  0  0  0  0  0  0
   -6.0636   10.4052   -0.1035 O   0  0  0  0  0  0  0  0  0  0  0  0
   -7.3723   10.6759   -0.5628 C   0  0  0  0  0  0  0  0  0  0  0  0
   -7.8033    9.7508   -1.6978 C   0  0  0  0  0  0  0  0  0  0  0  0
   -6.7889    8.5019    1.2375 C   0  0  0  0  0  0  0  0  0  0  0  0
   -6.4211    7.4597    2.1140 C   0  0  0  0  0  0  0  0  0  0  0  0
   -7.3654    6.5361    2.6116 C   0  0  0  0  0  0  0  0  0  0  0  0
   -6.9887    5.5122    3.4313 C   0  0  0  0  0  0  0  0  0  0  0  0
   -4.1441    3.4377    4.2842 C   0  0  0  0  0  0  0  0  0  0  0  0
   -3.0765    3.7674    2.9455 S   0  0  0  0  0  0  0  0  0  0  0  0
   -7.1106    4.3701    6.3271 C   0  0  0  0  0  0  0  0  0  0  0  0
   -7.6492    3.6619    7.3763 C   0  0  0  0  0  0  0  0  0  0  0  0
   -6.7127    2.2083    7.7225 S   0  0  0  0  0  0  0  0  0  0  0  0
   -8.7554    3.9261    8.2097 C   0  0  0  0  0  0  0  0  0  0  0  0
   -9.8301    4.7479    7.9974 C   0  0  0  0  0  0  0  0  0  0  0  0
  -10.2475    5.3640    6.7184 C   0  0  0  0  0  0  0  0  0  0  0  0
   -9.6367    5.4439    5.6725 O   0  0  0  0  0  0  0  0  0  0  0  0
  -11.6313    5.8330    6.9383 C   0  0  0  0  0  0  0  0  0  0  0  0
  -12.4746    6.4154    6.0240 C   0  0  0  0  0  0  0  0  0  0  0  0
  -13.7580    6.7684    6.4534 C   0  0  0  0  0  0  0  0  0  0  0  0
  -14.8083    7.3732    5.7096 C   0  0  0  0  0  0  0  0  0  0  0  0
  -15.9192    7.5596    6.4606 C   0  0  0  0  0  0  0  0  0  0  0  0
  -17.5345    8.3191    5.8837 Br  0  0  0  0  0  0  0  0  0  0  0  0
  -15.7634    7.0175    8.1105 S   0  0  0  0  0  0  0  0  0  0  0  0
  -14.1307    6.5127    7.7940 C   0  0  0  0  0  0  0  0  0  0  0  0
  -13.2757    5.9266    8.7195 C   0  0  0  0  0  0  0  0  0  0  0  0
  -12.0102    5.5865    8.2790 C   0  0  0  0  0  0  0  0  0  0  0  0
  -10.8852    4.9687    8.9701 C   0  0  0  0  0  0  0  0  0  0  0  0
  -10.8190    4.7227   10.3176 C   0  0  0  0  0  0  0  0  0  0  0  0
  -11.8761    4.9752   11.2158 C   0  0  0  0  0  0  0  0  0  0  0  0
  -12.7045    5.1540   11.9906 N   0  0  0  0  0  0  0  0  0  0  0  0
   -9.6865    4.2346   11.0036 C   0  0  0  0  0  0  0  0  0  0  0  0
   -8.8056    3.8699   11.6438 N   0  0  0  0  0  0  0  0  0  0  0  0
    4.0204   -5.3524   -5.6919 H   0  0  0  0  0  0  0  0  0  0  0  0
   10.2036   -4.3058   -5.3124 H   0  0  0  0  0  0  0  0  0  0  0  0
    8.1269   -7.7885   -8.3496 H   0  0  0  0  0  0  0  0  0  0  0  0
   11.5276   -8.2331   -8.1447 H   0  0  0  0  0  0  0  0  0  0  0  0
   11.4459   -7.4082  -10.4923 H   0  0  0  0  0  0  0  0  0  0  0  0
    9.9153   -5.2880  -10.4823 H   0  0  0  0  0  0  0  0  0  0  0  0
   11.0342   -3.4621   -8.9108 H   0  0  0  0  0  0  0  0  0  0  0  0
   13.2566   -4.4558   -7.9547 H   0  0  0  0  0  0  0  0  0  0  0  0
   13.3881   -5.6144  -10.3321 H   0  0  0  0  0  0  0  0  0  0  0  0
   13.6784   -6.8594   -9.0915 H   0  0  0  0  0  0  0  0  0  0  0  0
   12.6228   -6.4607   -6.6207 H   0  0  0  0  0  0  0  0  0  0  0  0
    1.5671   -4.8392   -2.4161 H   0  0  0  0  0  0  0  0  0  0  0  0
   -0.6123   -4.9913   -1.2798 H   0  0  0  0  0  0  0  0  0  0  0  0
   -4.4849   -3.0151   -3.5908 H   0  0  0  0  0  0  0  0  0  0  0  0
   -5.4576   -4.2588   -2.7772 H   0  0  0  0  0  0  0  0  0  0  0  0
   -4.3933   -4.7277   -4.1216 H   0  0  0  0  0  0  0  0  0  0  0  0
   -2.5258   -3.4132   -4.7698 H   0  0  0  0  0  0  0  0  0  0  0  0
   -0.3658   -3.2461   -5.8804 H   0  0  0  0  0  0  0  0  0  0  0  0
    3.3543   -2.5917   -6.7371 H   0  0  0  0  0  0  0  0  0  0  0  0
    3.5753   -3.2390   -9.1037 H   0  0  0  0  0  0  0  0  0  0  0  0
    1.0373   -7.2338  -10.6668 H   0  0  0  0  0  0  0  0  0  0  0  0
    2.5733   -7.6499   -9.8386 H   0  0  0  0  0  0  0  0  0  0  0  0
    2.5179   -7.5051  -11.6100 H   0  0  0  0  0  0  0  0  0  0  0  0
    0.9047   -6.5147   -8.4498 H   0  0  0  0  0  0  0  0  0  0  0  0
    0.7279   -5.9068   -6.0984 H   0  0  0  0  0  0  0  0  0  0  0  0
    7.5468    0.6590   -1.2407 H   0  0  0  0  0  0  0  0  0  0  0  0
    9.6606   -0.5975   -1.1713 H   0  0  0  0  0  0  0  0  0  0  0  0
   10.6453   -5.1831   -2.4210 H   0  0  0  0  0  0  0  0  0  0  0  0
    9.0337   -4.4675   -2.6986 H   0  0  0  0  0  0  0  0  0  0  0  0
    9.3112   -5.5764   -1.3195 H   0  0  0  0  0  0  0  0  0  0  0  0
    7.4946   -4.2145   -0.5048 H   0  0  0  0  0  0  0  0  0  0  0  0
    5.3938   -2.9612   -0.5087 H   0  0  0  0  0  0  0  0  0  0  0  0
    6.1195    0.8229    1.0778 H   0  0  0  0  0  0  0  0  0  0  0  0
    6.0306    3.2423    1.5547 H   0  0  0  0  0  0  0  0  0  0  0  0
    5.1948    5.8400   -2.1706 H   0  0  0  0  0  0  0  0  0  0  0  0
    4.7678    7.2900   -1.2306 H   0  0  0  0  0  0  0  0  0  0  0  0
    3.5077    6.0932   -1.6125 H   0  0  0  0  0  0  0  0  0  0  0  0
    3.8288    3.8574   -2.0593 H   0  0  0  0  0  0  0  0  0  0  0  0
    3.9334    1.4746   -2.5325 H   0  0  0  0  0  0  0  0  0  0  0  0
   -0.4333   -1.9991   -0.1243 H   0  0  0  0  0  0  0  0  0  0  0  0
   -2.3712   -3.3637    0.4281 H   0  0  0  0  0  0  0  0  0  0  0  0
   -4.3778   -3.6566    1.7124 H   0  0  0  0  0  0  0  0  0  0  0  0
   -3.9876   -5.0063    0.6002 H   0  0  0  0  0  0  0  0  0  0  0  0
   -5.0746   -5.2701    1.9837 H   0  0  0  0  0  0  0  0  0  0  0  0
   -0.4004   -4.7287    3.9715 H   0  0  0  0  0  0  0  0  0  0  0  0
    1.5530   -3.3384    3.4177 H   0  0  0  0  0  0  0  0  0  0  0  0
    2.7968   -4.2273    1.2362 H   0  0  0  0  0  0  0  0  0  0  0  0
    5.0433   -4.8881    1.9049 H   0  0  0  0  0  0  0  0  0  0  0  0
    6.8004   -5.4997    3.3970 H   0  0  0  0  0  0  0  0  0  0  0  0
    8.5163   -5.2456    3.0049 H   0  0  0  0  0  0  0  0  0  0  0  0
    7.3247   -5.3297    1.6908 H   0  0  0  0  0  0  0  0  0  0  0  0
    6.0100   -0.8048    2.7048 H   0  0  0  0  0  0  0  0  0  0  0  0
    3.7384   -0.1326    2.0264 H   0  0  0  0  0  0  0  0  0  0  0  0
   -2.4871    1.6791   -0.2772 H   0  0  0  0  0  0  0  0  0  0  0  0
   -4.8090    1.9037   -1.0515 H   0  0  0  0  0  0  0  0  0  0  0  0
   -6.4121    6.3936   -1.7928 H   0  0  0  0  0  0  0  0  0  0  0  0
   -6.9824    6.1031   -0.1163 H   0  0  0  0  0  0  0  0  0  0  0  0
   -8.0736    5.8306   -1.4980 H   0  0  0  0  0  0  0  0  0  0  0  0
   -4.6585    6.1073   -0.2648 H   0  0  0  0  0  0  0  0  0  0  0  0
   -2.3843    5.8808    0.5255 H   0  0  0  0  0  0  0  0  0  0  0  0
    1.0004    4.0796    2.3910 H   0  0  0  0  0  0  0  0  0  0  0  0
    2.5313    6.0062    2.3604 H   0  0  0  0  0  0  0  0  0  0  0  0
    2.3680    8.9997   -1.5432 H   0  0  0  0  0  0  0  0  0  0  0  0
    1.0860    9.5499   -0.4171 H   0  0  0  0  0  0  0  0  0  0  0  0
    2.6891   10.3171   -0.3972 H   0  0  0  0  0  0  0  0  0  0  0  0
    0.7594    7.3479   -1.2918 H   0  0  0  0  0  0  0  0  0  0  0  0
   -0.7287    5.4247   -1.2796 H   0  0  0  0  0  0  0  0  0  0  0  0
   -2.2793    0.6620    4.6368 H   0  0  0  0  0  0  0  0  0  0  0  0
   -4.2917    1.2183    8.6358 H   0  0  0  0  0  0  0  0  0  0  0  0
   -3.7693   -0.9354    9.6836 H   0  0  0  0  0  0  0  0  0  0  0  0
   -3.2151   -3.3517    9.4663 H   0  0  0  0  0  0  0  0  0  0  0  0
   -3.4147   -6.9660    6.9313 H   0  0  0  0  0  0  0  0  0  0  0  0
   -1.6895   -6.5271    6.8082 H   0  0  0  0  0  0  0  0  0  0  0  0
   -1.9723   -8.7185    7.9544 H   0  0  0  0  0  0  0  0  0  0  0  0
   -2.9919   -7.9514    9.1833 H   0  0  0  0  0  0  0  0  0  0  0  0
   -1.2867   -7.5170    9.0613 H   0  0  0  0  0  0  0  0  0  0  0  0
   -3.0448   -5.1133    5.5700 H   0  0  0  0  0  0  0  0  0  0  0  0
   -3.6331   -2.9886    4.5619 H   0  0  0  0  0  0  0  0  0  0  0  0
   -4.2320   -0.6157    4.7745 H   0  0  0  0  0  0  0  0  0  0  0  0
   -3.6758    6.1900    3.6790 H   0  0  0  0  0  0  0  0  0  0  0  0
   -3.0766    8.0966    2.2606 H   0  0  0  0  0  0  0  0  0  0  0  0
   -3.7688    9.8913    0.7024 H   0  0  0  0  0  0  0  0  0  0  0  0
   -8.0878   10.6353    0.2675 H   0  0  0  0  0  0  0  0  0  0  0  0
   -7.3245   11.7065   -0.9256 H   0  0  0  0  0  0  0  0  0  0  0  0
   -7.0910    9.8170   -2.5165 H   0  0  0  0  0  0  0  0  0  0  0  0
   -7.8492    8.7170   -1.3641 H   0  0  0  0  0  0  0  0  0  0  0  0
   -8.7836   10.0492   -2.0589 H   0  0  0  0  0  0  0  0  0  0  0  0
   -7.8332    8.5940    0.9798 H   0  0  0  0  0  0  0  0  0  0  0  0
   -8.4018    6.6406    2.3232 H   0  0  0  0  0  0  0  0  0  0  0  0
   -7.7230    4.7974    3.7678 H   0  0  0  0  0  0  0  0  0  0  0  0
   -7.4985    5.3174    6.0056 H   0  0  0  0  0  0  0  0  0  0  0  0
   -8.7616    3.3429    9.1237 H   0  0  0  0  0  0  0  0  0  0  0  0
  -12.1544    6.5918    5.0091 H   0  0  0  0  0  0  0  0  0  0  0  0
  -14.7310    7.6485    4.6736 H   0  0  0  0  0  0  0  0  0  0  0  0
  -13.6086    5.7473    9.7280 H   0  0  0  0  0  0  0  0  0  0  0  0
  1  2  2  0  0  0  0
  2  3  1  0  0  0  0
  3  4  2  0  0  0  0
  3  5  1  0  0  0  0
  5  6  2  0  0  0  0
  6  7  1  0  0  0  0
  7  8  2  0  0  0  0
  8  9  1  0  0  0  0
  9 10  2  0  0  0  0
 10 11  1  0  0  0  0
 11 12  2  0  0  0  0
 12 13  1  0  0  0  0
 13 14  3  0  0  0  0
 12 15  1  0  0  0  0
 15 16  3  0  0  0  0
  8 17  1  0  0  0  0
 17 18  1  0  0  0  0
 18 19  1  0  0  0  0
 19 20  2  0  0  0  0
 20 21  1  0  0  0  0
 21 22  1  0  0  0  0
 21 23  1  0  0  0  0
  1 24  1  0  0  0  0
 24 25  2  0  0  0  0
 25 26  1  0  0  0  0
 26 27  1  0  0  0  0
 27 28  2  0  0  0  0
 28 29  1  0  0  0  0
 29 30  2  0  0  0  0
 30 31  1  0  0  0  0
 31 32  1  0  0  0  0
 30 33  1  0  0  0  0
 33 34  2  0  0  0  0
 26 35  1  0  0  0  0
 35 36  2  0  0  0  0
 36 37  1  0  0  0  0
 37 38  2  0  0  0  0
 38 39  1  0  0  0  0
 39 40  1  0  0  0  0
 38 41  1  0  0  0  0
 41 42  2  0  0  0  0
 25 43  1  0  0  0  0
 43 44  1  0  0  0  0
 44 45  1  0  0  0  0
 45 46  2  0  0  0  0
 46 47  1  0  0  0  0
 47 48  1  0  0  0  0
 48 49  2  0  0  0  0
 49 50  1  0  0  0  0
 50 51  2  0  0  0  0
 51 52  1  0  0  0  0
 52 53  1  0  0  0  0
 51 54  1  0  0  0  0
 54 55  2  0  0  0  0
 47 56  1  0  0  0  0
 56 57  2  0  0  0  0
 57 58  1  0  0  0  0
 58 59  2  0  0  0  0
 59 60  1  0  0  0  0
 60 61  1  0  0  0  0
 59 62  1  0  0  0  0
 62 63  2  0  0  0  0
 46 64  1  0  0  0  0
 64 65  1  0  0  0  0
 45 66  1  0  0  0  0
 66 67  2  0  0  0  0
 67 68  1  0  0  0  0
 68 69  1  0  0  0  0
 69 70  2  0  0  0  0
 70 71  1  0  0  0  0
 71 72  2  0  0  0  0
 72 73  1  0  0  0  0
 73 74  1  0  0  0  0
 72 75  1  0  0  0  0
 75 76  2  0  0  0  0
 68 77  1  0  0  0  0
 77 78  2  0  0  0  0
 78 79  1  0  0  0  0
 79 80  2  0  0  0  0
 80 81  1  0  0  0  0
 81 82  1  0  0  0  0
 80 83  1  0  0  0  0
 83 84  2  0  0  0  0
 67 85  1  0  0  0  0
 85 86  1  0  0  0  0
 86 87  1  0  0  0  0
 87 88  2  0  0  0  0
 88 89  1  0  0  0  0
 89 90  1  0  0  0  0
 90 91  2  0  0  0  0
 91 92  1  0  0  0  0
 92 93  2  0  0  0  0
 93 94  1  0  0  0  0
 94 95  1  0  0  0  0
 93 96  1  0  0  0  0
 96 97  2  0  0  0  0
 89 98  1  0  0  0  0
 98 99  2  0  0  0  0
 99100  1  0  0  0  0
100101  2  0  0  0  0
101102  1  0  0  0  0
102103  1  0  0  0  0
101104  1  0  0  0  0
104105  2  0  0  0  0
 88106  1  0  0  0  0
106107  1  0  0  0  0
 87108  1  0  0  0  0
108109  2  0  0  0  0
109110  1  0  0  0  0
110111  2  0  0  0  0
111112  1  0  0  0  0
112113  2  0  0  0  0
113114  1  0  0  0  0
114115  2  0  0  0  0
115116  1  0  0  0  0
116117  2  0  0  0  0
117118  1  0  0  0  0
118119  1  0  0  0  0
119120  1  0  0  0  0
117121  1  0  0  0  0
121122  2  0  0  0  0
122123  1  0  0  0  0
123124  2  0  0  0  0
111125  1  0  0  0  0
125126  2  0  0  0  0
126127  1  0  0  0  0
127128  1  0  0  0  0
128129  2  0  0  0  0
129130  1  0  0  0  0
130131  2  0  0  0  0
131132  1  0  0  0  0
132133  2  0  0  0  0
133134  1  0  0  0  0
134135  1  0  0  0  0
135136  1  0  0  0  0
133137  1  0  0  0  0
137138  2  0  0  0  0
138139  1  0  0  0  0
139140  2  0  0  0  0
127141  2  0  0  0  0
141142  1  0  0  0  0
126143  1  0  0  0  0
143144  2  0  0  0  0
144145  1  0  0  0  0
144146  1  0  0  0  0
146147  2  0  0  0  0
147148  1  0  0  0  0
148149  2  0  0  0  0
148150  1  0  0  0  0
150151  2  0  0  0  0
151152  1  0  0  0  0
152153  1  0  0  0  0
153154  2  0  0  0  0
154155  1  0  0  0  0
154156  1  0  0  0  0
156157  1  0  0  0  0
157158  1  0  0  0  0
158159  2  0  0  0  0
159160  1  0  0  0  0
160161  2  0  0  0  0
161162  1  0  0  0  0
162163  3  0  0  0  0
161164  1  0  0  0  0
164165  3  0  0  0  0
 11  2  1  0  0  0  0
 23 17  1  0  0  0  0
 65 24  1  0  0  0  0
107 66  1  0  0  0  0
142108  1  0  0  0  0
160147  1  0  0  0  0
 10  5  1  0  0  0  0
 22 18  1  0  0  0  0
 34 27  1  0  0  0  0
 42 35  1  0  0  0  0
 64 43  2  0  0  0  0
 76 69  1  0  0  0  0
 84 77  1  0  0  0  0
106 85  2  0  0  0  0
141110  1  0  0  0  0
159150  1  0  0  0  0
 23  7  1  0  0  0  0
 55 48  1  0  0  0  0
 63 56  1  0  0  0  0
 97 90  1  0  0  0  0
105 98  1  0  0  0  0
124112  1  0  0  0  0
145125  1  0  0  0  0
157152  2  0  0  0  0
123115  1  0  0  0  0
140128  1  0  0  0  0
138130  1  0  0  0  0
  1166  1  0  0  0  0
  6167  1  0  0  0  0
  9168  1  0  0  0  0
 17169  1  0  0  0  0
 18170  1  0  0  0  0
 19171  1  0  0  0  0
 20172  1  0  0  0  0
 21173  1  0  0  0  0
 22174  1  0  0  0  0
 22175  1  0  0  0  0
 23176  1  0  0  0  0
 28177  1  0  0  0  0
 29178  1  0  0  0  0
 32179  1  0  0  0  0
 32180  1  0  0  0  0
 32181  1  0  0  0  0
 33182  1  0  0  0  0
 34183  1  0  0  0  0
 36184  1  0  0  0  0
 37185  1  0  0  0  0
 40186  1  0  0  0  0
 40187  1  0  0  0  0
 40188  1  0  0  0  0
 41189  1  0  0  0  0
 42190  1  0  0  0  0
 49191  1  0  0  0  0
 50192  1  0  0  0  0
 53193  1  0  0  0  0
 53194  1  0  0  0  0
 53195  1  0  0  0  0
 54196  1  0  0  0  0
 55197  1  0  0  0  0
 57198  1  0  0  0  0
 58199  1  0  0  0  0
 61200  1  0  0  0  0
 61201  1  0  0  0  0
 61202  1  0  0  0  0
 62203  1  0  0  0  0
 63204  1  0  0  0  0
 70205  1  0  0  0  0
 71206  1  0  0  0  0
 74207  1  0  0  0  0
 74208  1  0  0  0  0
 74209  1  0  0  0  0
 75210  1  0  0  0  0
 76211  1  0  0  0  0
 78212  1  0  0  0  0
 79213  1  0  0  0  0
 82214  1  0  0  0  0
 82215  1  0  0  0  0
 82216  1  0  0  0  0
 83217  1  0  0  0  0
 84218  1  0  0  0  0
 91219  1  0  0  0  0
 92220  1  0  0  0  0
 95221  1  0  0  0  0
 95222  1  0  0  0  0
 95223  1  0  0  0  0
 96224  1  0  0  0  0
 97225  1  0  0  0  0
 99226  1  0  0  0  0
100227  1  0  0  0  0
103228  1  0  0  0  0
103229  1  0  0  0  0
103230  1  0  0  0  0
104231  1  0  0  0  0
105232  1  0  0  0  0
109233  1  0  0  0  0
113234  1  0  0  0  0
114235  1  0  0  0  0
116236  1  0  0  0  0
119237  1  0  0  0  0
119238  1  0  0  0  0
120239  1  0  0  0  0
120240  1  0  0  0  0
120241  1  0  0  0  0
121242  1  0  0  0  0
122243  1  0  0  0  0
124244  1  0  0  0  0
129245  1  0  0  0  0
131246  1  0  0  0  0
132247  1  0  0  0  0
135248  1  0  0  0  0
135249  1  0  0  0  0
136250  1  0  0  0  0
136251  1  0  0  0  0
136252  1  0  0  0  0
137253  1  0  0  0  0
139254  1  0  0  0  0
140255  1  0  0  0  0
143256  1  0  0  0  0
146257  1  0  0  0  0
151258  1  0  0  0  0
153259  1  0  0  0  0
158260  1  0  0  0  0
M  END
