
  xtb     02142222173D
 energy: -443.312406066851 gnorm: 0.000691312897 xtb: 6.4.1 (unknown)
268293  0     0  0            999 V2000
    7.6372   -3.7782   -2.9842 C   0  0  0  0  0  0  0  0  0  0  0  0
    8.5449   -2.9074   -3.5434 C   0  0  0  0  0  0  0  0  0  0  0  0
    8.5595   -1.4668   -3.2367 C   0  0  0  0  0  0  0  0  0  0  0  0
    7.7300   -0.8193   -2.6244 O   0  0  0  0  0  0  0  0  0  0  0  0
    9.8604   -0.9706   -3.7338 C   0  0  0  0  0  0  0  0  0  0  0  0
   10.3717    0.3165   -3.5979 C   0  0  0  0  0  0  0  0  0  0  0  0
   11.6266    0.4823   -4.1345 C   0  0  0  0  0  0  0  0  0  0  0  0
   12.3270   -0.5580   -4.7565 C   0  0  0  0  0  0  0  0  0  0  0  0
   11.8344   -1.8363   -4.8922 C   0  0  0  0  0  0  0  0  0  0  0  0
   10.5573   -2.0233   -4.3574 C   0  0  0  0  0  0  0  0  0  0  0  0
    9.7290   -3.2279   -4.2897 C   0  0  0  0  0  0  0  0  0  0  0  0
    9.9826   -4.4210   -4.9222 C   0  0  0  0  0  0  0  0  0  0  0  0
   11.1133   -4.6665   -5.7223 C   0  0  0  0  0  0  0  0  0  0  0  0
   12.0175   -4.9039   -6.3904 N   0  0  0  0  0  0  0  0  0  0  0  0
    9.0982   -5.5168   -4.8950 C   0  0  0  0  0  0  0  0  0  0  0  0
    8.4079   -6.4348   -4.9243 N   0  0  0  0  0  0  0  0  0  0  0  0
   13.5368    0.3065   -5.0184 C   0  0  0  0  0  0  0  0  0  0  0  0
   13.7640    0.8516   -6.4498 C   0  0  0  0  0  0  0  0  0  0  0  0
   12.4067    0.9361   -7.1007 C   0  0  0  0  0  0  0  0  0  0  0  0
   11.7348    1.9158   -6.5111 C   0  0  0  0  0  0  0  0  0  0  0  0
   12.6293    2.5174   -5.4559 C   0  0  0  0  0  0  0  0  0  0  0  0
   14.0002    2.3363   -6.1277 C   0  0  0  0  0  0  0  0  0  0  0  0
   12.7535    1.4665   -4.3266 C   0  0  0  0  0  0  0  0  0  0  0  0
    6.4189   -3.3846   -2.4184 C   0  0  0  0  0  0  0  0  0  0  0  0
    5.5134   -2.3644   -2.7737 C   0  0  0  0  0  0  0  0  0  0  0  0
    5.3493   -1.8040   -4.0061 N   0  0  0  0  0  0  0  0  0  0  0  0
    4.0396   -1.5162   -4.4724 C   0  0  0  0  0  0  0  0  0  0  0  0
    3.8449   -0.5045   -5.4051 C   0  0  0  0  0  0  0  0  0  0  0  0
    2.5982   -0.2803   -5.9581 C   0  0  0  0  0  0  0  0  0  0  0  0
    1.5143   -1.0577   -5.5732 C   0  0  0  0  0  0  0  0  0  0  0  0
   -0.1192   -0.8700   -6.2038 S   0  0  0  0  0  0  0  0  0  0  0  0
    0.0880    0.2005   -7.6514 C   0  0  0  0  0  0  0  0  0  0  0  0
    1.7038   -2.0703   -4.6359 C   0  0  0  0  0  0  0  0  0  0  0  0
    2.9513   -2.3099   -4.1078 C   0  0  0  0  0  0  0  0  0  0  0  0
    6.2506   -2.0976   -5.0732 C   0  0  0  0  0  0  0  0  0  0  0  0
    7.0985   -1.1235   -5.5771 C   0  0  0  0  0  0  0  0  0  0  0  0
    7.9884   -1.4298   -6.5924 C   0  0  0  0  0  0  0  0  0  0  0  0
    8.0203   -2.7138   -7.1209 C   0  0  0  0  0  0  0  0  0  0  0  0
    9.1443   -3.2413   -8.3694 S   0  0  0  0  0  0  0  0  0  0  0  0
   10.4093   -1.9402   -8.3724 C   0  0  0  0  0  0  0  0  0  0  0  0
    7.1175   -3.6722   -6.6601 C   0  0  0  0  0  0  0  0  0  0  0  0
    6.2419   -3.3678   -5.6431 C   0  0  0  0  0  0  0  0  0  0  0  0
    4.6093   -2.1293   -1.7103 C   0  0  0  0  0  0  0  0  0  0  0  0
    3.4145   -0.9228   -1.3883 S   0  0  0  0  0  0  0  0  0  0  0  0
    2.9448   -1.7223    0.1173 C   0  0  0  0  0  0  0  0  0  0  0  0
    3.6799   -2.8836    0.3241 C   0  0  0  0  0  0  0  0  0  0  0  0
    3.4738   -3.8676    1.2960 N   0  0  0  0  0  0  0  0  0  0  0  0
    4.6502   -4.4128    1.8432 C   0  0  0  0  0  0  0  0  0  0  0  0
    5.7065   -3.5518    2.1332 C   0  0  0  0  0  0  0  0  0  0  0  0
    6.8806   -4.0205    2.6835 C   0  0  0  0  0  0  0  0  0  0  0  0
    7.0198   -5.3709    2.9697 C   0  0  0  0  0  0  0  0  0  0  0  0
    8.4455   -6.0692    3.7357 S   0  0  0  0  0  0  0  0  0  0  0  0
    9.3974   -4.6178    4.2688 C   0  0  0  0  0  0  0  0  0  0  0  0
    5.9901   -6.2461    2.6310 C   0  0  0  0  0  0  0  0  0  0  0  0
    4.8259   -5.7786    2.0627 C   0  0  0  0  0  0  0  0  0  0  0  0
    2.2540   -4.5453    1.3421 C   0  0  0  0  0  0  0  0  0  0  0  0
    1.9194   -5.3405    2.4417 C   0  0  0  0  0  0  0  0  0  0  0  0
    0.7440   -6.0565    2.4633 C   0  0  0  0  0  0  0  0  0  0  0  0
   -0.1443   -5.9866    1.3960 C   0  0  0  0  0  0  0  0  0  0  0  0
   -1.6446   -6.9244    1.5088 S   0  0  0  0  0  0  0  0  0  0  0  0
   -2.0284   -7.2762   -0.2343 C   0  0  0  0  0  0  0  0  0  0  0  0
    0.1529   -5.1673    0.3175 C   0  0  0  0  0  0  0  0  0  0  0  0
    1.3415   -4.4641    0.2887 C   0  0  0  0  0  0  0  0  0  0  0  0
    4.6686   -3.0491   -0.6780 C   0  0  0  0  0  0  0  0  0  0  0  0
    5.9207   -4.2109   -0.9278 S   0  0  0  0  0  0  0  0  0  0  0  0
    1.8543   -1.1069    0.7987 C   0  0  0  0  0  0  0  0  0  0  0  0
    1.2411   -1.3056    2.0324 C   0  0  0  0  0  0  0  0  0  0  0  0
    1.7073   -2.0821    3.0887 N   0  0  0  0  0  0  0  0  0  0  0  0
    3.0108   -1.9012    3.5705 C   0  0  0  0  0  0  0  0  0  0  0  0
    3.7348   -0.7465    3.2818 C   0  0  0  0  0  0  0  0  0  0  0  0
    5.0097   -0.5566    3.7826 C   0  0  0  0  0  0  0  0  0  0  0  0
    5.5886   -1.5163    4.5985 C   0  0  0  0  0  0  0  0  0  0  0  0
    7.2159   -1.4027    5.2766 S   0  0  0  0  0  0  0  0  0  0  0  0
    7.7972    0.2357    4.7542 C   0  0  0  0  0  0  0  0  0  0  0  0
    4.8724   -2.6736    4.8943 C   0  0  0  0  0  0  0  0  0  0  0  0
    3.6108   -2.8670    4.3827 C   0  0  0  0  0  0  0  0  0  0  0  0
    0.7314   -2.7288    3.8639 C   0  0  0  0  0  0  0  0  0  0  0  0
    0.8116   -2.8068    5.2534 C   0  0  0  0  0  0  0  0  0  0  0  0
   -0.1408   -3.5011    5.9642 C   0  0  0  0  0  0  0  0  0  0  0  0
   -1.2251   -4.0856    5.3173 C   0  0  0  0  0  0  0  0  0  0  0  0
   -2.4121   -4.9250    6.3231 S   0  0  0  0  0  0  0  0  0  0  0  0
   -3.3191   -5.9516    5.1330 C   0  0  0  0  0  0  0  0  0  0  0  0
   -1.3438   -3.9611    3.9418 C   0  0  0  0  0  0  0  0  0  0  0  0
   -0.3671   -3.3014    3.2252 C   0  0  0  0  0  0  0  0  0  0  0  0
    0.0681   -0.5093    2.1486 C   0  0  0  0  0  0  0  0  0  0  0  0
   -1.1904   -0.3807    3.3346 S   0  0  0  0  0  0  0  0  0  0  0  0
   -1.9707    0.8910    2.3973 C   0  0  0  0  0  0  0  0  0  0  0  0
   -1.2418    1.2291    1.2726 C   0  0  0  0  0  0  0  0  0  0  0  0
   -1.5246    2.3475    0.4986 N   0  0  0  0  0  0  0  0  0  0  0  0
   -0.9905    2.3954   -0.8017 C   0  0  0  0  0  0  0  0  0  0  0  0
   -0.1919    3.4656   -1.2003 C   0  0  0  0  0  0  0  0  0  0  0  0
    0.3825    3.4779   -2.4518 C   0  0  0  0  0  0  0  0  0  0  0  0
    0.1801    2.4129   -3.3181 C   0  0  0  0  0  0  0  0  0  0  0  0
    0.9512    2.3878   -4.9106 S   0  0  0  0  0  0  0  0  0  0  0  0
    2.6160    3.0016   -4.5110 C   0  0  0  0  0  0  0  0  0  0  0  0
   -0.6418    1.3577   -2.9445 C   0  0  0  0  0  0  0  0  0  0  0  0
   -1.2264    1.3500   -1.6933 C   0  0  0  0  0  0  0  0  0  0  0  0
   -1.7579    3.5758    1.1515 C   0  0  0  0  0  0  0  0  0  0  0  0
   -1.1859    3.8787    2.3833 C   0  0  0  0  0  0  0  0  0  0  0  0
   -1.3337    5.1332    2.9426 C   0  0  0  0  0  0  0  0  0  0  0  0
   -2.0569    6.1124    2.2764 C   0  0  0  0  0  0  0  0  0  0  0  0
   -2.2640    7.7608    2.8690 S   0  0  0  0  0  0  0  0  0  0  0  0
   -1.3988    7.7789    4.4623 C   0  0  0  0  0  0  0  0  0  0  0  0
   -2.6656    5.8018    1.0613 C   0  0  0  0  0  0  0  0  0  0  0  0
   -2.5220    4.5488    0.5071 C   0  0  0  0  0  0  0  0  0  0  0  0
   -0.1197    0.3856    1.1105 C   0  0  0  0  0  0  0  0  0  0  0  0
    1.0780    0.1938   -0.1123 S   0  0  0  0  0  0  0  0  0  0  0  0
   -3.3369    1.3144    2.5830 C   0  0  0  0  0  0  0  0  0  0  0  0
   -3.9769    2.0713    3.5409 C   0  0  0  0  0  0  0  0  0  0  0  0
   -3.3497    2.6123    4.6531 N   0  0  0  0  0  0  0  0  0  0  0  0
   -3.6804    3.9041    5.0689 C   0  0  0  0  0  0  0  0  0  0  0  0
   -4.1641    4.8305    4.1469 C   0  0  0  0  0  0  0  0  0  0  0  0
   -4.5376    6.1002    4.5396 C   0  0  0  0  0  0  0  0  0  0  0  0
   -4.3913    6.4888    5.8632 C   0  0  0  0  0  0  0  0  0  0  0  0
   -4.7721    8.1051    6.4639 S   0  0  0  0  0  0  0  0  0  0  0  0
   -5.4450    8.9568    5.0096 C   0  0  0  0  0  0  0  0  0  0  0  0
   -3.8931    5.5727    6.7883 C   0  0  0  0  0  0  0  0  0  0  0  0
   -3.5567    4.2937    6.4033 C   0  0  0  0  0  0  0  0  0  0  0  0
   -2.5540    1.7612    5.4377 C   0  0  0  0  0  0  0  0  0  0  0  0
   -1.3312    2.1896    5.9496 C   0  0  0  0  0  0  0  0  0  0  0  0
   -0.5912    1.3567    6.7611 C   0  0  0  0  0  0  0  0  0  0  0  0
   -1.0567    0.0829    7.0752 C   0  0  0  0  0  0  0  0  0  0  0  0
   -0.0885   -0.9001    8.1789 S   0  0  0  0  0  0  0  0  0  0  0  0
   -1.3575   -1.8998    9.0150 C   0  0  0  0  0  0  0  0  0  0  0  0
   -2.2510   -0.3666    6.5296 C   0  0  0  0  0  0  0  0  0  0  0  0
   -2.9936    0.4697    5.7211 C   0  0  0  0  0  0  0  0  0  0  0  0
   -5.3508    2.2452    3.2215 C   0  0  0  0  0  0  0  0  0  0  0  0
   -6.6438    3.1417    3.9255 S   0  0  0  0  0  0  0  0  0  0  0  0
   -7.7600    2.5975    2.6607 C   0  0  0  0  0  0  0  0  0  0  0  0
   -7.1237    1.7711    1.7196 C   0  0  0  0  0  0  0  0  0  0  0  0
   -7.6240    1.1879    0.5783 N   0  0  0  0  0  0  0  0  0  0  0  0
   -7.0384   -0.0645    0.2628 C   0  0  0  0  0  0  0  0  0  0  0  0
   -7.0065   -1.0476    1.2462 C   0  0  0  0  0  0  0  0  0  0  0  0
   -6.3060   -2.2167    1.0410 C   0  0  0  0  0  0  0  0  0  0  0  0
   -5.6196   -2.4105   -0.1518 C   0  0  0  0  0  0  0  0  0  0  0  0
   -4.5804   -3.8094   -0.4256 S   0  0  0  0  0  0  0  0  0  0  0  0
   -4.2314   -4.3600    1.2705 C   0  0  0  0  0  0  0  0  0  0  0  0
   -5.7281   -1.4676   -1.1714 C   0  0  0  0  0  0  0  0  0  0  0  0
   -6.4355   -0.3003   -0.9696 C   0  0  0  0  0  0  0  0  0  0  0  0
   -8.6272    1.7003   -0.2316 C   0  0  0  0  0  0  0  0  0  0  0  0
   -8.8898    3.0683   -0.3113 C   0  0  0  0  0  0  0  0  0  0  0  0
   -9.9298    3.5478   -1.0867 C   0  0  0  0  0  0  0  0  0  0  0  0
  -10.7322    2.6692   -1.8018 C   0  0  0  0  0  0  0  0  0  0  0  0
  -12.1248    3.1428   -2.7686 S   0  0  0  0  0  0  0  0  0  0  0  0
  -12.2950    4.9253   -2.4799 C   0  0  0  0  0  0  0  0  0  0  0  0
  -10.4396    1.3036   -1.7698 C   0  0  0  0  0  0  0  0  0  0  0  0
   -9.4091    0.8260   -0.9988 C   0  0  0  0  0  0  0  0  0  0  0  0
   -5.7583    1.5965    2.0688 C   0  0  0  0  0  0  0  0  0  0  0  0
   -4.4336    0.7838    1.3117 S   0  0  0  0  0  0  0  0  0  0  0  0
   -9.0503    3.1430    2.7202 C   0  0  0  0  0  0  0  0  0  0  0  0
  -10.1735    2.6498    2.1053 C   0  0  0  0  0  0  0  0  0  0  0  0
  -10.3987    1.2255    1.7640 C   0  0  0  0  0  0  0  0  0  0  0  0
   -9.6861    0.2844    2.0608 O   0  0  0  0  0  0  0  0  0  0  0  0
  -11.7271    1.1930    1.1387 C   0  0  0  0  0  0  0  0  0  0  0  0
  -12.2675    2.4624    1.1591 C   0  0  0  0  0  0  0  0  0  0  0  0
  -13.8125    2.5723    0.4072 S   0  0  0  0  0  0  0  0  0  0  0  0
  -13.7481    0.8612    0.0389 C   0  0  0  0  0  0  0  0  0  0  0  0
  -14.7156    0.1388   -0.6403 C   0  0  0  0  0  0  0  0  0  0  0  0
  -14.4973   -1.2073   -0.8540 C   0  0  0  0  0  0  0  0  0  0  0  0
  -13.3327   -1.8301   -0.4002 C   0  0  0  0  0  0  0  0  0  0  0  0
  -12.3669   -1.1199    0.2743 C   0  0  0  0  0  0  0  0  0  0  0  0
  -12.5642    0.2433    0.5045 C   0  0  0  0  0  0  0  0  0  0  0  0
  -11.3591    3.4021    1.7644 C   0  0  0  0  0  0  0  0  0  0  0  0
  -11.5496    4.7611    1.8291 C   0  0  0  0  0  0  0  0  0  0  0  0
  -12.7237    5.3574    1.3319 C   0  0  0  0  0  0  0  0  0  0  0  0
  -13.6586    5.8617    0.8951 N   0  0  0  0  0  0  0  0  0  0  0  0
  -10.5999    5.6859    2.2992 C   0  0  0  0  0  0  0  0  0  0  0  0
   -9.8565    6.4928    2.6400 N   0  0  0  0  0  0  0  0  0  0  0  0
    7.9188   -4.8156   -2.8468 H   0  0  0  0  0  0  0  0  0  0  0  0
    9.8065    1.0878   -3.0978 H   0  0  0  0  0  0  0  0  0  0  0  0
   12.3938   -2.6368   -5.3487 H   0  0  0  0  0  0  0  0  0  0  0  0
   14.4626   -0.0277   -4.5539 H   0  0  0  0  0  0  0  0  0  0  0  0
   14.5339    0.3324   -7.0140 H   0  0  0  0  0  0  0  0  0  0  0  0
   12.0712    0.2627   -7.8672 H   0  0  0  0  0  0  0  0  0  0  0  0
   10.7183    2.2219   -6.6790 H   0  0  0  0  0  0  0  0  0  0  0  0
   12.3660    3.5163   -5.1174 H   0  0  0  0  0  0  0  0  0  0  0  0
   14.1165    2.9478   -7.0214 H   0  0  0  0  0  0  0  0  0  0  0  0
   14.8388    2.5063   -5.4540 H   0  0  0  0  0  0  0  0  0  0  0  0
   13.1727    1.8885   -3.4149 H   0  0  0  0  0  0  0  0  0  0  0  0
    4.6808    0.1042   -5.7131 H   0  0  0  0  0  0  0  0  0  0  0  0
    2.4805    0.5051   -6.6865 H   0  0  0  0  0  0  0  0  0  0  0  0
    0.8436   -0.2207   -8.3077 H   0  0  0  0  0  0  0  0  0  0  0  0
   -0.8759    0.2066   -8.1505 H   0  0  0  0  0  0  0  0  0  0  0  0
    0.3459    1.2061   -7.3334 H   0  0  0  0  0  0  0  0  0  0  0  0
    0.8645   -2.6857   -4.3507 H   0  0  0  0  0  0  0  0  0  0  0  0
    3.0869   -3.1390   -3.4294 H   0  0  0  0  0  0  0  0  0  0  0  0
    7.0826   -0.1293   -5.1572 H   0  0  0  0  0  0  0  0  0  0  0  0
    8.6520   -0.6619   -6.9573 H   0  0  0  0  0  0  0  0  0  0  0  0
   10.0211   -1.0383   -8.8382 H   0  0  0  0  0  0  0  0  0  0  0  0
   11.2315   -2.3378   -8.9595 H   0  0  0  0  0  0  0  0  0  0  0  0
   10.7381   -1.7537   -7.3538 H   0  0  0  0  0  0  0  0  0  0  0  0
    7.1275   -4.6584   -7.0973 H   0  0  0  0  0  0  0  0  0  0  0  0
    5.5589   -4.1182   -5.2750 H   0  0  0  0  0  0  0  0  0  0  0  0
    5.6022   -2.4977    1.9247 H   0  0  0  0  0  0  0  0  0  0  0  0
    7.6725   -3.3210    2.8930 H   0  0  0  0  0  0  0  0  0  0  0  0
    9.8056   -4.1008    3.4050 H   0  0  0  0  0  0  0  0  0  0  0  0
   10.2065   -5.0075    4.8786 H   0  0  0  0  0  0  0  0  0  0  0  0
    8.7674   -3.9606    4.8615 H   0  0  0  0  0  0  0  0  0  0  0  0
    6.1183   -7.3021    2.8123 H   0  0  0  0  0  0  0  0  0  0  0  0
    4.0557   -6.4784    1.7777 H   0  0  0  0  0  0  0  0  0  0  0  0
    2.5932   -5.4083    3.2799 H   0  0  0  0  0  0  0  0  0  0  0  0
    0.5042   -6.6762    3.3137 H   0  0  0  0  0  0  0  0  0  0  0  0
   -2.4550   -6.4026   -0.7200 H   0  0  0  0  0  0  0  0  0  0  0  0
   -1.1225   -7.6006   -0.7365 H   0  0  0  0  0  0  0  0  0  0  0  0
   -2.7579   -8.0799   -0.2224 H   0  0  0  0  0  0  0  0  0  0  0  0
   -0.5304   -5.0747   -0.5126 H   0  0  0  0  0  0  0  0  0  0  0  0
    1.5626   -3.8551   -0.5746 H   0  0  0  0  0  0  0  0  0  0  0  0
    3.2986    0.0270    2.6680 H   0  0  0  0  0  0  0  0  0  0  0  0
    5.5321    0.3522    3.5291 H   0  0  0  0  0  0  0  0  0  0  0  0
    8.7863    0.3481    5.1877 H   0  0  0  0  0  0  0  0  0  0  0  0
    7.1346    1.0033    5.1437 H   0  0  0  0  0  0  0  0  0  0  0  0
    7.8626    0.2811    3.6705 H   0  0  0  0  0  0  0  0  0  0  0  0
    5.3231   -3.4270    5.5217 H   0  0  0  0  0  0  0  0  0  0  0  0
    3.0811   -3.7752    4.6182 H   0  0  0  0  0  0  0  0  0  0  0  0
    1.6145   -2.3203    5.7846 H   0  0  0  0  0  0  0  0  0  0  0  0
   -0.0460   -3.5938    7.0339 H   0  0  0  0  0  0  0  0  0  0  0  0
   -3.9998   -5.3379    4.5497 H   0  0  0  0  0  0  0  0  0  0  0  0
   -2.6170   -6.4732    4.4894 H   0  0  0  0  0  0  0  0  0  0  0  0
   -3.8836   -6.6639    5.7267 H   0  0  0  0  0  0  0  0  0  0  0  0
   -2.1792   -4.3905    3.4143 H   0  0  0  0  0  0  0  0  0  0  0  0
   -0.4542   -3.2313    2.1516 H   0  0  0  0  0  0  0  0  0  0  0  0
   -0.0093    4.2835   -0.5194 H   0  0  0  0  0  0  0  0  0  0  0  0
    0.9994    4.3137   -2.7428 H   0  0  0  0  0  0  0  0  0  0  0  0
    3.2485    2.7402   -5.3529 H   0  0  0  0  0  0  0  0  0  0  0  0
    2.6054    4.0800   -4.3830 H   0  0  0  0  0  0  0  0  0  0  0  0
    2.9656    2.5018   -3.6129 H   0  0  0  0  0  0  0  0  0  0  0  0
   -0.8092    0.5444   -3.6336 H   0  0  0  0  0  0  0  0  0  0  0  0
   -1.8585    0.5280   -1.3910 H   0  0  0  0  0  0  0  0  0  0  0  0
   -0.5963    3.1363    2.9009 H   0  0  0  0  0  0  0  0  0  0  0  0
   -0.8623    5.3392    3.8900 H   0  0  0  0  0  0  0  0  0  0  0  0
   -1.8406    7.0457    5.1315 H   0  0  0  0  0  0  0  0  0  0  0  0
   -0.3387    7.5966    4.3112 H   0  0  0  0  0  0  0  0  0  0  0  0
   -1.5467    8.7767    4.8640 H   0  0  0  0  0  0  0  0  0  0  0  0
   -3.2451    6.5590    0.5557 H   0  0  0  0  0  0  0  0  0  0  0  0
   -2.9781    4.3174   -0.4439 H   0  0  0  0  0  0  0  0  0  0  0  0
   -4.2424    4.5628    3.1046 H   0  0  0  0  0  0  0  0  0  0  0  0
   -4.9255    6.7758    3.7963 H   0  0  0  0  0  0  0  0  0  0  0  0
   -6.3366    8.4436    4.6617 H   0  0  0  0  0  0  0  0  0  0  0  0
   -4.6904    9.0159    4.2301 H   0  0  0  0  0  0  0  0  0  0  0  0
   -5.7031    9.9546    5.3509 H   0  0  0  0  0  0  0  0  0  0  0  0
   -3.7868    5.8740    7.8193 H   0  0  0  0  0  0  0  0  0  0  0  0
   -3.2018    3.5893    7.1400 H   0  0  0  0  0  0  0  0  0  0  0  0
   -0.9782    3.1838    5.7202 H   0  0  0  0  0  0  0  0  0  0  0  0
    0.3511    1.6875    7.1705 H   0  0  0  0  0  0  0  0  0  0  0  0
   -0.8655   -2.3422    9.8756 H   0  0  0  0  0  0  0  0  0  0  0  0
   -2.1628   -1.2486    9.3402 H   0  0  0  0  0  0  0  0  0  0  0  0
   -1.7307   -2.6838    8.3619 H   0  0  0  0  0  0  0  0  0  0  0  0
   -2.6106   -1.3623    6.7337 H   0  0  0  0  0  0  0  0  0  0  0  0
   -3.9331    0.1261    5.3135 H   0  0  0  0  0  0  0  0  0  0  0  0
   -7.5374   -0.8789    2.1701 H   0  0  0  0  0  0  0  0  0  0  0  0
   -6.2970   -2.9633    1.8181 H   0  0  0  0  0  0  0  0  0  0  0  0
   -3.9626   -3.4962    1.8720 H   0  0  0  0  0  0  0  0  0  0  0  0
   -3.3921   -5.0459    1.2071 H   0  0  0  0  0  0  0  0  0  0  0  0
   -5.0901   -4.8820    1.6836 H   0  0  0  0  0  0  0  0  0  0  0  0
   -5.2249   -1.6446   -2.1095 H   0  0  0  0  0  0  0  0  0  0  0  0
   -6.4903    0.4465   -1.7474 H   0  0  0  0  0  0  0  0  0  0  0  0
   -8.2661    3.7684    0.2240 H   0  0  0  0  0  0  0  0  0  0  0  0
  -10.1071    4.6114   -1.1141 H   0  0  0  0  0  0  0  0  0  0  0  0
  -13.1551    5.2307   -3.0676 H   0  0  0  0  0  0  0  0  0  0  0  0
  -11.4086    5.4469   -2.8285 H   0  0  0  0  0  0  0  0  0  0  0  0
  -12.4878    5.1199   -1.4289 H   0  0  0  0  0  0  0  0  0  0  0  0
  -11.0535    0.6242   -2.3411 H   0  0  0  0  0  0  0  0  0  0  0  0
   -9.2160   -0.2345   -0.9552 H   0  0  0  0  0  0  0  0  0  0  0  0
   -9.1361    4.0577    3.2948 H   0  0  0  0  0  0  0  0  0  0  0  0
  -15.6127    0.6232   -0.9926 H   0  0  0  0  0  0  0  0  0  0  0  0
  -15.2386   -1.7879   -1.3816 H   0  0  0  0  0  0  0  0  0  0  0  0
  -13.1931   -2.8847   -0.5845 H   0  0  0  0  0  0  0  0  0  0  0  0
  -11.4622   -1.5857    0.6324 H   0  0  0  0  0  0  0  0  0  0  0  0
  1  2  2  0  0  0  0
  2  3  1  0  0  0  0
  3  4  2  0  0  0  0
  3  5  1  0  0  0  0
  5  6  2  0  0  0  0
  6  7  1  0  0  0  0
  7  8  2  0  0  0  0
  8  9  1  0  0  0  0
  9 10  2  0  0  0  0
 10 11  1  0  0  0  0
 11 12  2  0  0  0  0
 12 13  1  0  0  0  0
 13 14  3  0  0  0  0
 12 15  1  0  0  0  0
 15 16  3  0  0  0  0
  8 17  1  0  0  0  0
 17 18  1  0  0  0  0
 18 19  1  0  0  0  0
 19 20  2  0  0  0  0
 20 21  1  0  0  0  0
 21 22  1  0  0  0  0
 21 23  1  0  0  0  0
  1 24  1  0  0  0  0
 24 25  2  0  0  0  0
 25 26  1  0  0  0  0
 26 27  1  0  0  0  0
 27 28  2  0  0  0  0
 28 29  1  0  0  0  0
 29 30  2  0  0  0  0
 30 31  1  0  0  0  0
 31 32  1  0  0  0  0
 30 33  1  0  0  0  0
 33 34  2  0  0  0  0
 26 35  1  0  0  0  0
 35 36  2  0  0  0  0
 36 37  1  0  0  0  0
 37 38  2  0  0  0  0
 38 39  1  0  0  0  0
 39 40  1  0  0  0  0
 38 41  1  0  0  0  0
 41 42  2  0  0  0  0
 25 43  1  0  0  0  0
 43 44  1  0  0  0  0
 44 45  1  0  0  0  0
 45 46  2  0  0  0  0
 46 47  1  0  0  0  0
 47 48  1  0  0  0  0
 48 49  2  0  0  0  0
 49 50  1  0  0  0  0
 50 51  2  0  0  0  0
 51 52  1  0  0  0  0
 52 53  1  0  0  0  0
 51 54  1  0  0  0  0
 54 55  2  0  0  0  0
 47 56  1  0  0  0  0
 56 57  2  0  0  0  0
 57 58  1  0  0  0  0
 58 59  2  0  0  0  0
 59 60  1  0  0  0  0
 60 61  1  0  0  0  0
 59 62  1  0  0  0  0
 62 63  2  0  0  0  0
 46 64  1  0  0  0  0
 64 65  1  0  0  0  0
 45 66  1  0  0  0  0
 66 67  2  0  0  0  0
 67 68  1  0  0  0  0
 68 69  1  0  0  0  0
 69 70  2  0  0  0  0
 70 71  1  0  0  0  0
 71 72  2  0  0  0  0
 72 73  1  0  0  0  0
 73 74  1  0  0  0  0
 72 75  1  0  0  0  0
 75 76  2  0  0  0  0
 68 77  1  0  0  0  0
 77 78  2  0  0  0  0
 78 79  1  0  0  0  0
 79 80  2  0  0  0  0
 80 81  1  0  0  0  0
 81 82  1  0  0  0  0
 80 83  1  0  0  0  0
 83 84  2  0  0  0  0
 67 85  1  0  0  0  0
 85 86  1  0  0  0  0
 86 87  1  0  0  0  0
 87 88  2  0  0  0  0
 88 89  1  0  0  0  0
 89 90  1  0  0  0  0
 90 91  2  0  0  0  0
 91 92  1  0  0  0  0
 92 93  2  0  0  0  0
 93 94  1  0  0  0  0
 94 95  1  0  0  0  0
 93 96  1  0  0  0  0
 96 97  2  0  0  0  0
 89 98  1  0  0  0  0
 98 99  2  0  0  0  0
 99100  1  0  0  0  0
100101  2  0  0  0  0
101102  1  0  0  0  0
102103  1  0  0  0  0
101104  1  0  0  0  0
104105  2  0  0  0  0
 88106  1  0  0  0  0
106107  1  0  0  0  0
 87108  1  0  0  0  0
108109  2  0  0  0  0
109110  1  0  0  0  0
110111  1  0  0  0  0
111112  2  0  0  0  0
112113  1  0  0  0  0
113114  2  0  0  0  0
114115  1  0  0  0  0
115116  1  0  0  0  0
114117  1  0  0  0  0
117118  2  0  0  0  0
110119  1  0  0  0  0
119120  2  0  0  0  0
120121  1  0  0  0  0
121122  2  0  0  0  0
122123  1  0  0  0  0
123124  1  0  0  0  0
122125  1  0  0  0  0
125126  2  0  0  0  0
109127  1  0  0  0  0
127128  1  0  0  0  0
128129  1  0  0  0  0
129130  2  0  0  0  0
130131  1  0  0  0  0
131132  1  0  0  0  0
132133  2  0  0  0  0
133134  1  0  0  0  0
134135  2  0  0  0  0
135136  1  0  0  0  0
136137  1  0  0  0  0
135138  1  0  0  0  0
138139  2  0  0  0  0
131140  1  0  0  0  0
140141  2  0  0  0  0
141142  1  0  0  0  0
142143  2  0  0  0  0
143144  1  0  0  0  0
144145  1  0  0  0  0
143146  1  0  0  0  0
146147  2  0  0  0  0
130148  1  0  0  0  0
148149  1  0  0  0  0
129150  1  0  0  0  0
150151  2  0  0  0  0
151152  1  0  0  0  0
152153  2  0  0  0  0
152154  1  0  0  0  0
154155  2  0  0  0  0
155156  1  0  0  0  0
156157  1  0  0  0  0
157158  2  0  0  0  0
158159  1  0  0  0  0
159160  2  0  0  0  0
160161  1  0  0  0  0
161162  2  0  0  0  0
155163  1  0  0  0  0
163164  2  0  0  0  0
164165  1  0  0  0  0
165166  3  0  0  0  0
164167  1  0  0  0  0
167168  3  0  0  0  0
 11  2  1  0  0  0  0
 23 17  1  0  0  0  0
 65 24  1  0  0  0  0
107 66  1  0  0  0  0
149108  1  0  0  0  0
163151  1  0  0  0  0
 10  5  1  0  0  0  0
 22 18  1  0  0  0  0
 34 27  1  0  0  0  0
 42 35  1  0  0  0  0
 64 43  2  0  0  0  0
 76 69  1  0  0  0  0
 84 77  1  0  0  0  0
106 85  2  0  0  0  0
118111  1  0  0  0  0
126119  1  0  0  0  0
148127  2  0  0  0  0
162154  1  0  0  0  0
 23  7  1  0  0  0  0
 55 48  1  0  0  0  0
 63 56  1  0  0  0  0
 97 90  1  0  0  0  0
105 98  1  0  0  0  0
139132  1  0  0  0  0
147140  1  0  0  0  0
162157  1  0  0  0  0
  1169  1  0  0  0  0
  6170  1  0  0  0  0
  9171  1  0  0  0  0
 17172  1  0  0  0  0
 18173  1  0  0  0  0
 19174  1  0  0  0  0
 20175  1  0  0  0  0
 21176  1  0  0  0  0
 22177  1  0  0  0  0
 22178  1  0  0  0  0
 23179  1  0  0  0  0
 28180  1  0  0  0  0
 29181  1  0  0  0  0
 32182  1  0  0  0  0
 32183  1  0  0  0  0
 32184  1  0  0  0  0
 33185  1  0  0  0  0
 34186  1  0  0  0  0
 36187  1  0  0  0  0
 37188  1  0  0  0  0
 40189  1  0  0  0  0
 40190  1  0  0  0  0
 40191  1  0  0  0  0
 41192  1  0  0  0  0
 42193  1  0  0  0  0
 49194  1  0  0  0  0
 50195  1  0  0  0  0
 53196  1  0  0  0  0
 53197  1  0  0  0  0
 53198  1  0  0  0  0
 54199  1  0  0  0  0
 55200  1  0  0  0  0
 57201  1  0  0  0  0
 58202  1  0  0  0  0
 61203  1  0  0  0  0
 61204  1  0  0  0  0
 61205  1  0  0  0  0
 62206  1  0  0  0  0
 63207  1  0  0  0  0
 70208  1  0  0  0  0
 71209  1  0  0  0  0
 74210  1  0  0  0  0
 74211  1  0  0  0  0
 74212  1  0  0  0  0
 75213  1  0  0  0  0
 76214  1  0  0  0  0
 78215  1  0  0  0  0
 79216  1  0  0  0  0
 82217  1  0  0  0  0
 82218  1  0  0  0  0
 82219  1  0  0  0  0
 83220  1  0  0  0  0
 84221  1  0  0  0  0
 91222  1  0  0  0  0
 92223  1  0  0  0  0
 95224  1  0  0  0  0
 95225  1  0  0  0  0
 95226  1  0  0  0  0
 96227  1  0  0  0  0
 97228  1  0  0  0  0
 99229  1  0  0  0  0
100230  1  0  0  0  0
103231  1  0  0  0  0
103232  1  0  0  0  0
103233  1  0  0  0  0
104234  1  0  0  0  0
105235  1  0  0  0  0
112236  1  0  0  0  0
113237  1  0  0  0  0
116238  1  0  0  0  0
116239  1  0  0  0  0
116240  1  0  0  0  0
117241  1  0  0  0  0
118242  1  0  0  0  0
120243  1  0  0  0  0
121244  1  0  0  0  0
124245  1  0  0  0  0
124246  1  0  0  0  0
124247  1  0  0  0  0
125248  1  0  0  0  0
126249  1  0  0  0  0
133250  1  0  0  0  0
134251  1  0  0  0  0
137252  1  0  0  0  0
137253  1  0  0  0  0
137254  1  0  0  0  0
138255  1  0  0  0  0
139256  1  0  0  0  0
141257  1  0  0  0  0
142258  1  0  0  0  0
145259  1  0  0  0  0
145260  1  0  0  0  0
145261  1  0  0  0  0
146262  1  0  0  0  0
147263  1  0  0  0  0
150264  1  0  0  0  0
158265  1  0  0  0  0
159266  1  0  0  0  0
160267  1  0  0  0  0
161268  1  0  0  0  0
M  END
