194

C         -9.37420        2.28660        3.91410
C        -10.46940        1.50050        3.68420
C        -10.56820        0.40940        2.69940
O         -9.72060        0.03650        1.91120
C        -11.92540       -0.14640        2.83800
C        -12.46790       -1.20980        2.11980
C        -13.75730       -1.52350        2.47560
C        -14.45730       -0.82690        3.46980
C        -13.93640        0.22900        4.17920
C        -12.62200        0.56340        3.83610
C        -11.74300        1.60180        4.37140
C        -12.08290        2.49090        5.36060
C        -11.24680        3.48750        5.90430
N        -10.64000        4.32270        6.41020
C        -13.34180        2.53990        5.99480
N        -14.33700        2.64490        6.55840
C        -15.68840       -1.68530        3.31660
C        -15.91210       -2.76650        4.39530
C        -16.87760       -3.73110        3.74540
C        -16.21650       -4.38970        2.80210
C        -14.79280       -3.88150        2.79890
C        -14.61640       -3.58180        4.29300
C        -14.90840       -2.46070        2.20690
C         -8.07470        2.23010        3.37270
C         -7.08910        3.11040        3.79120
C         -5.82630        2.89310        3.21700
C         -4.59160        3.56870        3.38180
O         -4.31130        4.66210        4.13680
C         -4.98220        4.92730        5.35600
C         -4.94290        3.75830        6.33140
C         -3.52430        3.08930        2.64090
C         -3.57830        1.96900        1.77910
C         -4.80560        1.31370        1.59410
O         -4.95240        0.20350        0.80210
C         -4.82180        0.41190       -0.59750
C         -5.95980        1.25000       -1.16720
C         -5.88650        1.78890        2.31220
S         -7.46970        1.08040        2.20170
C         -2.30550        1.65140        1.26470
C         -1.30550        2.49110        1.68500
S         -1.91700        3.75920        2.72820
C          0.04620        2.38140        1.25250
C          1.22770        2.98870        1.66180
N          1.39370        3.83520        2.74360
C          2.33300        4.87160        2.63010
C          2.41630        5.61280        1.45510
C          3.35260        6.61930        1.31850
C          4.21940        6.90620        2.36350
S          5.45250        8.16770        2.31590
C          5.33670        8.83210        0.63070
C          4.13330        6.17170        3.54570
C          3.20590        5.16440        3.67840
C          0.74870        3.60410        3.96200
C          0.39180        4.67690        4.77640
C         -0.28510        4.47090        5.96110
C         -0.62180        3.18310        6.35370
S         -1.52470        2.79770        7.82280
C         -1.73780        4.40440        8.64190
C         -0.24820        2.10450        5.55480
C          0.43520        2.30920        4.37780
C          2.31140        2.59970        0.82840
S          4.01130        2.93590        0.80800
C          4.23590        1.86490       -0.56360
C          3.06190        1.24350       -0.94760
N          2.91810        0.26130       -1.92310
C          3.87890       -0.74060       -2.10450
C          4.63620       -1.21940       -1.03930
C          5.64860       -2.13510       -1.24620
C          5.91610       -2.60120       -2.52570
S          7.20550       -3.74270       -2.91700
C          8.12340       -3.89650       -1.35780
C          5.12620       -2.16950       -3.58870
C          4.11950       -1.25310       -3.38120
C          1.69260        0.20450       -2.60230
C          1.03610       -1.00750       -2.79820
C         -0.21880       -1.04230       -3.37300
C         -0.84350        0.13750       -3.75570
S         -2.47710        0.21370       -4.42620
C         -3.18100       -1.40750       -4.00860
C         -0.16800        1.34670       -3.61470
C          1.08730        1.38030       -3.04990
C          1.97440        1.69320       -0.15920
S          0.30210        1.28450       -0.10630
C          5.55010        1.57450       -1.10480
C          5.68400        1.40330       -2.47890
C          6.83100        0.79280       -2.95420
N          7.11510        0.34810       -4.21700
C          6.32650        0.55120       -5.40280
C          6.87180        1.70610       -6.24140
C          8.25080       -0.41840       -4.15700
C          8.77270       -0.39210       -2.83820
C          7.86390        0.39220       -2.06540
C          7.77620        0.71090       -0.71290
C          6.62440        1.29730       -0.24310
C          9.91860       -1.12690       -2.53680
C         10.44780       -1.94920       -3.50140
C          9.85430       -2.06340       -4.77780
C          8.80280       -1.22110       -5.13610
C         10.30810       -3.12390       -5.63430
C          9.54200       -3.90240       -6.44300
C          8.05500       -3.96550       -6.49470
O          7.23620       -3.12670       -6.18470
C          7.74140       -5.30750       -7.01940
C          6.47620       -5.88220       -7.11630
C          6.47770       -7.15020       -7.64370
C          7.65150       -7.80320       -8.04610
C          8.90450       -7.24500       -7.96420
C          8.92440       -5.95300       -7.42920
C         10.04560       -5.05810       -7.17490
C         11.33180       -5.23130       -7.60770
C         11.78090       -6.35020       -8.33970
N         12.20840       -7.23560       -8.93230
C         12.36920       -4.29090       -7.42530
N         13.25520       -3.56630       -7.33600
C          6.91080       -9.05270       -8.45220
C          6.96550      -10.26720       -7.49200
C          7.19140       -9.71130       -6.10790
C          6.08040       -9.09120       -5.73350
C          5.08240       -9.21740       -6.85810
C          5.46710      -10.59990       -7.40840
C          5.60340       -8.32290       -8.01010
H         -9.48890        3.07490        4.64830
H        -11.89130       -1.71600        1.36160
H        -14.49260        0.75570        4.93610
H        -16.60230       -1.16160        3.04310
H        -16.18720       -2.38280        5.37390
H        -17.92120       -3.79330        3.99260
H        -16.59740       -5.11180        2.10380
H        -14.04830       -4.51430        2.32310
H        -14.64950       -4.48470        4.90050
H        -13.71640       -3.01710        4.52930
H        -15.30140       -2.45280        1.19190
H         -7.32110        3.88220        4.50220
H         -6.01140        5.25610        5.17090
H         -4.42850        5.77850        5.76370
H         -5.52690        2.91860        5.96260
H         -3.91780        3.42370        6.47210
H         -5.35010        4.07040        7.28900
H         -4.84100       -0.59520       -1.02080
H         -3.85910        0.88270       -0.83350
H         -5.86680        1.30650       -2.24840
H         -6.91680        0.80290       -0.90960
H         -5.92620        2.25850       -0.75920
H         -2.11670        0.79790        0.63780
H          1.73670        5.40040        0.64260
H          3.38820        7.17330        0.39460
H          6.11410        9.58670        0.56100
H          5.52270        8.04250       -0.09140
H          4.36450        9.29110        0.47600
H          4.81340        6.39730        4.35270
H          3.15520        4.58990        4.59100
H          0.62750        5.68300        4.46490
H         -0.55680        5.32640        6.55750
H         -2.33400        5.06620        8.02050
H         -2.26720        4.19140        9.56540
H         -0.76710        4.83740        8.86440
H         -0.50130        1.10400        5.87070
H          0.72110        1.46450        3.76910
H          4.43750       -0.86530       -0.03910
H          6.21870       -2.47530       -0.39730
H          7.51590       -4.39970       -0.61110
H          8.43370       -2.91190       -1.02230
H          8.99550       -4.49990       -1.58950
H          5.33760       -2.54440       -4.57810
H          3.51720       -0.91350       -4.21130
H          1.50640       -1.92490       -2.47660
H         -0.70660       -1.99540       -3.49980
H         -4.24210       -1.33180       -4.22470
H         -3.03000       -1.60670       -2.95200
H         -2.73640       -2.18360       -4.62500
H         -0.64560        2.25750       -3.94130
H          1.60030        2.32320       -2.92830
H          4.87730        1.68470       -3.13780
H          6.33250       -0.37590       -5.98200
H          5.29760        0.75910       -5.10340
H          6.26870        1.83600       -7.13590
H          7.89870        1.50670       -6.53840
H          6.85230        2.63100       -5.66890
H          8.57850        0.45530       -0.03700
H          6.50460        1.49690        0.81160
H         10.36130       -1.07290       -1.55290
H         11.30130       -2.56980       -3.27100
H          8.42930       -1.21920       -6.14420
H         11.34650       -3.40980       -5.50640
H          5.59830       -5.34690       -6.79010
H          9.80000       -7.75830       -8.27330
H          7.00460       -9.34550       -9.49600
H          7.63810      -11.06060       -7.80650
H          8.12650       -9.77400       -5.58280
H          5.90250       -8.53040       -4.83460
H          4.04020       -9.05500       -6.59580
H          5.25320      -11.40630       -6.70850
H          5.01750      -10.82280       -8.37500
H          4.84410       -8.13550       -8.76700
