227

C          0.01490       -1.81940       -7.28580
C          0.29560       -0.88180       -8.22740
C          0.53840       -1.32150       -9.63190
O          0.41450       -2.44710      -10.06000
C          0.98860       -0.11900      -10.35110
C          1.46850       -0.04660      -11.65720
C          1.82480        1.21990      -12.05430
C          1.69980        2.33730      -11.21760
C          1.21600        2.28150       -9.93380
C          0.87110        0.99930       -9.50010
C          0.37660        0.55940       -8.19750
C         -0.10280        1.39580       -7.22140
C         -0.16540        2.79850       -7.34250
N         -0.26460        3.94340       -7.35920
C         -0.66490        1.02160       -5.98640
N         -1.15200        0.86440       -4.95670
C          2.24600        3.28020      -12.25840
C          1.23960        4.18000      -13.01600
C         -0.08230        3.45310      -12.99510
C          0.02440        2.39650      -13.78960
C          1.42010        2.38990      -14.36260
C          1.67900        3.90180      -14.46230
C          2.37600        2.03780      -13.19570
C          0.08320       -1.73190       -5.86790
C          1.13800       -1.33440       -5.05230
N          2.42940       -1.03390       -5.47760
C          3.47090       -1.82110       -4.98370
C          4.75030       -1.29870       -4.81050
C          5.77810       -2.08670       -4.33020
C          5.54540       -3.41460       -4.00150
S          6.77170       -4.51690       -3.36970
C          8.27180       -3.50040       -3.27570
C          4.26780       -3.94320       -4.17400
C          3.24620       -3.16270       -4.66300
C          2.72030        0.17520       -6.14030
C          2.31780        1.38550       -5.59050
C          2.62590        2.57950       -6.21800
C          3.32480        2.56980       -7.41630
S          3.73690        4.02940       -8.31490
C          2.82340        5.34110       -7.45350
C          3.73590        1.35450       -7.96590
C          3.44420        0.16800       -7.33120
C          0.80570       -1.49900       -3.68890
S          1.59940       -1.07200       -2.21870
C          0.17680       -1.53760       -1.28970
C         -0.84740       -2.02010       -2.10250
N         -2.10180       -2.46880       -1.70000
C         -2.53720       -3.69140       -2.22660
C         -1.61270       -4.70160       -2.48160
C         -2.01330       -5.91420       -3.00670
C         -3.35570       -6.14660       -3.26850
S         -3.98680       -7.67340       -3.89020
C         -2.50240       -8.54510       -4.47340
C         -4.28500       -5.13920       -3.01610
C         -3.88280       -3.92270       -2.51380
C         -2.84940       -1.75030       -0.76610
C         -2.66550       -0.37350       -0.64420
C         -3.21910        0.32080        0.41270
C         -4.00120       -0.34580        1.34770
S         -4.62440        0.41390        2.81820
C         -3.38500        1.70260        3.14710
C         -4.30800       -1.68740        1.14140
C         -3.72960       -2.39050        0.10960
C         -0.46460       -1.99770       -3.46140
S         -1.27120       -2.36720       -4.94080
C          0.20330       -1.44860        0.12840
C          0.95580       -0.60760        0.94390
N          1.83560        0.38600        0.53820
C          1.49970        1.30750       -0.45880
C          2.49030        1.85050       -1.27990
C          2.15170        2.72970       -2.28260
C          0.81920        3.07880       -2.50230
S          0.50030        4.19610       -3.83230
C         -1.30000        4.16000       -4.02020
C         -0.16570        2.55750       -1.67530
C          0.17710        1.68850       -0.65780
C          3.00150        0.56070        1.29950
C          3.72010       -0.55330        1.73580
C          4.84900       -0.39290        2.50610
C          5.29260        0.88190        2.85310
S          6.75380        0.96170        3.84010
C          6.95050        2.73170        4.19150
C          4.58660        1.99310        2.41200
C          3.44890        1.83170        1.64620
C          0.69450       -0.86670        2.30810
S          1.18150       -0.07680        3.76300
C          0.12600       -1.13460        4.71010
C         -0.61190       -2.02170        3.90870
N         -1.65400       -2.82220        4.29850
C         -2.05020       -3.88450        3.46470
C         -3.40400       -4.07890        3.18780
C         -3.79540       -5.06210        2.31100
C         -2.84830       -5.87870        1.69140
S         -3.47620       -7.02960        0.51440
C         -1.99700       -7.86630       -0.11710
C         -1.50780       -5.73700        2.02250
C         -1.11370       -4.74940        2.90720
C         -2.47760       -2.53260        5.40290
C         -2.97470       -3.58220        6.17330
C         -3.72280       -3.33340        7.30640
C         -3.98720       -2.02420        7.69050
S         -4.82470       -1.58810        9.17310
C         -4.84610       -3.13060       10.13270
C         -3.56780       -0.97510        6.87090
C         -2.82690       -1.22530        5.73920
C         -0.22740       -1.87160        2.54970
S         -0.78090       -2.56570        1.06840
C          0.05890       -0.85980        6.08880
S          0.27730        0.78140        6.63640
C         -0.24310        0.42210        8.27610
C         -0.47100       -0.94440        8.37310
S         -0.96580       -1.95100        9.68530
C         -0.81110       -3.37310        8.67190
C         -1.21700       -4.65650        9.23560
O         -1.76820       -4.76120       10.30770
O         -0.93920       -5.67640        8.42010
C         -1.35340       -6.97240        8.85120
C         -2.83380       -7.20480        8.58380
C         -0.42540       -3.06300        7.39490
C         -0.27190       -1.67440        7.17460
F         -0.15980       -3.97280        6.45500
C         -0.28970        1.35220        9.32360
C         -0.09220        2.70390        9.30310
C          0.32310        3.39120       10.55430
O          0.23980        2.96040       11.68240
C          0.91510        4.67230       10.11600
C          1.56260        5.61920       10.90560
C          2.04180        6.70040       10.20470
C          1.90580        6.82570        8.81580
C          1.26360        5.90330        8.02440
C          0.75210        4.80750        8.72170
C         -0.03340        3.67330        8.23710
C         -0.79890        3.69130        7.09730
C         -1.81810        2.76440        6.81030
N         -2.71140        2.09360        6.54060
C         -0.74710        4.70590        6.12220
N         -0.74010        5.48320        5.27630
C          2.62580        8.15030        8.78380
C          1.76710        9.42890        8.62390
C          0.40350        9.09930        9.17910
C          0.52010        8.98500       10.49530
C          1.96410        9.23500       10.85370
C          2.33440       10.26940        9.77870
C          2.76710        8.01680       10.33290
H         -0.27470       -2.79040       -7.68190
H          1.54080       -0.93130      -12.27040
H          1.12690        3.15160       -9.30770
H          3.15500        3.80970      -11.98070
H          1.22370        5.21550      -12.68710
H         -0.91390        3.74030      -12.37860
H         -0.70050        1.62440      -13.96990
H          1.56710        1.79660      -15.26130
H          1.04160        4.39040      -15.19780
H          2.72150        4.15180      -14.65440
H          3.36970        1.76210      -13.54350
H          4.94300       -0.26330       -5.04720
H          6.75370       -1.64440       -4.20960
H          8.54780       -3.15230       -4.26680
H          9.04460       -4.15670       -2.88760
H          8.11580       -2.67040       -2.59270
H          4.09150       -4.97910       -3.92750
H          2.26700       -3.59390       -4.80790
H          1.77830        1.39390       -4.65480
H          2.30960        3.50120       -5.75880
H          2.95410        6.23160       -8.06030
H          3.24450        5.50330       -6.46580
H          1.76930        5.08200       -7.39310
H          4.28000        1.35740       -8.89820
H          3.76550       -0.77330       -7.75170
H         -0.56830       -4.53920       -2.25540
H         -1.26930       -6.67200       -3.19540
H         -1.88850       -8.85980       -3.63400
H         -2.86650       -9.41830       -5.00560
H         -1.94490       -7.90510       -5.15040
H         -5.32640       -5.32240       -3.23030
H         -4.60690       -3.14000       -2.34800
H         -2.06290        0.14350       -1.37590
H         -3.04070        1.38140        0.50470
H         -3.58010        2.58450        2.54370
H         -2.39310        1.30730        2.94560
H         -3.47920        1.95050        4.20110
H         -4.97730       -2.18180        1.82610
H         -3.91310       -3.44890        0.01440
H          3.52040        1.56310       -1.13380
H          2.91640        3.14710       -2.91980
H         -1.63180        3.12920       -4.10840
H         -1.77440        4.66600       -3.18410
H         -1.50400        4.69340       -4.94370
H         -1.20110        2.82830       -1.80580
H         -0.58560        1.30100       -0.00010
H          3.38570       -1.54330        1.46290
H          5.40540       -1.25280        2.84580
H          7.13280        3.27800        3.27060
H          7.81790        2.80520        4.84010
H          6.07080        3.10560        4.70720
H          4.90250        2.99200        2.66520
H          2.89600        2.70010        1.32050
H         -4.13740       -3.43990        3.65460
H         -4.83960       -5.20170        2.07680
H         -1.51250       -8.42230        0.68010
H         -1.32680       -7.13680       -0.56170
H         -2.36010       -8.55220       -0.87610
H         -0.75690       -6.38300        1.59780
H         -0.07110       -4.64720        3.16870
H         -2.74120       -4.59980        5.89720
H         -4.07720       -4.16590        7.89210
H         -3.83850       -3.52370       10.23430
H         -5.51410       -3.85190        9.67020
H         -5.22930       -2.85520       11.11020
H         -3.81200        0.04070        7.13700
H         -2.51090       -0.39950        5.12230
H         -1.14200       -7.07570        9.92060
H         -0.73520       -7.66590        8.27840
H         -3.43170       -6.53270        9.19480
H         -3.05860       -7.03070        7.53390
H         -3.09200       -8.22890        8.83710
H         -0.40170        0.91420       10.31160
H          1.65640        5.48220       11.97140
H          1.16860        6.00390        6.95550
H          3.53770        8.18440        8.19060
H          1.78730        9.86500        7.62870
H         -0.46530        8.93020        8.57050
H         -0.23310        8.70180       11.20700
H          2.16330        9.49660       11.88970
H          1.81140       11.21590        9.90710
H          3.40590       10.44880        9.69960
H          3.77040        7.97230       10.75260
