241

C          3.01620       -3.94070       -7.22680
C          2.30240       -4.91330       -7.87410
C          2.86120       -5.53350       -9.09340
O          3.98090       -5.37570       -9.54110
C          1.76110       -6.33300       -9.66820
C          1.76770       -7.04510      -10.86450
C          0.58840       -7.69730      -11.13730
C         -0.52210       -7.64170      -10.28600
C         -0.54080       -6.94980       -9.09790
C          0.64860       -6.28240       -8.80080
C          1.01520       -5.50090       -7.62000
C          0.37870       -5.55150       -6.40070
C          0.95210       -5.07470       -5.20630
N          1.41330       -4.77480       -4.19650
C         -0.85640       -6.18300       -6.17880
N         -1.87820       -6.65550       -5.94490
C         -1.35040       -8.53440      -11.17530
C         -1.53590      -10.00850      -10.73900
C         -0.33710      -10.35770       -9.89210
C          0.71930      -10.41770      -10.69190
C          0.25380      -10.11050      -12.09380
C         -1.15760      -10.71750      -12.04920
C         -0.10910       -8.60470      -12.11980
C          2.54330       -2.96140       -6.33960
C          3.21470       -2.35070       -5.26720
N          4.52670       -2.50940       -4.92310
C          4.91760       -2.32200       -3.57960
C          5.97360       -1.46780       -3.28520
C          6.33110       -1.22230       -1.97380
C          5.63650       -1.83830       -0.94040
S          5.95620       -1.55980        0.76890
C          7.25500       -0.28990        0.77440
C          4.61050       -2.73530       -1.23870
C          4.24880       -2.97690       -2.54540
C          5.51790       -2.80900       -5.86800
C          5.49960       -2.21960       -7.13140
C          6.39970       -2.61500       -8.09970
C          7.33890       -3.59850       -7.81360
S          8.42280       -4.24050       -9.04870
C          7.34050       -4.22080      -10.51160
C          7.42670       -4.11090       -6.52170
C          6.52430       -3.72250       -5.55580
C          2.31070       -1.56730       -4.50900
S          2.45970       -0.68400       -3.03630
C          0.78940       -0.17060       -3.14630
C          0.17220       -0.60360       -4.30260
N         -1.07530       -0.18190       -4.69760
C         -1.91630       -0.96540       -5.49100
C         -2.78000       -0.35130       -6.39960
C         -3.58630       -1.11270       -7.21610
C         -3.54670       -2.50230       -7.14640
S         -4.60200       -3.40400       -8.24220
C         -3.75450       -5.00510       -8.37770
C         -2.71810       -3.11660       -6.21860
C         -1.90830       -2.35520       -5.39920
C         -1.47540        1.11520       -4.31850
C         -2.68160        1.32920       -3.65710
C         -3.06310        2.60910       -3.31620
C         -2.25640        3.69740       -3.64350
S         -2.84760        5.29430       -3.18420
C         -1.76840        6.43990       -4.08970
C         -1.05140        3.48620       -4.30020
C         -0.66570        2.20240       -4.63080
C          1.04120       -1.44460       -5.04790
S          0.87370       -2.38820       -6.48140
C          0.28180        0.53840       -1.96790
C          0.82970        1.78570       -1.65390
S          2.02050        2.48350       -2.77840
C          3.51810        2.36660       -1.71340
C          4.74590        2.27500       -2.59480
C          0.53610        2.41160       -0.44490
S          1.11580        4.01920       -0.01130
C          0.64690        5.03720       -1.46720
C          1.81430        5.86650       -1.96220
C         -0.13320        1.69450        0.55830
C         -0.65670        0.42380        0.27870
C         -0.52320       -0.12100       -1.01800
C         -1.09190       -1.44410       -1.36670
O         -1.26790       -1.81690       -2.51040
C         -1.44010       -2.29070       -0.22770
C         -1.52780       -1.76640        1.08910
C         -1.24240       -0.36760        1.39630
O         -1.42740        0.07150        2.51690
C         -1.92120       -2.71300        1.99520
S         -2.16680       -4.24050        1.26030
C         -1.76480       -3.61580       -0.28440
C         -0.03800        2.15380        1.94980
C         -0.84710        2.85840        2.80930
N         -2.04810        3.50000        2.50750
C         -3.04420        3.40710        3.50080
C         -3.35750        2.15790        4.03200
C         -4.22890        2.04350        5.09670
C         -4.80340        3.18050        5.64770
S         -5.87480        3.14510        7.05550
C         -5.47760        1.55370        7.83440
C         -4.54230        4.42410        5.08030
C         -3.67440        4.53930        4.01610
C         -2.07640        4.61550        1.65330
C         -3.20560        4.83320        0.87060
C         -3.30440        5.95380        0.07050
C         -2.26780        6.87660        0.04610
S         -2.27100        8.32810       -0.96400
C         -4.00140        8.47840       -1.48990
C         -1.13580        6.66430        0.83020
C         -1.03790        5.54360        1.62850
C         -0.37800        2.72760        4.14570
S         -0.97650        3.28430        5.66020
C          0.23270        2.33210        6.52440
C          1.10660        1.68200        5.64000
N          2.12800        0.83960        5.99750
C          2.38620       -0.25630        5.15240
C          1.31790       -0.98760        4.63620
C          1.53480       -2.01860        3.74570
C          2.82910       -2.34050        3.36100
S          3.19950       -3.62430        2.20900
C          1.64320       -3.80720        1.28480
C          3.90330       -1.64510        3.91210
C          3.68650       -0.61190        4.79790
C          2.92170        1.06810        7.13260
C          3.43800       -0.00710        7.84870
C          4.22670        0.20290        8.96360
C          4.50340        1.49630        9.38470
S          5.49560        1.88760       10.78930
C          5.73040        0.28680       11.61460
C          3.99100        2.57510        8.66400
C          3.21390        2.36850        7.54800
C          0.74320        1.93430        4.29750
S          1.33580        1.41470        2.76110
C          0.08420        2.06270        7.89550
C         -0.82230        2.62290        8.75110
C         -1.34780        1.85890        9.90520
O         -0.86570        0.86730       10.41060
C         -2.63060        2.51420       10.24530
C         -3.59150        2.07500       11.15370
C         -4.71590        2.86510       11.20650
C         -4.88120        4.00860       10.41390
C         -3.93960        4.46200        9.52060
C         -2.78930        3.67380        9.45620
C         -1.58990        3.83950        8.64210
C         -1.13560        5.01720        8.10220
C         -1.87760        6.21120        8.07050
N         -2.45170        7.20400        8.00740
C          0.17550        5.14360        7.60000
N          1.25750        5.27060        7.23600
C         -6.25570        4.29210       10.96610
C         -6.36040        5.42820       12.00450
C         -7.67140        5.15890       12.70680
C         -7.50950        4.08230       13.46540
C         -6.08610        3.60500       13.28740
C         -5.37980        4.95140       13.08400
C         -6.06830        3.02260       11.85830
H          4.06560       -3.91550       -7.49630
H          2.64460       -7.06660      -11.49260
H         -1.40010       -6.92230       -8.44830
H         -2.26630       -8.09880      -11.57010
H         -2.50860      -10.23360      -10.30970
H         -0.36950      -10.46400       -8.82360
H          1.74640      -10.58460      -10.42470
H          0.91090      -10.43030      -12.89840
H         -1.78110      -10.42890      -12.89440
H         -1.14690      -11.80210      -11.95320
H         -0.21650       -8.22210      -13.13310
H          6.50700       -0.98250       -4.08970
H          7.14470       -0.54400       -1.77500
H          8.16050       -0.67570        0.31540
H          7.44010       -0.06840        1.82090
H          6.90200        0.60350        0.26790
H          4.10620       -3.23310       -0.42590
H          3.44830       -3.66310       -2.77970
H          4.75810       -1.46730       -7.35820
H          6.35590       -2.16540       -9.07860
H          7.78320       -4.91630      -11.21760
H          6.34840       -4.55840      -10.22510
H          7.30950       -3.22720      -10.94950
H          8.18420       -4.84550       -6.29790
H          6.56300       -4.15390       -4.56690
H         -2.80640        0.72620       -6.46950
H         -4.24800       -0.63900       -7.92510
H         -4.24060       -5.53110       -9.19340
H         -3.85460       -5.57610       -7.45920
H         -2.70950       -4.82870       -8.61630
H         -2.70810       -4.18890       -6.11140
H         -1.29960       -2.83730       -4.65180
H         -3.31140        0.48480       -3.42110
H         -3.99430        2.78350       -2.79920
H         -0.75810        6.39320       -3.69580
H         -1.79510        6.20600       -5.14980
H         -2.17650        7.43040       -3.91570
H         -0.41040        4.30810       -4.57610
H          0.26980        2.04290       -5.14560
H          3.54880        3.24480       -1.06920
H          3.40080        1.46900       -1.10680
H          5.63840        2.23680       -1.97410
H          4.70660        1.37550       -3.20530
H          4.81490        3.14090       -3.24950
H         -0.16290        5.67400       -1.11040
H          0.27080        4.35740       -2.22730
H          2.57690        5.23440       -2.41020
H          2.25640        6.42510       -1.14070
H          1.47110        6.57790       -2.71090
H         -2.07710       -2.57920        3.04770
H         -1.77710       -4.24680       -1.15080
H         -2.88440        1.27790        3.62380
H         -4.44390        1.06420        5.49380
H         -4.39980        1.45210        7.92110
H         -5.90680        0.73470        7.26430
H         -5.92400        1.58670        8.82320
H         -5.00270        5.30370        5.50310
H         -3.45080        5.51380        3.60880
H         -4.01570        4.12000        0.90430
H         -4.18690        6.09100       -0.53140
H         -4.07140        9.43130       -2.00550
H         -4.25960        7.66870       -2.16680
H         -4.64570        8.48170       -0.61600
H         -0.34370        7.39830        0.82200
H         -0.17110        5.39740        2.25520
H          0.30760       -0.73660        4.92400
H          0.68750       -2.56300        3.36070
H          1.29400       -2.82720        0.97190
H          0.89970       -4.31710        1.89090
H          1.87810       -4.41300        0.41490
H          4.90530       -1.91170        3.61440
H          4.51980       -0.05870        5.20400
H          3.21510       -1.01620        7.53440
H          4.61130       -0.65240        9.49490
H          4.76410       -0.16420       11.81950
H          6.35120       -0.36430       11.00580
H          6.23900        0.51110       12.54700
H          4.21370        3.57940        8.98850
H          2.82300        3.21500        7.00470
H          0.62900        1.20640        8.27840
H         -3.43450        1.18350       11.74090
H         -4.07880        5.33090        8.89910
H         -7.06180        4.30260       10.23480
H         -6.21590        6.42660       11.60150
H         -8.56820        5.72710       12.54250
H         -8.24350        3.57150       14.06100
H         -5.69260        2.94300       14.05450
H         -5.41530        5.57340       13.97700
H         -4.35060        4.86550       12.74080
H         -6.75870        2.18960       11.73250
